data_mof_unit_35948.cif
_audit_creation_date              2012-12-11T16:29:37-0500
_audit_creation_method            fapswitch 2.2
_symmetry_space_group_name_H-M    P1
_symmetry_Int_Tables_number       1
_space_group_crystal_system       triclinic
_cell_length_a                    6.953369
_cell_length_b                    17.370428
_cell_length_c                    18.715299
_cell_angle_alpha                 106.314746
_cell_angle_beta                  89.584462
_cell_angle_gamma                 90.443574
_cell_volume                      2169.37141048

loop_
_atom_site_label
_atom_site_type_symbol
_atom_type_description
_atom_site_fract_x
_atom_site_fract_y
_atom_site_fract_z
_atom_type_partial_charge
O1    O     O_R   0.494360 0.415680 0.413760 -0.534311
O2    O     O_R   0.818810 0.432910 0.557230 -0.523400
O3    O     O_R   0.994290 0.584320 0.586240 -0.533418
C1    C     C_R   0.649719 0.415926 0.580590 0.711632
O4    O     O_R   0.823740 0.406440 0.412520 -0.534952
O5    O     O_R   0.999250 0.557660 0.440500 -0.526600
C2    C     C_R   0.655064 0.383813 0.384761 0.695365
O6    O     O_R   0.489400 0.442340 0.559500 -0.526852
O7    O     O_3   0.662500 0.549650 0.509350 -0.357952
V1    V     V_3+5 0.935340 0.490790 0.498270 1.423045
O8    O     O_R   0.329270 0.567090 0.442770 -0.521781
C3    C     C_R   0.161186 0.584023 0.419367 0.708988
O9    O     O_R   0.324340 0.593560 0.587480 -0.533866
C4    C     C_R   0.155073 0.616334 0.615124 0.695151
V2    V     V_3+5 0.435970 0.509210 0.501730 1.424356
O10   O     O_3   0.158940 0.450350 0.490650 -0.359875
C5    C     C_R   0.256613 0.600316 0.759239 -0.144466
C6    C     C_R   0.303101 0.589730 0.828084 -0.119043
C7    C     C_R   0.288572 0.653443 0.892159 -0.119961
C8    C     C_R   0.228491 0.728286 0.887780 -0.133223
C9    C     C_R   0.182358 0.741342 0.818420 0.070259
C10   C     C_R   0.195636 0.675771 0.752999 0.067026
C11   C     C_R   0.123462 0.818058 0.813949 -0.187195
C12   C     C_R   0.079695 0.829864 0.742879 0.022060
C13   C     C_R   0.081733 0.761860 0.678474 0.062959
C14   C     C_R   0.144012 0.685767 0.683243 -0.168443
C15   C     C_R   0.036669 0.906928 0.732520 -0.098852
C16   C     C_R   0.974769 0.913077 0.662536 -0.072155
C17   C     C_R   0.967785 0.844768 0.601376 -0.049648
C18   C     C_R   0.025134 0.771127 0.609085 -0.182706
H1    H     H_    0.268045 0.548496 0.711193 0.102808
H2    H     H_    0.349492 0.531615 0.831750 0.116721
H3    H     H_    0.323682 0.644847 0.945646 0.114176
H4    H     H_    0.218733 0.775502 0.939543 0.093527
H5    H     H_    0.024316 0.720780 0.559448 0.111364
C19   C     C_1   0.111581 0.863500 0.132247 -0.210532
C20   C     C_1   0.118880 0.820701 0.175620 0.029328
C21   C     C_1   0.128152 0.770505 0.227544 0.034598
C22   C     C_1   0.136187 0.728390 0.271505 0.025602
C23   C     C_1   0.145693 0.678393 0.323587 0.020548
C24   C     C_1   0.153318 0.635948 0.367264 -0.209426
C25   C     C_1   0.640957 0.363864 0.632510 -0.214194
C26   C     C_1   0.636860 0.321150 0.675986 0.006396
C27   C     C_1   0.633742 0.270788 0.727780 0.017331
C28   C     C_1   0.631452 0.228421 0.771569 0.027983
C29   C     C_1   0.628259 0.178226 0.823497 0.027127
C30   C     C_1   0.624082 0.135755 0.867174 -0.179844
H6    H     H_    0.331368 0.155664 0.439685 0.131887
C31   C     C_R   0.813813 0.394931 0.244415 -0.142074
C32   C     C_R   0.890156 0.402521 0.177705 -0.123573
C33   C     C_R   0.877247 0.339116 0.113289 -0.119648
C34   C     C_R   0.788187 0.267586 0.115110 -0.131263
C35   C     C_R   0.711803 0.257505 0.182294 0.068040
C36   C     C_R   0.724563 0.322638 0.248332 0.067470
C37   C     C_R   0.619954 0.184775 0.184022 -0.177721
C38   C     C_R   0.540379 0.177362 0.251917 0.061122
C39   C     C_R   0.553331 0.242532 0.317910 0.070377
C40   C     C_R   0.644935 0.315240 0.316136 -0.183550
C41   C     C_R   0.451133 0.105068 0.255977 -0.182661
C42   C     C_R   0.374887 0.097579 0.322994 0.006095
C43   C     C_R   0.388499 0.161290 0.387337 -0.143854
C44   C     C_R   0.477515 0.232629 0.385182 -0.143323
H7    H     H_    0.824493 0.446703 0.292481 0.108673
H8    H     H_    0.958227 0.458211 0.175886 0.115483
H9    H     H_    0.935168 0.345579 0.061420 0.116126
H10   H     H_    0.778537 0.220861 0.063036 0.104592
H11   H     H_    0.441008 0.053546 0.207565 0.110556
H12   H     H_    0.487570 0.279422 0.437195 0.113608
O11   O     O_R   0.775690 0.057750 0.940570 -0.514200
O12   O     O_R   0.441200 0.093570 0.087490 -0.537725
O13   O     O_R   0.265840 0.942320 0.059480 -0.529075
C45   C     C_R   0.609843 0.116234 0.115316 0.688599
O14   O     O_R   0.446270 0.067110 0.942790 -0.514426
O15   O     O_R   0.270950 0.915660 0.913750 -0.531181
C46   C     C_R   0.615338 0.083992 0.919342 0.720044
O16   O     O_R   0.770580 0.084400 0.086300 -0.535596
O17   O     O_3   0.602640 0.950400 0.990690 -0.365097
V3    V     V_3+5 0.329740 0.009200 0.001730 1.455743
O18   O     O_R   0.940900 0.906360 0.912450 -0.534358
C47   C     C_R   0.110276 0.884607 0.884076 0.719316
O19   O     O_R   0.935830 0.932820 0.057160 -0.525264
C48   C     C_R   0.103892 0.915816 0.080492 0.699783
V4    V     V_3+5 0.829130 0.990680 0.998180 1.448551
O20   O     O_3   0.106100 0.049590 0.009310 -0.349443
C49   C     C_1   0.908131 0.849156 0.528722 0.316785
N1    N     N_1   0.860549 0.852578 0.470567 -0.316450
C50   C     C_1   0.283957 0.023838 0.326110 0.301009
N2    N     N_1   0.210761 0.964726 0.328966 -0.324641
C51   C     C_1   0.070990 0.981792 0.789519 0.270585
N3    N     N_1   0.099248 0.042174 0.833964 -0.326078
C52   C     C_1   0.921180 0.990259 0.652924 0.322512
N4    N     N_1   0.878440 0.051726 0.645314 -0.331407

loop_
_geom_bond_atom_site_label_1
_geom_bond_atom_site_label_2
_ccdc_geom_bond_type
C37   C38   A    
C31   H7    S    
O12   V3    S    
C32   H8    S    
C7    C8    A    
C12   C15   A    
C45   O16   A    
O19   C48   A    
H6    C43   S    
C39   C44   A    
O17   V3    S    
C34   C35   A    
C17   C18   A    
C18   H5    S    
C16   C17   A    
O5    C3    A    
C21   C22   T    
O17   V4    S    
C31   C36   A    
C38   C39   A    
C6    C7    A    
C33   H9    S    
C41   H11   S    
O8    V2    S    
C19   C48   S    
C11   C12   A    
O11   C46   A    
O1    V2    S    
C11   C47   S    
O7    V1    S    
C2    C40   S    
C17   C49   S    
C37   C45   S    
C1    O6    A    
O13   C48   A    
C8    H4    S    
C41   C42   A    
O15   C47   A    
O9    C4    A    
O14   C46   A    
O16   V4    S    
O19   V4    S    
C42   C50   S    
C5    C6    A    
C35   C37   A    
C33   C34   A    
C12   C13   A    
C7    H3    S    
C52   N4    T    
O4    C2    A    
C13   C14   A    
C35   C36   A    
C42   C43   A    
O2    C1    A    
C26   C27   S    
C20   C21   S    
O11   V4    S    
V4    O20   S    
O14   V3    S    
C32   C33   A    
C4    C14   S    
C49   N1    T    
O3    C4    A    
C23   C24   T    
O6    V2    S    
C9    C11   A    
C10   C14   A    
C5    H1    S    
C28   C29   S    
C6    H2    S    
C25   C26   T    
O2    V1    S    
C22   C23   S    
C34   H10   S    
C27   C28   T    
C3    C24   S    
C36   C40   A    
C13   C18   A    
C29   C30   T    
C19   C20   T    
O1    C2    A    
O5    V1    S    
O8    C3    A    
C5    C10   A    
C38   C41   A    
C44   H12   S    
O9    V2    S    
O7    V2    S    
C30   C46   S    
O4    V1    S    
O3    V1    S    
V1    O10   S    
O18   V4    S    
C39   C40   A    
C1    C25   S    
C15   C51   S    
C16   C52   S    
C43   C44   A    
O18   C47   A    
V3    O20   S    
C8    C9    A    
C50   N2    T    
C31   C32   A    
O15   V3    S    
C15   C16   A    
O12   C45   A    
C51   N3    T    
C9    C10   A    
O13   V3    S    
V2    O10   S    
