data_mof_unit_8827.cif
_audit_creation_date              2013-03-05T15:43:19-0500
_audit_creation_method            fapswitch 2.2
_symmetry_space_group_name_H-M    P1
_symmetry_Int_Tables_number       1
_space_group_crystal_system       triclinic
_cell_length_a                    8.267012
_cell_length_b                    15.223339
_cell_length_c                    27.156043
_cell_angle_alpha                 97.889396
_cell_angle_beta                  93.033538
_cell_angle_gamma                 80.636647
_cell_volume                      3338.54077859

loop_
_atom_site_label
_atom_site_type_symbol
_atom_site_description
_atom_site_fract_x
_atom_site_fract_y
_atom_site_fract_z
_atom_type_partial_charge
P1    P     P_3+3 0.070480 0.574800 0.610950 0.480519
O1    O     O_2   0.905540 0.548000 0.618290 -0.351771
O2    O     O_3   0.137550 0.547930 0.558110 -0.407188
O3    O     O_3   0.688580 0.383890 0.587540 -0.403788
O4    O     O_2   0.838912 0.433971 0.672500 -0.307516
O5    O     O_3   0.031280 0.692031 0.624274 -0.570344
O6    O     O_3   0.714968 0.288033 0.671422 -0.537046
H1    H     H_    0.814186 0.228713 0.604084 0.183467
C1    C     C_3   0.751226 0.129831 0.645293 -0.944576
H2    H     H_    0.875249 0.118845 0.663375 0.288898
H3    H     H_    0.658827 0.122285 0.671994 0.244724
P2    P     P_3+3 0.668430 0.292880 0.460530 0.425189
P3    P     P_3+3 0.148720 0.221037 0.558923 0.494193
O7    O     O_2   0.848360 0.279400 0.474970 -0.364065
O8    O     O_3   0.104690 0.337720 0.562900 -0.385650
O9    O     O_2   0.003971 0.181470 0.530899 -0.355226
O10   O     O_3   0.700239 0.274555 0.396113 -0.579681
O11   O     O_3   0.137860 0.195818 0.619445 -0.483247
C2    C     C_3   0.276344 0.219558 0.647018 0.423178
H4    H     H_    0.302881 0.286358 0.640465 0.058006
H5    H     H_    0.383599 0.167096 0.637251 0.056945
C3    C     C_3   0.246592 0.224479 0.702157 -0.915210
H6    H     H_    0.140343 0.277230 0.712891 0.281769
H7    H     H_    0.221032 0.158791 0.710574 0.258882
C4    C     C_3   0.167105 0.262679 0.415947 0.386201
H8    H     H_    0.294722 0.250825 0.430002 0.020160
H9    H     H_    0.094744 0.299806 0.447046 0.159042
C5    C     C_3   0.111843 0.171744 0.401587 -0.862180
H10   H     H_    0.198197 0.128097 0.375271 0.238338
H11   H     H_    0.108074 0.138521 0.435239 0.256947
H12   H     H_    0.987730 0.180068 0.383619 0.279829
Ba1   Ba    Ba6+2 0.860900 0.457020 0.523210 1.567218
C6    C     C_3   0.973623 0.730032 0.581414 0.409431
H13   H     H_    0.857750 0.706633 0.568004 0.086219
H14   H     H_    0.064248 0.712013 0.551652 0.136800
C7    C     C_3   0.944163 0.831750 0.594385 -0.928076
H15   H     H_    0.844347 0.852347 0.621385 0.259075
H16   H     H_    0.909116 0.864497 0.560593 0.232290
H17   H     H_    0.058011 0.854996 0.610994 0.278378
C8    C     C_3   0.554458 0.269005 0.368365 0.345652
H18   H     H_    0.563537 0.298354 0.333562 0.100419
H19   H     H_    0.449444 0.309571 0.387553 0.137332
C9    C     C_3   0.531837 0.171295 0.354122 -0.984254
H20   H     H_    0.641921 0.132689 0.335082 0.264620
H21   H     H_    0.423462 0.167699 0.328428 0.253117
H22   H     H_    0.512692 0.140390 0.387548 0.241538
P4    P     P_3+3 0.119230 0.425130 0.389040 0.495515
O12   O     O_2   0.284150 0.451970 0.381680 -0.383469
O13   O     O_3   0.052160 0.451990 0.441880 -0.387759
O14   O     O_3   0.501140 0.616030 0.412450 -0.348546
O15   O     O_3   0.156627 0.307588 0.373614 -0.570477
P5    P     P_3+3 0.042216 0.778121 0.435635 0.527005
O16   O     O_3   0.615020 0.608480 0.525380 -0.426240
O17   O     O_3   0.085020 0.662210 0.437090 -0.345226
O18   O     O_2   0.174981 0.819331 0.468992 -0.288943
O19   O     O_3   0.080043 0.797829 0.375769 -0.464768
Ba2   Ba    Ba6+2 0.328940 0.542910 0.476780 1.578524
P6    P     P_3+3 0.683041 0.395124 0.652203 0.488881
C10   C     C_3   0.716434 0.223155 0.629310 0.486980
H23   H     H_    0.596072 0.231190 0.609043 -0.004499
H24   H     H_    0.746194 0.078417 0.612223 0.231969
O20   O     O_3   0.574690 0.391440 0.474610 -0.455745
C11   C     C_3   0.487399 0.679863 0.627778 0.455043
H25   H     H_    0.365131 0.665038 0.613510 0.095226
H26   H     H_    0.580479 0.618417 0.620805 0.109756
C12   C     C_3   0.478708 0.708117 0.683648 -1.002463
H27   H     H_    0.387561 0.770055 0.691600 0.269467
H28   H     H_    0.440937 0.654380 0.702059 0.218080
H29   H     H_    0.600781 0.721198 0.699212 0.270471
P7    P     P_3+3 0.527135 0.721558 0.540967 0.450809
O21   O     O_2   0.341330 0.720570 0.525000 -0.358904
O22   O     O_3   0.531474 0.750210 0.605617 -0.568349
H30   H     H_    0.356895 0.241467 0.724217 0.216496
C13   C     C_3   0.944321 0.780530 0.344902 0.394307
H31   H     H_    0.912212 0.713706 0.348477 0.052332
H32   H     H_    0.837664 0.833873 0.354312 0.015949
C14   C     C_3   0.985495 0.780657 0.291027 -0.862462
H33   H     H_    0.088627 0.726024 0.280195 0.278950
H34   H     H_    0.876938 0.769607 0.266506 0.237117
H35   H     H_    0.020657 0.846186 0.286052 0.247119
P8    P     P_3+3 0.508332 0.612175 0.347177 0.497025
C15   C     C_3   0.504280 0.778769 0.342174 0.421436
H36   H     H_    0.601415 0.764901 0.314113 0.032826
O23   O     O_2   0.403927 0.540856 0.323548 -0.395171
O24   O     O_3   0.399043 0.714103 0.332585 -0.457360
H37   H     H_    0.561198 0.779674 0.380326 0.064490
H38   H     H_    0.492891 0.921953 0.342834 0.199281
C16   C     C_3   0.407952 0.871667 0.338118 -0.863447
H39   H     H_    0.316177 0.890205 0.367645 0.305633
H40   H     H_    0.344319 0.872866 0.301105 0.249936
C17   C     C_R   0.055506 0.436318 0.179479 0.539392
O25   O     O_2   0.118318 0.376275 0.203170 -0.594993
N1    N     N_R   0.941208 0.506161 0.201503 -0.157508
C18   C     C_R   0.866613 0.571577 0.172554 0.519003
C19   C     C_2   0.747299 0.547840 0.270159 -0.251420
C20   C     C_3   0.726345 0.585038 0.324068 -0.015105
C21   C     C_1   0.986120 0.485572 0.341668 0.201130
C22   C     C_2   0.028120 0.483863 0.294420 -0.268863
C23   C     C_2   0.900868 0.512305 0.254450 0.134271
C24   C     C_R   0.013720 0.495135 0.099514 -0.092333
C25   C     C_R   0.099318 0.432994 0.129258 -0.049019
C26   C     C_R   0.224200 0.367450 0.107646 -0.125194
C27   C     C_R   0.892031 0.562675 0.120900 -0.045311
C28   C     C_2   0.842554 0.530764 0.357125 0.255495
H41   H     H_    0.155967 0.465187 0.285106 0.218741
H42   H     H_    0.289500 0.316661 0.128829 0.172336
C29   C     C_2   0.350641 0.476474 0.641006 -0.481004
C30   C     C_R   0.239661 0.437658 0.979818 -0.135165
C31   C     C_R   0.974980 0.531549 0.964960 0.025906
C32   C     C_R   0.125734 0.483231 0.947061 0.047018
C33   C     C_R   0.400937 0.404677 0.962757 0.575184
C34   C     C_R   0.441126 0.413026 0.914254 -0.240794
C35   C     C_R   0.323854 0.450674 0.880621 -0.079772
C36   C     C_R   0.163949 0.482084 0.896303 -0.125042
C37   C     C_R   0.043576 0.514025 0.861549 -0.233415
C38   C     C_R   0.083623 0.504345 0.810368 0.569199
N2    N     N_R   0.246214 0.482484 0.795658 -0.168840
C39   C     C_R   0.366395 0.461521 0.832348 0.568176
C40   C     C_2   0.437198 0.441963 0.724793 -0.169592
C41   C     C_3   0.493711 0.467901 0.677598 0.180147
C42   C     C_1   0.210860 0.523236 0.657848 0.292716
C43   C     C_2   0.177401 0.534922 0.706422 -0.163989
C44   C     C_2   0.290417 0.484704 0.743344 0.067190
O26   O     O_2   0.511672 0.455173 0.824056 -0.557838
C45   C     C_R   0.189243 0.431050 0.028722 0.060362
C46   C     C_R   0.050674 0.490297 0.048322 0.083095
C47   C     C_R   0.948584 0.544740 0.017085 0.074733
C48   C     C_R   0.269470 0.367051 0.058664 -0.159816
H43   H     H_    0.519209 0.393444 0.743530 0.207584
H44   H     H_    0.566012 0.388746 0.902942 0.195281
H45   H     H_    0.362428 0.312862 0.044198 0.192936
O27   O     O_2   0.780254 0.639087 0.191770 -0.616055
C49   C     C_R   0.800094 0.621302 0.090345 -0.093414
H46   H     H_    0.645686 0.563030 0.244193 0.198041
H47   H     H_    0.705528 0.674333 0.105703 0.168246
C50   C     C_R   0.855686 0.564548 0.930094 -0.411816
C51   C     C_R   0.886792 0.554433 0.879043 0.727047
O28   O     O_2   0.972817 0.514356 0.779207 -0.521953
C52   C     C_R   0.824666 0.611029 0.039236 -0.261171
H48   H     H_    0.733869 0.595244 0.941446 0.153623
H49   H     H_    0.081507 0.588993 0.719885 0.165965
H50   H     H_    0.749220 0.657972 0.017867 0.139421
H51   H     H_    0.352004 0.430590 0.606632 0.166910
C53   C     C_R   0.750294 0.765719 0.478259 -0.464381
C54   C     C_R   0.836242 0.824280 0.459183 0.150084
C55   C     C_R   0.772138 0.916341 0.462703 -0.247631
C56   C     C_R   0.628915 0.952129 0.490143 0.118923
C57   C     C_R   0.561342 0.891546 0.515488 -0.192645
C58   C     C_R   0.615297 0.798991 0.507376 0.283429
C59   C     C_R   0.396167 0.083333 0.514565 0.209798
C60   C     C_R   0.345484 0.175908 0.528715 0.072242
C61   C     C_R   0.581582 0.208919 0.490094 0.335877
C62   C     C_R   0.645671 0.116930 0.482436 -0.303206
C63   C     C_R   0.556772 0.051627 0.495832 -0.062811
C64   C     C_R   0.439546 0.237596 0.516796 -0.542752
H52   H     H_    0.838166 0.958250 0.444996 0.156364
H53   H     H_    0.762018 0.098137 0.464687 0.178929
H54   H     H_    0.470991 0.914911 0.543361 0.170912
H55   H     H_    0.394628 0.308747 0.524722 0.183212
H56   H     H_    0.797557 0.694669 0.474505 0.192990
O29   O     O_3   0.524740 0.367962 0.993472 -0.634112
C65   C     C_3   0.606633 0.437256 0.017112 -0.226948
H57   H     H_    0.522808 0.488491 0.040910 0.142861
H58   H     H_    0.662790 0.469391 0.989395 0.150433
H59   H     H_    0.706991 0.407895 0.041540 0.183525
O30   O     O_3   0.761488 0.583273 0.846398 -0.542864
C66   C     C_3   0.750331 0.676847 0.847136 -0.155585
H60   H     H_    0.655677 0.698977 0.819007 0.174422
H61   H     H_    0.868235 0.695165 0.837039 0.114694
H62   H     H_    0.711476 0.713498 0.883975 0.103489
O31   O     O_3   0.810483 0.544813 0.406261 -0.655209
C67   C     C_3   0.725712 0.476227 0.414584 0.152757
H63   H     H_    0.807617 0.412828 0.417358 0.137641
H64   H     H_    0.629272 0.460013 0.386163 0.068985
H65   H     H_    0.667035 0.502533 0.449624 0.237566
N3    N     N_R   0.274977 0.025101 0.510299 0.234126
O32   O     O_R   0.196795 0.014766 0.548952 -0.377981
O33   O     O_R   0.236757 0.985759 0.466670 -0.402220

loop_
_geom_bond_atom_site_label_1
_geom_bond_atom_site_label_2
_geom_bond_distance
_ccdc_geom_bond_type
C12   H28   1.108420 S    
H38   C16   1.110851 S    
C11   H26   1.111549 S    
N1    C18   1.397780 Am   
P2    C61   1.853397 S    
C59   N3    1.432332 S    
C19   C20   1.503726 S    
C33   O29   1.380989 S    
C50   H48   1.080621 S    
C21   C22   1.342587 D    
O12   Ba2   2.794155 S    
C66   H61   1.113887 S    
C14   H33   1.110766 S    
C4    C5    1.521796 S    
P5    C54   1.845188 S    
C22   H41   1.082892 S    
C13   H32   1.111795 S    
O4    P6    1.548315 D    
C1    H24   1.111089 S    
C5    H10   1.109569 S    
C2    H5    1.109372 S    
C55   C56   1.423387 A    
C26   C48   1.399683 A    
H1    C10   1.107361 S    
C54   C55   1.407503 A    
C52   H50   1.080265 S    
C19   C23   1.362678 D    
C12   H29   1.110808 S    
P4    Ba2   3.361411 S    
C37   C38   1.428159 A    
C6    C7    1.522444 S    
O13   Ba2   2.913838 S    
C38   N2    1.397077 Am   
O1    Ba1   2.793731 S    
P1    O1    1.515781 D    
C56   C63   1.524928 S    
C24   C25   1.406942 A    
C40   H43   1.080679 S    
C31   C47   1.425486 A    
C8    C9    1.523821 S    
C56   C57   1.420911 A    
C67   H64   1.113045 S    
C13   C14   1.519886 S    
P2    O10   1.760097 S    
C45   C48   1.414346 A    
P7    O21   1.575730 D    
C60   C64   1.392497 A    
C30   C45   1.434039 A    
C53   H56   1.081386 S    
C1    H2    1.110755 S    
C32   C36   1.427474 A    
O6    P6    1.754678 S    
C38   O28   1.219162 D    
P5    O18   1.543236 D    
N3    O33   1.299781 A    
C12   H27   1.110682 S    
C11   C12   1.521327 S    
C10   H23   1.108556 S    
C62   C63   1.423403 A    
O5    C6    1.397477 S    
P2    Ba1   3.392977 S    
C31   C50   1.411363 A    
C62   H53   1.077482 S    
C34   C35   1.404173 A    
P7    C58   1.843347 S    
C47   C52   1.411330 A    
Ba1   Ba2   4.570117 S    
C17   C25   1.421663 A    
O16   P7    1.759521 S    
O6    C10   1.403904 S    
C51   O30   1.383265 S    
P5    O17   1.747826 S    
O29   C65   1.408452 S    
C66   H62   1.112546 S    
C65   H58   1.110561 S    
C14   H34   1.110056 S    
O19   C13   1.402467 S    
C13   H31   1.110161 S    
C64   H55   1.082136 S    
P1    O5    1.751528 S    
C25   C26   1.405024 A    
C37   C51   1.417603 A    
Ba2   O20   2.810525 S    
C2    C3    1.520005 S    
C57   C58   1.397666 A    
P3    C60   1.847649 S    
P4    O13   1.543697 S    
C66   H60   1.109467 S    
P8    C20   1.902389 S    
O16   Ba2   2.899607 S    
C53   C54   1.392778 A    
P4    O15   1.760933 S    
C4    H8    1.098013 S    
C15   H37   1.114284 S    
C7    H17   1.110915 S    
C19   H46   1.084083 S    
C18   O27   1.221356 D    
C11   H25   1.109741 S    
P1    O2    1.543709 S    
O10   C8    1.395325 S    
C9    H20   1.110554 S    
C4    O15   1.407992 S    
C53   C58   1.388080 A    
C17   N1    1.392618 Am   
C65   H59   1.109352 S    
P2    O20   1.579085 S    
P4    O12   1.516005 D    
C61   C64   1.389805 A    
P2    O7    1.506492 D    
P6    C41   1.868989 S    
C6    H13   1.102541 S    
C39   O26   1.219567 D    
Ba2   O21   2.853707 S    
C9    H21   1.109898 S    
O31   C67   1.397154 S    
C42   C43   1.343986 D    
O3    Ba1   2.762969 S    
C28   O31   1.355427 S    
O2    Ba2   2.769724 S    
N3    O32   1.301738 A    
C16   H40   1.110541 S    
C18   C27   1.414153 A    
C49   C52   1.397126 A    
C1    H3    1.110187 S    
C45   C46   1.416207 A    
C43   H49   1.084159 S    
C24   C46   1.428586 A    
C4    H9    1.096792 S    
C29   C42   1.322939 D    
C29   H51   1.085802 S    
C7    H16   1.106813 S    
C48   H45   1.078026 S    
Ba1   O16   2.811054 S    
C17   O25   1.220921 D    
P8    O23   1.546138 D    
C67   H63   1.094328 S    
C35   C36   1.398405 A    
C14   H35   1.110591 S    
C20   C28   1.505158 S    
N1    C23   1.480211 S    
C8    H18   1.110319 S    
C33   C34   1.402669 A    
P3    O11   1.748358 S    
C59   C60   1.409098 A    
O14   Ba2   2.762272 S    
C5    H12   1.108412 S    
O7    Ba1   2.853546 S    
C50   C51   1.406414 A    
O8    Ba1   2.763769 S    
C40   C41   1.509643 S    
C67   H65   1.087255 S    
C36   C37   1.409470 A    
C40   C44   1.366520 D    
C65   H57   1.113266 S    
C15   O24   1.406462 S    
C57   H54   1.075557 S    
P4    C21   1.886309 S    
C30   C33   1.424094 A    
C34   H44   1.084039 S    
C2    H4    1.113702 S    
P3    O8    1.743713 S    
N2    C44   1.491670 S    
Ba1   O20   2.900581 S    
C5    H11   1.107679 S    
C31   C32   1.413578 A    
C29   C41   1.504789 S    
O30   C66   1.409872 S    
C46   C47   1.417196 A    
C15   C16   1.520958 S    
C8    H19   1.091636 S    
C11   O22   1.403172 S    
C6    H14   1.107289 S    
C30   C32   1.424008 A    
C26   H42   1.083299 S    
C3    H7    1.110616 S    
C24   C27   1.402798 A    
C27   C49   1.406616 A    
O2    Ba1   2.912846 S    
C9    H22   1.107711 S    
P1    C42   1.845693 S    
Ba1   O13   2.769043 S    
C21   C28   1.328875 D    
C35   C39   1.413006 A    
P1    Ba1   3.360803 S    
C55   H52   1.077727 S    
C16   H39   1.109423 S    
C7    H15   1.110655 S    
C22   C23   1.527171 S    
C59   C63   1.431836 A    
P3    O9    1.544736 D    
O3    P6    1.743092 S    
C49   H47   1.083310 S    
O11   C2    1.404123 S    
C3    H6    1.111165 S    
P7    O22   1.749851 S    
C61   C62   1.405469 A    
C3    H30   1.110688 S    
C15   H36   1.111539 S    
C43   C44   1.530215 S    
N2    C39   1.400355 Am   
C1    C10   1.520710 S    
P8    O24   1.748080 S    
P5    O19   1.746150 S    
O14   P8    1.769285 S    
O17   Ba2   2.764416 S    
