data_mof_unit_56051.cif
_audit_creation_date              2012-12-10T19:44:32-0500
_audit_creation_method            fapswitch 2.2
_symmetry_space_group_name_H-M    P1
_symmetry_Int_Tables_number       1
_space_group_crystal_system       triclinic
_cell_length_a                    8.573662
_cell_length_b                    14.929999
_cell_length_c                    14.167742
_cell_angle_alpha                 89.215946
_cell_angle_beta                  98.619192
_cell_angle_gamma                 90.171038
_cell_volume                      1792.8881293

loop_
_atom_site_label
_atom_site_type_symbol
_atom_type_description
_atom_site_fract_x
_atom_site_fract_y
_atom_site_fract_z
_atom_type_partial_charge
C1    C     C_R   0.509072 0.328053 0.501622 0.882552
C2    C     C_R   0.366335 0.526683 0.882677 -0.282942
C3    C     C_R   0.500113 0.499740 0.053263 0.138658
C4    C     C_R   0.500123 0.499738 0.946766 0.138875
C5    C     C_R   0.200996 0.499851 0.475078 0.978869
C6    C     C_R   0.798984 0.499933 0.524930 0.975542
C7    C     C_2   0.035921 0.499591 0.461602 -0.397288
C8    C     C_2   0.964026 0.499674 0.538426 -0.388356
C9    C     C_R   0.651948 0.095144 0.573572 0.089814
C10   C     C_R   0.657413 0.904659 0.459214 0.089708
C11   C     C_R   0.647186 0.189862 0.571036 0.146439
C12   C     C_R   0.508753 0.671915 0.500021 0.878837
C13   C     C_R   0.651393 0.809957 0.459954 0.142118
C14   C     C_R   0.527506 0.232401 0.505413 -0.071187
C15   C     C_R   0.527042 0.767487 0.499675 -0.068864
C16   C     C_R   0.422684 0.183657 0.441056 -0.244756
C17   C     C_R   0.417535 0.816175 0.541171 -0.246234
C18   C     C_R   0.432138 0.092024 0.440892 -0.212889
C19   C     C_R   0.426939 0.907816 0.543240 -0.209802
C20   C     C_R   0.544593 0.048153 0.506219 0.053327
C21   C     C_R   0.544605 0.951665 0.502702 0.052082
C22   C     C_3   0.767803 0.044088 0.647322 -0.449430
C23   C     C_R   0.366599 0.472296 0.093227 -0.282356
C24   C     C_3   0.704519 0.036847 0.742806 -0.331898
C25   C     C_3   0.821659 0.988814 0.818271 -0.882467
C26   C     C_3   0.780338 0.955778 0.412040 -0.448192
C27   C     C_3   0.724782 0.967856 0.304650 -0.329458
C28   C     C_3   0.848722 0.016618 0.256300 -0.885283
C29   C     C_3   0.778799 0.244423 0.628533 -0.446249
C30   C     C_3   0.911981 0.261806 0.570166 -0.875384
C31   C     C_3   0.784554 0.755287 0.428501 -0.435203
C32   C     C_3   0.916840 0.739688 0.511988 -0.886578
C33   C     C_R   0.633917 0.472964 0.907554 -0.278817
C34   C     C_R   0.369342 0.472411 0.192838 0.020225
C35   C     C_R   0.631042 0.473061 0.807921 0.007300
C36   C     C_R   0.630574 0.527638 0.215654 0.011297
C37   C     C_R   0.369094 0.526904 0.783597 0.022090
C38   C     C_R   0.633474 0.527424 0.116582 -0.279575
H1    H     H_    0.974065 0.499603 0.388721 0.170867
H2    H     H_    0.734193 0.451325 0.779014 0.119206
H3    H     H_    0.733324 0.550320 0.263008 0.117236
H4    H     H_    0.265958 0.548990 0.735633 0.122369
H5    H     H_    0.738639 0.550283 0.089712 0.133334
H6    H     H_    0.260898 0.548967 0.908907 0.133540
H7    H     H_    0.844351 0.919958 0.794881 0.265020
H8    H     H_    0.934657 0.026451 0.830983 0.258398
H9    H     H_    0.772392 0.984203 0.886324 0.248876
H10   H     H_    0.680604 0.104475 0.769017 0.215733
H11   H     H_    0.591713 0.998778 0.732673 0.228156
H12   H     H_    0.025828 0.499576 0.611315 0.169757
H13   H     H_    0.789521 0.975390 0.623810 0.209636
H14   H     H_    0.886243 0.075649 0.656277 0.206679
H15   H     H_    0.872453 0.084069 0.287461 0.264191
H16   H     H_    0.960184 0.977566 0.265307 0.258201
H17   H     H_    0.805162 0.024677 0.178817 0.249325
H18   H     H_    0.700211 0.901697 0.270609 0.215434
H19   H     H_    0.613792 0.007461 0.293166 0.229096
H20   H     H_    0.804311 0.022863 0.443430 0.208644
H21   H     H_    0.896740 0.922110 0.425481 0.209411
H22   H     H_    0.962826 0.197573 0.550510 0.254642
H23   H     H_    0.332583 0.216873 0.390887 0.156526
H24   H     H_    0.867215 0.300125 0.503940 0.261934
H25   H     H_    0.006707 0.301387 0.612775 0.255285
H26   H     H_    0.737402 0.309227 0.651798 0.229855
H27   H     H_    0.827374 0.211016 0.696747 0.208029
H28   H     H_    0.872342 0.699930 0.569223 0.261052
H29   H     H_    0.014502 0.702228 0.487246 0.253625
H30   H     H_    0.963954 0.804379 0.541864 0.251362
H31   H     H_    0.744548 0.689630 0.399163 0.229507
H32   H     H_    0.833076 0.788092 0.368640 0.207323
H33   H     H_    0.323787 0.782897 0.571736 0.155346
H34   H     H_    0.350357 0.054713 0.390167 0.150025
H35   H     H_    0.341291 0.945136 0.575951 0.147327
H36   H     H_    0.261383 0.449476 0.047962 0.132005
H37   H     H_    0.739446 0.450674 0.953459 0.131885
H38   H     H_    0.266398 0.450189 0.222354 0.123731
N1    N     N_R   0.500000 0.499980 0.252470 -0.089939
N2    N     N_R   0.500000 0.500020 0.747530 -0.089996
O1    O     O_R   0.500010 0.369070 0.579480 -0.631288
O2    O     O_R   0.499990 0.630930 0.420520 -0.631394
O3    O     O_R   0.500010 0.369060 0.420520 -0.614005
O4    O     O_R   0.499990 0.630940 0.579480 -0.612491
O5    O     O_R   0.271750 0.500000 0.560890 -0.622366
O6    O     O_R   0.728250 0.500000 0.439110 -0.629829
O7    O     O_R   0.271750 0.499990 0.401930 -0.634732
O8    O     O_R   0.728250 0.500010 0.598070 -0.642578
Zn1   Zn    Zn3+2 0.500000 0.500010 0.606140 0.930322
Zn2   Zn    Zn3+2 0.500000 0.499990 0.393860 0.931205

loop_
_geom_bond_atom_site_label_1
_geom_bond_atom_site_label_2
_ccdc_geom_bond_type
N2    Zn1   S    
O5    Zn1   S    
C25   H7    S    
C3    C23   A    
O1    Zn1   S    
C7    C8    D    
C26   C27   S    
C32   H28   S    
C19   C21   A    
C36   N1    A    
C34   N1    A    
C5    O5    A    
C11   C14   A    
C9    C22   S    
C1    O3    A    
O4    Zn1   S    
C37   H4    S    
C17   C19   A    
C33   H37   S    
C31   H32   S    
C3    C38   A    
C2    H6    S    
C30   H22   S    
C14   C16   A    
C26   H21   S    
C25   H9    S    
C32   H30   S    
C5    O7    A    
C10   C26   S    
C29   H26   S    
C30   H25   S    
C36   H3    S    
C28   H17   S    
C10   C21   A    
C18   H34   S    
C6    O6    A    
C24   H10   S    
C19   H35   S    
C24   C25   S    
N1    Zn2   S    
C27   H19   S    
C5    C7    S    
C28   H16   S    
O8    Zn1   S    
C6    C8    S    
C2    C4    A    
C29   C30   S    
C9    C11   A    
C9    C20   A    
C31   C32   S    
C12   C15   S    
C23   C34   A    
C12   O4    A    
C26   H20   S    
C32   H29   S    
C29   H27   S    
C17   H33   S    
C30   H24   S    
C13   C15   A    
C1    O1    A    
C22   C24   S    
C16   H23   S    
C23   H36   S    
C3    C4    S    
C8    H12   S    
C22   H14   S    
O7    Zn2   S    
C24   H11   S    
C15   C17   A    
C4    C33   A    
C27   H18   S    
C13   C31   S    
O6    Zn2   S    
C10   C13   A    
C28   H15   S    
C37   N2    A    
C35   N2    A    
C6    O8    A    
C36   C38   A    
C35   H2    S    
C38   H5    S    
O2    Zn2   S    
C2    C37   A    
C12   O2    A    
C33   C35   A    
C18   C20   A    
O3    Zn2   S    
C31   H31   S    
C20   C21   S    
C11   C29   S    
C16   C18   A    
C27   C28   S    
C7    H1    S    
C1    C14   S    
C25   H8    S    
C34   H38   S    
C22   H13   S    
