data_mof_unit_46943.cif
_audit_creation_date              2012-12-10T17:43:31-0500
_audit_creation_method            fapswitch 2.2
_symmetry_space_group_name_H-M    P1
_symmetry_Int_Tables_number       1
_space_group_crystal_system       triclinic
_cell_length_a                    14.903045
_cell_length_b                    10.715824
_cell_length_c                    9.909627
_cell_angle_alpha                 89.902504
_cell_angle_beta                  90.673188
_cell_angle_gamma                 91.909175
_cell_volume                      1581.56263388

loop_
_atom_site_label
_atom_site_type_symbol
_atom_type_description
_atom_site_fract_x
_atom_site_fract_y
_atom_site_fract_z
_atom_type_partial_charge
C1    C     C_R   0.506594 0.260286 0.501305 0.937975
C2    C     C_R   0.184755 0.382467 0.461088 0.298486
C3    C     C_R   0.231785 0.492136 0.499952 -0.112608
C4    C     C_R   0.327192 0.497887 0.499587 0.937204
C5    C     C_R   0.188664 0.596005 0.547215 -0.324287
C6    C     C_R   0.533604 0.112869 0.757517 -0.140519
C7    C     C_R   0.508429 0.053205 0.877064 -0.129262
C8    C     C_R   0.459815 0.940414 0.871857 -0.115989
C9    C     C_R   0.444293 0.881844 0.747907 -0.123513
C10   C     C_R   0.477187 0.936583 0.626971 0.098519
C11   C     C_R   0.509078 0.060500 0.630218 0.067424
C12   C     C_R   0.909648 0.593903 0.554754 0.123172
C13   C     C_R   0.512453 0.126623 0.505746 -0.074218
C14   C     C_R   0.505382 0.063458 0.382716 -0.135792
C15   C     C_R   0.493416 0.936421 0.381460 -0.208438
C16   C     C_R   0.491415 0.739053 0.500359 0.884055
C17   C     C_R   0.481616 0.871976 0.502826 -0.129996
C18   C     C_R   0.380652 0.339155 0.137887 -0.126065
C19   C     C_R   0.318278 0.264182 0.067586 -0.226162
C20   C     C_R   0.316177 0.264733 0.927185 0.008528
C21   C     C_R   0.379639 0.339022 0.858123 -0.166236
C22   C     C_R   0.441188 0.420032 0.926735 0.060186
C23   C     C_R   0.947227 0.274254 0.421094 -0.180054
C24   C     C_R   0.441308 0.420276 0.071114 0.125493
C25   C     C_R   0.556034 0.576544 0.072973 -0.158162
C26   C     C_R   0.556227 0.576759 0.930036 0.417868
C27   C     C_R   0.672774 0.499020 0.500785 0.980651
C28   C     C_R   0.817022 0.595072 0.552794 -0.280394
C29   C     C_R   0.767906 0.492335 0.503239 -0.144613
C30   C     C_R   0.808832 0.384121 0.459101 0.304646
C31   C     C_R   0.902562 0.380514 0.462820 0.052220
C32   C     C_R   0.952934 0.486756 0.508982 0.021786
C33   C     C_R   0.245477 0.191118 0.852813 0.107000
C34   C     C_R   0.040289 0.273688 0.422019 -0.187222
C35   C     C_R   0.155311 0.195000 0.892830 -0.143217
C36   C     C_R   0.088079 0.128662 0.820897 -0.115572
C37   C     C_R   0.110165 0.056756 0.709475 -0.120259
C38   C     C_R   0.199572 0.050802 0.669973 -0.080505
C39   C     C_R   0.266822 0.118784 0.740171 -0.110566
C40   C     C_R   0.090935 0.379760 0.463575 0.065316
C41   C     C_R   0.046663 0.486708 0.508361 0.022335
C42   C     C_R   0.096102 0.594295 0.552025 0.136278
C43   C     C_R   0.052478 0.699006 0.598769 -0.200482
C44   C     C_R   0.959440 0.698785 0.600406 -0.179398
Cl1   Cl    Cl    0.741698 0.254157 0.402649 -0.657978
Cl2   Cl    Cl    0.631511 0.679837 0.848090 -0.595482
Cl3   Cl    Cl    0.244276 0.248801 0.415763 -0.759114
H1    H     H_    0.782713 0.676771 0.587265 0.188567
H2    H     H_    0.377687 0.333077 0.751147 0.216162
H3    H     H_    0.911049 0.190917 0.386588 0.207278
H4    H     H_    0.071730 0.189972 0.388100 0.202104
H5    H     H_    0.227624 0.678350 0.579441 0.142818
H6    H     H_    0.090429 0.781038 0.633274 0.139861
H7    H     H_    0.926428 0.780931 0.635976 0.156083
H8    H     H_    0.509462 0.111902 0.286766 0.174602
H9    H     H_    0.136725 0.251234 0.978155 0.145023
H10   H     H_    0.018764 0.133338 0.851342 0.148078
H11   H     H_    0.057919 0.006090 0.653547 0.127630
H12   H     H_    0.573668 0.198337 0.766944 0.181669
H13   H     H_    0.216693 0.994801 0.583773 0.150514
H14   H     H_    0.335328 0.114705 0.706740 0.144400
H15   H     H_    0.524836 0.096021 0.973517 0.148792
H16   H     H_    0.436365 0.896537 0.963995 0.137406
H17   H     H_    0.405333 0.794885 0.747841 0.150930
H18   H     H_    0.494365 0.888836 0.285094 0.173012
H19   H     H_    0.601618 0.638980 0.128205 0.182337
H20   H     H_    0.378987 0.332450 0.244596 0.249527
H21   H     H_    0.271530 0.204821 0.123259 0.199097
N1    N     N_R   0.499150 0.498800 0.142780 -0.143262
N2    N     N_R   0.499120 0.498720 0.857170 -0.157006
O1    O     O_R   0.500000 0.316780 0.614690 -0.670588
O2    O     O_R   0.499990 0.316750 0.385360 -0.622193
O3    O     O_R   0.367850 0.499980 0.614680 -0.650625
O4    O     O_R   0.367840 0.499960 0.385350 -0.625670
O5    O     O_R   0.500010 0.683250 0.614640 -0.583570
O6    O     O_R   0.500000 0.683220 0.385310 -0.631802
O7    O     O_R   0.632160 0.500040 0.614650 -0.569018
O8    O     O_R   0.632150 0.500020 0.385320 -0.591297
Zn1   Zn    Zn3+2 0.500010 0.500020 0.653130 0.982088
Zn2   Zn    Zn3+2 0.499990 0.499980 0.346870 0.974011

loop_
_geom_bond_atom_site_label_1
_geom_bond_atom_site_label_2
_ccdc_geom_bond_type
C5    C42   A    
C27   C29   S    
C16   O5    A    
C41   C42   A    
C30   Cl1   S    
C19   C20   A    
C27   O8    A    
C21   H2    S    
C7    C8    A    
C34   H4    S    
C33   C39   A    
C12   C28   A    
C18   C24   A    
C28   C29   A    
C30   C31   A    
O8    Zn2   S    
C10   C17   A    
C9    H17   S    
C18   C19   A    
C43   H6    S    
C28   H1    S    
C35   C36   A    
C8    C9    A    
C32   C41   A    
C5    H5    S    
C29   C30   A    
C9    C10   A    
C4    O4    A    
C37   H11   S    
C14   H8    S    
C35   H9    S    
O4    Zn2   S    
C13   C14   A    
C12   C32   A    
O1    Zn1   S    
C24   N1    A    
O7    Zn1   S    
C39   H14   S    
C1    O2    A    
C36   H10   S    
C6    C11   A    
C16   C17   S    
C23   H3    S    
C27   O7    A    
C18   H20   S    
C23   C31   A    
C43   C44   A    
C7    H15   S    
C37   C38   A    
C44   H7    S    
C31   C32   A    
C23   C34   A    
O3    Zn1   S    
C19   H21   S    
C1    O1    A    
C4    O3    A    
C38   H13   S    
C20   C33   S    
C40   C41   A    
C26   N2    A    
C34   C40   A    
C1    C13   S    
C42   C43   A    
C3    C4    S    
C15   C17   A    
C36   C37   A    
N2    Zn1   S    
C16   O6    A    
C6    H12   S    
C25   H19   S    
O6    Zn2   S    
C3    C5    A    
C6    C7    A    
C2    Cl3   S    
C2    C3    A    
C25   C26   A    
C12   C44   A    
C11   C13   A    
C38   C39   A    
C33   C35   A    
C22   C24   A    
C10   C11   A    
C26   Cl2   S    
C8    H16   S    
C2    C40   A    
C25   N1    A    
C20   C21   A    
O2    Zn2   S    
C14   C15   A    
N1    Zn2   S    
C21   C22   A    
O5    Zn1   S    
C22   N2    A    
C15   H18   S    
