data_mof_unit_46846.cif
_audit_creation_date              2012-12-10T17:48:48-0500
_audit_creation_method            fapswitch 2.2
_symmetry_space_group_name_H-M    P1
_symmetry_Int_Tables_number       1
_space_group_crystal_system       triclinic
_cell_length_a                    10.724615
_cell_length_b                    14.709039
_cell_length_c                    14.781309
_cell_angle_alpha                 65.029404
_cell_angle_beta                  103.586953
_cell_angle_gamma                 103.148959
_cell_volume                      2032.71863771

loop_
_atom_site_label
_atom_site_type_symbol
_atom_type_description
_atom_site_fract_x
_atom_site_fract_y
_atom_site_fract_z
_atom_type_partial_charge
C1    C     C_R   0.475530 0.119637 0.312494 0.842482
C2    C     C_3   0.878453 0.999394 0.501584 0.062854
C3    C     C_3   0.921688 0.896243 0.578797 0.243462
C4    C     C_3   0.965544 0.087198 0.529296 -0.348514
C5    C     C_R   0.465151 0.186731 0.205093 -0.111187
C6    C     C_R   0.533332 0.811928 0.794841 -0.039631
C7    C     C_R   0.473026 0.215610 0.032623 -0.188705
C8    C     C_R   0.474717 0.150385 0.133600 -0.254883
C9    C     C_R   0.452455 0.289045 0.174115 0.292067
C10   C     C_R   0.477200 0.358531 0.077139 0.026028
C11   C     C_R   0.475017 0.319566 0.003941 0.109134
C12   C     C_R   0.260065 0.000104 0.500324 0.777979
C13   C     C_R   0.504320 0.465008 0.050521 0.085996
C14   C     C_R   0.498727 0.531158 0.947040 0.055504
C15   C     C_R   0.479559 0.488256 0.874273 -0.160722
C16   C     C_R   0.474128 0.384766 0.903018 -0.187887
C17   C     C_R   0.549347 0.506452 0.124836 -0.135270
C18   C     C_R   0.575817 0.610445 0.098793 -0.227083
C19   C     C_R   0.560015 0.676700 0.997668 0.158132
C20   C     C_R   0.519828 0.637842 0.920711 0.092766
C21   C     C_R   0.587185 0.781728 0.972534 -0.177443
C22   C     C_R   0.575151 0.849000 0.871637 -0.169332
C23   C     C_R   0.521040 0.880190 0.687592 0.847875
C24   C     C_R   0.503447 0.707332 0.819940 -0.173765
C25   C     C_R   0.730722 0.289796 0.658413 -0.292902
C26   C     C_R   0.691961 0.207001 0.630879 0.072388
C27   C     C_R   0.513579 0.282229 0.515733 0.041030
C28   C     C_R   0.547592 0.369114 0.540855 -0.026503
C29   C     C_R   0.658885 0.370859 0.613797 0.084865
C30   C     C_R   0.475630 0.453004 0.497114 0.023196
C31   C     C_R   0.519045 0.539582 0.524742 -0.020088
C32   C     C_R   0.626458 0.532864 0.604901 0.301227
C33   C     C_R   0.695626 0.451275 0.645035 -0.210251
C34   C     C_R   0.740072 0.999850 0.500197 0.825398
C35   C     C_R   0.359252 0.451269 0.428792 -0.178208
C36   C     C_R   0.287375 0.530595 0.387221 -0.179227
C37   C     C_R   0.330684 0.617362 0.407904 0.151311
C38   C     C_R   0.449026 0.625575 0.473402 -0.006825
C39   C     C_R   0.256341 0.696941 0.361968 -0.309018
C40   C     C_R   0.298938 0.784886 0.380436 0.069795
C41   C     C_R   0.491864 0.721331 0.480744 0.047393
C42   C     C_3   0.042507 0.015015 0.395053 -0.379655
C43   C     C_3   0.898752 0.015355 0.395089 -0.470904
C44   C     C_3   0.066883 0.898019 0.579855 -0.399498
C45   C     C_3   0.108266 0.087311 0.529378 -0.367472
C46   C     C_3   0.122383 0.000154 0.501114 0.092167
Cu1   Cu    Cu3+1 0.465900 0.918260 0.475680 0.953802
Cu2   Cu    Cu3+1 0.534100 0.081740 0.524320 0.961417
H1    H     H_    0.050047 0.953017 0.373101 0.170640
H2    H     H_    0.953271 0.079676 0.604958 0.205912
H3    H     H_    0.123854 0.887002 0.656161 0.197521
H4    H     H_    0.467913 0.355565 0.845643 0.151406
H5    H     H_    0.465204 0.681809 0.759247 0.166806
H6    H     H_    0.598337 0.929704 0.853828 0.153386
H7    H     H_    0.610333 0.639103 0.158226 0.147161
H8    H     H_    0.474921 0.185436 0.977624 0.145697
H9    H     H_    0.481878 0.071358 0.155491 0.171994
H10   H     H_    0.081654 0.087824 0.337603 0.189872
H11   H     H_    0.476033 0.532682 0.794691 0.188562
H12   H     H_    0.571753 0.459010 0.203918 0.191241
H13   H     H_    0.619112 0.811781 0.031020 0.133030
H14   H     H_    0.777438 0.448794 0.704948 0.188156
H15   H     H_    0.587521 0.740840 0.515451 0.195415
H16   H     H_    0.239790 0.845071 0.347706 0.128122
H17   H     H_    0.197386 0.524510 0.336662 0.152365
H18   H     H_    0.815844 0.290044 0.714972 0.144210
H19   H     H_    0.746866 0.144131 0.665718 0.135861
H20   H     H_    0.431020 0.273885 0.460964 0.166094
H21   H     H_    0.868668 0.088708 0.338279 0.181753
H22   H     H_    0.318240 0.387946 0.407457 0.168183
H23   H     H_    0.164941 0.690629 0.313025 0.144024
H24   H     H_    0.837587 0.954252 0.372055 0.174898
H25   H     H_    0.077153 0.833808 0.562298 0.159545
H26   H     H_    0.864076 0.834461 0.555224 0.147114
H27   H     H_    0.164238 0.078253 0.605633 0.181279
H28   H     H_    0.147826 0.161854 0.474370 0.183965
H29   H     H_    0.936905 0.161495 0.473613 0.172170
N1    N     N_R   0.585360 0.204570 0.560800 -0.186874
N2    N     N_R   0.414550 0.795430 0.439160 -0.195395
O1    O     O_R   0.455060 0.022100 0.338110 -0.598330
O2    O     O_R   0.512640 0.160150 0.379180 -0.542020
O3    O     O_R   0.288900 0.930980 0.479450 -0.599133
O4    O     O_R   0.346480 0.069030 0.520520 -0.589478
O5    O     O_R   0.487360 0.839850 0.620820 -0.562940
O6    O     O_R   0.544940 0.977900 0.661890 -0.591047
O7    O     O_R   0.653520 0.930970 0.479480 -0.594548
O8    O     O_R   0.711100 0.069020 0.520550 -0.590634
Cl1   Cl    Cl    0.891493 0.865513 0.703705 -0.611960
Cl2   Cl    Cl    0.370003 0.322171 0.244427 -0.703179
Cl3   Cl    Cl    0.672032 0.611399 0.673963 -0.674137

loop_
_geom_bond_atom_site_label_1
_geom_bond_atom_site_label_2
_ccdc_geom_bond_type
C43   H24   S    
C19   C20   A    
Cu1   N2    S    
C27   N1    A    
C42   H10   S    
C7    C8    A    
C22   H6    S    
C45   C46   S    
C7    C11   A    
C26   N1    A    
C30   C35   A    
C45   H28   S    
C1    C5    S    
C26   H19   S    
C7    H8    S    
C36   C37   A    
C19   C21   A    
C42   C46   S    
C30   C31   A    
C1    O2    A    
C15   C16   A    
C6    C22   A    
C29   C33   A    
Cu2   O2    S    
C18   C19   A    
C34   O7    A    
Cu1   O3    S    
Cu2   N1    S    
C3    H26   S    
C20   C24   A    
C27   H20   S    
C32   Cl3   S    
C31   C32   A    
C35   H22   S    
C33   H14   S    
C9    C10   A    
C21   H13   S    
C2    C34   S    
C43   H21   S    
C13   C14   A    
Cu1   O1    S    
C44   C46   S    
C4    C45   S    
C25   C29   A    
C3    C44   S    
Cu2   O8    S    
C23   O5    A    
Cu1   O7    S    
C14   C20   A    
C38   C41   A    
C12   C46   S    
C9    Cl2   S    
C39   C40   A    
C36   H17   S    
C17   H12   S    
C24   H5    S    
C12   O4    A    
C4    H2    S    
C35   C36   A    
C2    C4    S    
C5    C9    A    
C37   C38   A    
C8    H9    S    
C11   C16   A    
Cu1   Cu2   S    
C2    C43   S    
C6    C24   A    
C17   C18   A    
C40   N2    A    
C12   O3    A    
Cu1   O5    S    
C18   H7    S    
C44   H3    S    
C42   C43   S    
C41   H15   S    
C28   C29   A    
C3    Cl1   S    
C14   C15   A    
C15   H11   S    
C25   H18   S    
C16   H4    S    
C10   C13   A    
C41   N2    A    
C5    C8    A    
Cu2   O4    S    
C40   H16   S    
C31   C38   A    
C13   C17   A    
C45   H27   S    
C32   C33   A    
C28   C30   A    
C2    C3    S    
C25   C26   A    
C4    H29   S    
C37   C39   A    
C6    C23   S    
C34   O8    A    
C44   H25   S    
C10   C11   A    
C42   H1    S    
C23   O6    A    
C27   C28   A    
C1    O1    A    
C39   H23   S    
Cu2   O6    S    
C21   C22   A    
