data_mof_unit_57330.cif
_audit_creation_date              2013-03-05T16:16:38-0500
_audit_creation_method            fapswitch 2.2
_symmetry_space_group_name_H-M    P1
_symmetry_Int_Tables_number       1
_space_group_crystal_system       triclinic
_cell_length_a                    8.387709
_cell_length_b                    19.122932
_cell_length_c                    18.760202
_cell_angle_alpha                 100.880628
_cell_angle_beta                  93.535264
_cell_angle_gamma                 91.663691
_cell_volume                      2946.83186561

loop_
_atom_site_label
_atom_site_type_symbol
_atom_site_description
_atom_site_fract_x
_atom_site_fract_y
_atom_site_fract_z
_atom_type_partial_charge
P1    P     P_3+3 0.943060 0.664750 0.570190 0.480993
O1    O     O_2   0.114910 0.675240 0.550030 -0.397219
O2    O     O_3   0.867890 0.586390 0.543600 -0.319775
O3    O     O_3   0.355250 0.627820 0.418550 -0.371193
O4    O     O_2   0.285401 0.757044 0.471339 -0.410030
O5    O     O_3   0.952154 0.672094 0.665498 -0.643490
O6    O     O_3   0.313583 0.734568 0.331161 -0.478758
H1    H     H_    0.384947 0.638811 0.274016 0.077853
C1    C     C_3   0.346605 0.713318 0.203062 -0.899858
H2    H     H_    0.224182 0.690133 0.186515 0.255008
H3    H     H_    0.347033 0.771836 0.205754 0.284188
P2    P     P_3+3 0.360910 0.439170 0.334000 0.464334
P3    P     P_3+3 0.907820 0.593295 0.288134 0.562756
O7    O     O_2   0.187140 0.460320 0.325000 -0.359104
O8    O     O_3   0.941730 0.590880 0.379870 -0.308775
O9    O     O_2   0.012357 0.535560 0.247372 -0.301151
O10   O     O_3   0.368399 0.345008 0.315944 -0.652561
O11   O     O_3   0.999041 0.672959 0.275053 -0.516320
C2    C     C_3   0.884254 0.724895 0.274235 0.105493
H4    H     H_    0.839644 0.740480 0.329228 0.095757
H5    H     H_    0.783672 0.705074 0.233403 0.064981
C3    C     C_3   0.963161 0.790008 0.252189 0.216162
H6    H     H_    0.070133 0.809155 0.289378 0.148011
H7    H     H_    0.002222 0.774699 0.196078 0.089085
C4    C     C_3   0.729966 0.312390 0.294633 0.721745
H8    H     H_    0.641639 0.343148 0.326254 0.002780
C5    C     C_3   0.668720 0.235289 0.265681 0.182211
H9    H     H_    0.545780 0.237209 0.241675 0.052582
H10   H     H_    0.661470 0.207460 0.312310 0.107528
Ba1   Ba    Ba6+2 0.153030 0.533740 0.468880 1.657989
C6    C     C_3   0.082283 0.715098 0.704146 1.111454
H11   H     H_    0.180782 0.723179 0.669547 0.059340
C7    C     C_3   0.028330 0.789692 0.736848 -1.184087
H12   H     H_    0.024635 0.823817 0.695518 0.224658
H13   H     H_    0.114735 0.815395 0.782052 0.274147
H14   H     H_    0.907871 0.787096 0.757700 0.255941
C8    C     C_3   0.227679 0.307581 0.283105 0.949185
H15   H     H_    0.122096 0.336569 0.300637 0.110464
C9    C     C_3   0.225947 0.294224 0.200110 -0.903051
H16   H     H_    0.214687 0.344992 0.180080 0.228853
H17   H     H_    0.125050 0.256981 0.175938 0.303869
H18   H     H_    0.333918 0.267494 0.180027 0.222636
P4    P     P_3+3 0.867240 0.335250 0.429760 0.507767
O12   O     O_2   0.695400 0.324710 0.449950 -0.388419
O13   O     O_3   0.942410 0.413600 0.456340 -0.364801
O14   O     O_3   0.455050 0.372170 0.581390 -0.349423
O15   O     O_3   0.875572 0.313701 0.334945 -0.575758
P5    P     P_3+3 0.892086 0.419436 0.715919 0.454967
O16   O     O_3   0.370790 0.538810 0.587440 -0.427276
O17   O     O_3   0.868570 0.409120 0.620070 -0.389528
O18   O     O_2   0.757288 0.465493 0.749100 -0.387063
O19   O     O_3   0.853418 0.339695 0.745462 -0.569391
Ba2   Ba    Ba6+2 0.657140 0.466250 0.531070 1.631882
P6    P     P_3+3 0.392616 0.717690 0.414284 0.475818
C10   C     C_3   0.402609 0.697011 0.276627 0.469004
H19   H     H_    0.531559 0.713121 0.286974 0.024322
H20   H     H_    0.427928 0.689523 0.161381 0.214395
O20   O     O_3   0.439510 0.461180 0.412500 -0.376722
C11   C     C_3   0.588843 0.686134 0.743693 0.362239
H21   H     H_    0.641808 0.647057 0.774505 0.083294
H22   H     H_    0.681643 0.704492 0.711215 0.096934
C12   C     C_3   0.540810 0.749629 0.798567 -0.965437
H23   H     H_    0.465151 0.731033 0.838351 0.276819
H24   H     H_    0.649373 0.778258 0.828451 0.219124
H25   H     H_    0.472345 0.786857 0.770760 0.264732
P7    P     P_3+3 0.446370 0.566251 0.678017 0.438286
O21   O     O_2   0.623160 0.539640 0.674980 -0.377450
O22   O     O_3   0.455801 0.659531 0.695706 -0.560225
C13   C     C_3   0.875490 0.281209 0.690162 0.229489
H26   H     H_    0.788687 0.281029 0.642858 0.111355
H27   H     H_    0.999354 0.282975 0.672889 0.033980
C14   C     C_3   0.846649 0.213473 0.720764 0.876095
H28   H     H_    0.732889 0.221289 0.749127 0.025645
P8    P     P_3+3 0.410654 0.286180 0.593129 0.470413
C15   C     C_3   0.410531 0.331582 0.730599 0.216189
H29   H     H_    0.277569 0.326408 0.725869 0.065405
O23   O     O_2   0.522503 0.241110 0.542611 -0.401324
O24   O     O_3   0.476594 0.277457 0.681059 -0.528822
H30   H     H_    0.449418 0.384777 0.720700 0.068159
H31   H     H_    0.437866 0.375486 0.846125 0.038401
C16   C     C_3   0.471423 0.327462 0.807946 0.218285
H32   H     H_    0.603548 0.326352 0.811859 0.122123
C17   C     C_R   0.952310 0.200296 0.464191 -0.282360
H33   H     H_    0.870463 0.177552 0.418447 0.144087
C18   C     C_R   0.986041 0.274589 0.476533 0.338948
C19   C     C_R   0.133569 0.192433 0.566797 -0.288621
H34   H     H_    0.177271 0.168387 0.611508 0.186029
C20   C     C_R   0.201578 0.259169 0.561842 0.222916
C21   C     C_R   0.670348 0.814033 0.438524 -0.334427
H35   H     H_    0.622648 0.838403 0.394780 0.217124
C22   C     C_R   0.605066 0.747065 0.442843 0.042322
C23   C     C_R   0.858337 0.805341 0.539728 -0.437117
H36   H     H_    0.943697 0.828202 0.583605 0.147405
C24   C     C_R   0.824601 0.730829 0.527487 0.161160
C25   C     C_R   0.015443 0.157387 0.513250 0.097208
C26   C     C_R   0.117980 0.302532 0.522397 -0.320941
H37   H     H_    0.161162 0.356732 0.524127 0.151553
C27   C     C_R   0.791323 0.848540 0.491151 0.136491
C28   C     C_R   0.694428 0.704095 0.480222 0.312366
C29   C     C_R   0.227687 0.040938 0.548391 -0.086963
C30   C     C_R   0.324082 0.991289 0.572838 -0.137556
C31   C     C_R   0.276060 0.920242 0.556738 -0.110598
C32   C     C_R   0.127534 0.900577 0.521014 -0.082528
C33   C     C_R   0.010867 0.950932 0.514532 0.056851
C34   C     C_R   0.064501 0.024634 0.524539 0.107490
C35   C     C_R   0.847620 0.927751 0.495103 0.024474
C36   C     C_R   0.741245 0.981250 0.479577 0.035042
C37   C     C_R   0.795585 0.054441 0.486458 0.083618
C38   C     C_R   0.958459 0.078165 0.508410 0.002014
C39   C     C_R   0.577467 0.964600 0.458252 -0.255999
C40   C     C_R   0.478880 0.010961 0.429219 0.685925
C41   C     C_R   0.528825 0.082830 0.442215 -0.324065
C42   C     C_R   0.678788 0.103739 0.476077 -0.213512
H38   H     H_    0.290362 0.089194 0.543712 0.118083
H39   H     H_    0.444636 0.006477 0.595179 0.104172
H40   H     H_    0.358677 0.880176 0.566807 0.133329
H41   H     H_    0.104717 0.845486 0.498080 0.187103
H42   H     H_    0.517494 0.917129 0.466857 0.153816
H43   H     H_    0.449518 0.123698 0.431465 0.206663
H44   H     H_    0.700343 0.159312 0.495605 0.211118
N1    N     N_R   0.477035 0.541320 0.963495 -0.079672
N2    N     N_R   0.529882 0.545884 0.032673 -0.080819
C43   C     C_2   0.605474 0.526095 0.303838 -0.161744
C44   C     C_3   0.686340 0.577335 0.263029 0.030904
C45   C     C_2   0.641448 0.560327 0.182424 -0.174929
C46   C     C_2   0.503073 0.523094 0.157006 0.094900
C47   C     C_2   0.408948 0.491068 0.209328 -0.244935
C48   C     C_1   0.469875 0.490569 0.276492 0.205521
N3    N     N_R   0.302100 0.481579 0.053093 -0.046738
N4    N     N_R   0.249024 0.477018 0.983621 -0.046942
C49   C     C_R   0.335373 0.507002 0.937316 0.166175
C50   C     C_R   0.443924 0.516171 0.079130 0.168658
C51   C     C_R   0.376226 0.531293 0.812589 -0.291702
C52   C     C_R   0.328094 0.525158 0.738912 0.327258
C53   C     C_R   0.084185 0.462124 0.756161 0.234964
C54   C     C_R   0.131511 0.467520 0.830384 -0.256852
C55   C     C_R   0.279362 0.501939 0.859362 0.000069
C56   C     C_R   0.183520 0.490132 0.710965 -0.439388
H45   H     H_    0.712358 0.585224 0.146861 0.129069
H46   H     H_    0.290722 0.467385 0.191571 0.165297
H47   H     H_    0.489137 0.558834 0.832991 0.144033
H48   H     H_    0.053847 0.444891 0.864889 0.183150
H49   H     H_    0.653020 0.523812 0.358395 0.169896
H50   H     H_    0.145915 0.486203 0.654052 0.173290
O25   O     O_3   0.773758 0.198518 0.216380 -0.537595
C57   C     C_3   0.690842 0.166843 0.150019 0.038061
H51   H     H_    0.622916 0.206569 0.125314 0.146318
H52   H     H_    0.609672 0.122193 0.157625 0.113332
H53   H     H_    0.779109 0.144802 0.111386 0.151466
O26   O     O_3   0.151752 0.681949 0.759665 -0.628452
C58   C     C_3   0.035888 0.657253 0.801848 -0.173432
H54   H     H_    0.961914 0.611700 0.769489 0.163175
H55   H     H_    0.958741 0.700290 0.826346 0.127171
H56   H     H_    0.098925 0.637573 0.847426 0.157934
S1    S     S_3+6 0.219721 0.222634 0.311627 -0.073098
O27   O     O_2   0.314961 0.169217 0.264275 -0.362904
O28   O     O_2   0.286767 0.231826 0.389081 -0.340041
O29   O     O_3   0.030218 0.190703 0.305205 -0.503068
H57   H     H_    0.035732 0.142747 0.317574 0.352490
S2    S     S_3+6 0.830772 0.861763 0.254036 -0.066776
O30   O     O_2   0.661258 0.833867 0.234643 -0.310772
O31   O     O_2   0.843143 0.907402 0.328752 -0.328380
O32   O     O_3   0.885468 0.911184 0.193677 -0.513554
H58   H     H_    0.821264 0.954211 0.203348 0.376595
O33   O     O_3   0.839932 0.153481 0.663099 -0.661611
C59   C     C_3   0.694414 0.113665 0.660169 -0.318824
H59   H     H_    0.595370 0.141048 0.636227 0.210252
H60   H     H_    0.664694 0.103380 0.714355 0.144374
H61   H     H_    0.706191 0.060874 0.625187 0.175305
O34   O     O_3   0.976075 0.208098 0.771242 -0.576359
C60   C     C_3   0.939661 0.155985 0.812521 -0.040601
H62   H     H_    0.927487 0.101953 0.777753 0.120687
H63   H     H_    0.830338 0.168457 0.842431 0.123410
H64   H     H_    0.040042 0.155242 0.853663 0.188523
S3    S     S_3+6 0.390356 0.250637 0.836674 -0.011475
O35   O     O_2   0.513348 0.225132 0.886454 -0.303668
O36   O     O_2   0.244565 0.270982 0.877220 -0.241117
O37   O     O_3   0.340671 0.185217 0.764521 -0.513926
H65   H     H_    0.332362 0.141094 0.784838 0.356063
O38   O     O_3   0.650569 0.634204 0.471016 -0.674562
C61   C     C_3   0.556529 0.626068 0.528059 0.113464
H66   H     H_    0.466526 0.667387 0.541819 0.093766
H67   H     H_    0.625965 0.624024 0.579242 0.121514
H68   H     H_    0.495136 0.575304 0.505334 0.244160
O39   O     O_3   0.327435 0.984252 0.399878 -0.629587
C62   C     C_3   0.253983 0.026461 0.354277 -0.102797
H69   H     H_    0.336925 0.041053 0.314891 0.172501
H70   H     H_    0.205012 0.074377 0.387320 0.135262
H71   H     H_    0.151483 0.995025 0.322277 0.203115
S4    S     S_3+6 0.766474 0.356458 0.220505 -0.020943
O40   O     O_2   0.837314 0.428469 0.253943 -0.278882
O41   O     O_2   0.884106 0.317663 0.172368 -0.250691
O42   O     O_3   0.601888 0.364858 0.168197 -0.527683
H72   H     H_    0.513457 0.354300 0.196832 0.301661

loop_
_geom_bond_atom_site_label_1
_geom_bond_atom_site_label_2
_geom_bond_distance
_ccdc_geom_bond_type
C53   C56   1.390203 A    
P7    O22   1.750247 S    
C10   H19   1.111138 S    
C20   C26   1.388643 A    
C51   C55   1.411591 A    
S4    O40   1.491055 D    
S1    O28   1.501864 D    
C14   O33   1.417672 S    
C8    S1    1.804377 S    
P5    C53   1.836704 S    
C2    H4    1.109609 S    
O6    C10   1.402854 S    
C60   H62   1.111151 S    
C39   H42   1.068633 S    
C33   C35   1.430540 A    
C16   H32   1.107216 S    
O39   C62   1.409782 S    
C23   C27   1.441133 A    
C53   C54   1.407935 A    
S3    O36   1.501979 D    
C61   H66   1.114678 S    
C45   H45   1.085355 S    
C60   H63   1.112743 S    
C29   C34   1.420548 A    
O33   C59   1.412263 S    
C45   C46   1.355369 D    
P3    O11   1.750158 S    
C16   S3    1.788071 S    
C23   H36   1.074525 S    
C2    H5    1.110989 S    
N1    C49   1.358237 A    
O11   C2    1.404654 S    
P5    O19   1.746480 S    
C4    S4    1.793838 S    
H31   C16   1.107775 S    
C18   C26   1.387530 A    
C19   C20   1.404182 A    
C5    H10   1.110216 S    
C35   C36   1.435639 A    
C42   H44   1.062994 S    
C7    H14   1.108834 S    
C37   C38   1.437297 A    
P1    O1    1.529732 D    
C58   H56   1.108864 S    
C13   H27   1.108670 S    
C39   C40   1.391323 A    
C41   C42   1.386357 A    
C12   H24   1.111497 S    
O19   C13   1.399669 S    
Ba1   O13   2.821967 S    
S4    O42   1.673284 S    
P7    C52   1.827620 S    
O12   Ba2   2.881071 S    
P4    Ba2   3.444604 S    
P5    O18   1.542462 D    
O32   H58   0.990639 S    
P1    C24   1.892798 S    
P8    O23   1.539277 D    
P2    O10   1.771996 S    
C54   H48   1.082604 S    
C58   H54   1.111242 S    
C6    C7    1.535358 S    
C1    C10   1.521059 S    
C21   C22   1.396524 A    
P4    O15   1.754677 S    
C1    H2    1.108897 S    
C4    O15   1.393310 S    
C12   H25   1.111632 S    
N3    C50   1.360854 A    
P2    Ba1   3.422459 S    
P5    O17   1.769521 S    
P7    O21   1.582521 D    
O13   Ba2   2.953838 S    
C11   H21   1.113818 S    
S1    O29   1.675146 S    
C59   H60   1.112676 S    
C32   H41   1.067067 S    
O7    Ba1   2.833147 S    
H1    C10   1.109942 S    
N2    C50   1.357562 A    
C33   C34   1.441155 A    
Ba1   Ba2   4.602447 S    
O25   C57   1.408745 S    
C9    H18   1.104372 S    
C57   H52   1.112275 S    
C61   H67   1.099649 S    
C60   H64   1.108852 S    
C40   O39   1.395496 S    
O17   Ba2   2.749959 S    
C11   H22   1.106220 S    
O16   P7    1.753819 S    
P1    O5    1.763584 S    
P4    C18   1.857990 S    
C30   C31   1.377547 A    
O37   H65   0.991627 S    
O4    P6    1.540991 D    
C43   C44   1.521501 S    
C2    C3    1.529645 S    
C29   H38   1.069441 S    
C9    H17   1.106711 S    
C25   C38   1.559649 S    
C9    H16   1.109662 S    
P3    C44   1.889696 S    
S3    O37   1.682816 S    
C15   C16   1.525352 S    
C4    H8    1.092931 S    
P1    O2    1.586174 S    
C14   O34   1.415028 S    
C37   C42   1.409181 A    
O2    Ba1   2.952825 S    
C15   H29   1.113331 S    
S2    O32   1.681889 S    
C8    H15   1.093317 S    
C49   C55   1.492628 S    
C11   O22   1.408814 S    
C57   H53   1.104543 S    
C1    H3    1.110500 S    
C17   H33   1.079817 S    
C46   C50   1.493932 S    
C5    O25   1.420220 S    
C17   C25   1.432123 A    
C26   H37   1.081914 S    
C12   H23   1.109829 S    
C23   C24   1.417091 A    
C7    H12   1.103275 S    
O10   C8    1.407041 S    
P4    O13   1.585987 S    
N1    N2    1.331319 A    
C17   C18   1.412948 A    
Ba1   O16   2.774874 S    
P2    O7    1.531714 D    
P3    O8    1.736445 S    
P4    O12   1.529981 D    
P8    O24   1.746867 S    
C59   H59   1.110916 S    
C30   H39   1.080371 S    
C36   C39   1.416787 A    
C3    H7    1.110362 S    
C47   H46   1.084288 S    
C36   C37   1.439047 A    
C62   H70   1.109685 S    
C47   C48   1.332029 D    
C21   H35   1.079565 S    
O14   P8    1.732743 S    
C13   C14   1.531534 S    
O38   C61   1.396934 S    
O8    Ba1   2.749504 S    
C57   H51   1.114455 S    
C61   H68   1.084879 S    
C6    O26   1.421976 S    
C34   C38   1.437772 A    
C11   C12   1.517904 S    
S4    O41   1.496290 D    
C40   C41   1.396876 A    
O3    P6    1.755521 S    
C19   H34   1.080230 S    
C6    H11   1.106502 S    
C3    H6    1.110478 S    
C14   H28   1.121074 S    
C52   C56   1.391359 A    
C41   H43   1.080311 S    
Ba2   O20   2.774352 S    
P2    C48   1.853412 S    
C4    C5    1.533632 S    
C51   H47   1.082144 S    
C27   C35   1.560352 S    
C21   C27   1.425278 A    
O1    Ba1   2.880422 S    
C22   C28   1.384639 A    
S2    O30   1.502478 D    
C62   H71   1.109519 S    
N4    C49   1.359966 A    
N3    N4    1.337040 A    
P2    O20   1.552649 S    
P6    C22   1.867765 S    
C8    C9    1.528585 S    
S3    O35   1.502206 D    
C56   H50   1.082542 S    
O2    Ba2   2.822638 S    
C43   C48   1.330386 D    
C51   C52   1.398007 A    
C3    S2    1.786727 S    
C24   C28   1.384492 A    
C46   C47   1.502096 S    
O16   Ba2   2.960605 S    
Ba1   O20   2.961589 S    
O14   Ba2   2.768139 S    
P1    Ba1   3.444105 S    
C7    H13   1.110023 S    
O5    C6    1.420731 S    
C1    H20   1.110520 S    
O29   H57   0.989162 S    
C58   H55   1.109991 S    
C31   C32   1.384648 A    
Ba2   O21   2.833259 S    
C15   O24   1.405609 S    
C13   H26   1.112061 S    
C31   H40   1.082692 S    
C19   C25   1.422845 A    
C28   O38   1.352017 S    
C59   H61   1.106012 S    
O42   H72   0.980252 S    
O34   C60   1.410305 S    
P3    O9    1.546833 D    
C43   H49   1.084449 S    
C32   C33   1.408504 A    
O26   C58   1.415287 S    
C54   C55   1.414582 A    
C29   C30   1.388802 A    
O6    P6    1.746530 S    
P8    C20   1.841929 S    
C62   H69   1.112559 S    
S1    O27   1.504341 D    
C15   H30   1.111407 S    
O3    Ba1   2.768903 S    
S2    O31   1.500725 D    
C44   C45   1.507049 S    
C5    H9    1.103936 S    
