data_mof_unit_48156.cif
_audit_creation_date              2012-10-26T20:21:15-0400
_audit_creation_method            fapswitch 2.2
_symmetry_space_group_name_H-M    P1
_symmetry_Int_Tables_number       1
_space_group_crystal_system       triclinic
_cell_length_a                    9.542322
_cell_length_b                    10.741638
_cell_length_c                    15.556999
_cell_angle_alpha                 89.106364
_cell_angle_beta                  73.607991
_cell_angle_gamma                 91.15508
_cell_volume                      1529.09255541

loop_
_atom_site_label
_atom_site_type_symbol
_atom_type_description
_atom_site_fract_x
_atom_site_fract_y
_atom_site_fract_z
_atom_type_partial_charge
C1    C     C_R   0.999180 0.262465 0.499082 0.574329
C2    C     C_R   0.033336 0.065555 0.568720 -0.168545
C3    C     C_R   0.003575 0.871352 0.500192 0.024821
C4    C     C_R   0.997021 0.128682 0.499067 0.027685
C5    C     C_R   0.551489 0.405394 0.542821 0.246859
C6    C     C_R   0.449414 0.591654 0.454967 0.235876
C7    C     C_R   0.401885 0.408282 0.543778 0.003355
C8    C     C_R   0.597327 0.592113 0.456604 -0.011684
C9    C     C_R   0.916815 0.500283 0.672513 0.558335
C10   C     C_R   0.082735 0.499951 0.327969 0.546169
C11   C     C_R   0.870386 0.503528 0.771645 -0.009477
C12   C     C_R   0.001053 0.737555 0.500484 0.581605
C13   C     C_R   0.130716 0.522421 0.230880 -0.016053
C14   C     C_R   0.934166 0.479808 0.912048 0.131312
C15   C     C_R   0.111747 0.655792 0.107430 0.144904
C16   C     C_R   0.975145 0.488387 0.818425 -0.163003
C17   C     C_R   0.051323 0.604305 0.193111 -0.154023
C18   C     C_R   0.722553 0.519854 0.820060 0.112336
C19   C     C_R   0.268227 0.482589 0.179601 0.107645
C20   C     C_R   0.685315 0.533421 0.914186 0.018468
C21   C     C_R   0.340037 0.548316 0.099073 0.019923
C22   C     C_R   0.787504 0.498934 0.960473 0.050638
C23   C     C_R   0.592203 0.493190 0.099657 -0.142307
C24   C     C_R   0.257357 0.629696 0.060391 0.048594
C25   C     C_R   0.545742 0.572640 0.964333 0.028199
C26   C     C_R   0.491235 0.534588 0.054991 0.030490
C27   C     C_3   0.318311 0.265866 0.146252 -0.318933
C28   C     C_3   0.506036 0.403007 0.804100 -0.312633
C29   C     C_3   0.056835 0.323123 0.974051 -0.327449
C30   C     C_3   0.045393 0.868193 0.091825 -0.333264
C31   C     C_3   0.785406 0.136720 0.358712 -0.289471
C32   C     C_3   0.217359 0.866301 0.640226 -0.291459
C33   C     C_3   0.519887 0.187825 0.605275 -0.366898
C34   C     C_R   0.463034 0.654042 0.927731 -0.154289
C35   C     C_3   0.456046 0.682341 0.311211 -0.297940
C36   C     C_R   0.739649 0.483064 0.053956 -0.146531
C37   C     C_R   0.322024 0.683590 0.975479 -0.148816
C38   C     C_R   0.964120 0.063871 0.429189 0.114727
C39   C     C_R   0.037222 0.936207 0.569798 0.110423
C40   C     C_R   0.967673 0.934472 0.430371 -0.166173
Cu1   Cu    Cu3+1 0.140660 0.500020 0.500000 0.952734
Cu2   Cu    Cu3+1 0.859340 0.499980 0.500000 0.947749
H1    H     H_    0.561270 0.475757 0.171020 0.143603
H2    H     H_    0.202311 0.239107 0.153638 0.133866
H3    H     H_    0.579564 0.583167 0.747193 0.253259
H4    H     H_    0.439644 0.394341 0.756218 0.134231
H5    H     H_    0.430097 0.418850 0.871157 0.148751
H6    H     H_    0.563367 0.314395 0.805714 0.144906
H7    H     H_    0.944457 0.633649 0.231967 0.116160
H8    H     H_    0.088701 0.475506 0.782214 0.125889
H9    H     H_    0.141842 0.496604 0.926096 0.256598
H10   H     H_    0.137102 0.312014 0.012994 0.137272
H11   H     H_    0.096617 0.273487 0.909878 0.128293
H12   H     H_    0.509347 0.700411 0.863636 0.114264
H13   H     H_    0.950697 0.280680 0.013663 0.151362
H14   H     H_    0.919067 0.712017 0.085594 0.256392
H15   H     H_    0.983340 0.927395 0.057055 0.137180
H16   H     H_    0.162330 0.898315 0.068709 0.148375
H17   H     H_    0.003028 0.881915 0.165242 0.128847
H18   H     H_    0.999090 0.095956 0.294078 0.233653
H19   H     H_    0.737324 0.042382 0.355454 0.114629
H20   H     H_    0.774686 0.194176 0.301052 0.136988
H21   H     H_    0.723940 0.181622 0.421303 0.202981
H22   H     H_    0.002273 0.902594 0.704691 0.240550
H23   H     H_    0.943624 0.883126 0.376511 0.102120
H24   H     H_    0.262710 0.961388 0.644588 0.115441
H25   H     H_    0.280531 0.823317 0.577254 0.173480
H26   H     H_    0.229255 0.808439 0.697411 0.137343
H27   H     H_    0.654687 0.328873 0.632587 0.296599
H28   H     H_    0.486373 0.157099 0.545958 0.141216
H29   H     H_    0.422306 0.197583 0.663700 0.115068
H30   H     H_    0.589492 0.114994 0.621994 0.148830
H31   H     H_    0.421320 0.775664 0.429464 0.212911
H32   H     H_    0.399909 0.751781 0.279889 0.139801
H33   H     H_    0.433531 0.588702 0.288896 0.180952
H34   H     H_    0.057642 0.116880 0.622500 0.104116
H35   H     H_    0.575643 0.702784 0.288442 0.096191
H36   H     H_    0.324518 0.337519 0.579636 0.119805
H37   H     H_    0.671866 0.665691 0.421790 0.111427
H38   H     H_    0.814416 0.457795 0.091932 0.148472
H39   H     H_    0.262959 0.746834 0.944384 0.147071
H40   H     H_    0.292338 0.342279 0.269927 0.275114
H41   H     H_    0.373497 0.184669 0.165943 0.135755
H42   H     H_    0.374058 0.290064 0.074949 0.156974
N1    N     N_R   0.352080 0.500030 0.499980 -0.227653
N2    N     N_2   0.401989 0.688552 0.407647 -0.461030
N3    N     N_R   0.647920 0.499970 0.500020 -0.234509
N4    N     N_2   0.326049 0.369310 0.203406 -0.532609
N5    N     N_2   0.611382 0.505222 0.775477 -0.502527
N6    N     N_2   0.041929 0.454114 0.956725 -0.509602
N7    N     N_2   0.027786 0.738951 0.071148 -0.515044
N8    N     N_2   0.938084 0.128582 0.354901 -0.507997
N9    N     N_2   0.064559 0.871522 0.643706 -0.503693
N10   N     N_2   0.602535 0.304533 0.585749 -0.491860
O1    O     O_R   0.118740 0.319660 0.500000 -0.527163
O2    O     O_R   0.881260 0.680340 0.500000 -0.524316
O3    O     O_R   0.881170 0.319630 0.500010 -0.466336
O4    O     O_R   0.118830 0.680370 0.499990 -0.450782
O5    O     O_R   0.055570 0.500030 0.629830 -0.512598
O6    O     O_R   0.944430 0.499970 0.370170 -0.502000
O7    O     O_R   0.818000 0.500000 0.629840 -0.485672
O8    O     O_R   0.182000 0.500000 0.370160 -0.489575

loop_
_geom_bond_atom_site_label_1
_geom_bond_atom_site_label_2
_ccdc_geom_bond_type
C21   C26   A    
C11   C18   A    
C34   C37   A    
Cu1   Cu2   S    
C31   H19   S    
C33   N10   S    
C5    N10   S    
C35   H32   S    
C7    N1    A    
C35   H33   S    
C6    N1    A    
Cu2   O2    S    
C27   H42   S    
C19   C21   A    
C16   H8    S    
H22   N9    S    
H9    N6    S    
C35   N2    S    
C20   C25   A    
C23   C36   A    
C30   H15   S    
C38   N8    S    
C23   H1    S    
Cu1   O8    S    
C23   C26   A    
C39   N9    S    
C3    C12   S    
C33   H30   S    
C27   H2    S    
H14   N7    S    
C14   N6    S    
C8    H37   S    
Cu1   O5    S    
C28   N5    S    
H3    N5    S    
C12   O4    A    
C25   C34   A    
C32   H26   S    
C32   N9    S    
C3    C39   A    
C9    O5    A    
C31   H20   S    
C37   H39   S    
C2    C39   A    
C29   N6    S    
H18   N8    S    
C13   C19   A    
C31   H21   S    
C10   O8    A    
C19   N4    S    
C36   H38   S    
Cu2   O3    S    
C17   H7    S    
C5    C7    A    
C6    C8    A    
C29   H13   S    
C25   C26   A    
C35   H35   S    
C2    C4    A    
Cu2   O6    S    
C11   C16   A    
C22   C36   A    
C1    O1    A    
C28   H4    S    
C30   H17   S    
C24   C37   A    
C10   O6    A    
C9    C11   S    
C33   H28   S    
C32   H25   S    
C28   H5    S    
C15   C24   A    
C20   C22   A    
C3    C40   A    
C34   H12   S    
C40   H23   S    
C7    H36   S    
C14   C16   A    
C1    O3    A    
Cu2   O7    S    
C2    H34   S    
C32   H24   S    
C15   C17   A    
C28   H6    S    
C18   N5    S    
C4    C38   A    
C30   N7    S    
C10   C13   S    
Cu1   N1    S    
C6    N2    S    
C13   C17   A    
C1    C4    S    
C8    N3    A    
C27   H41   S    
C38   C40   A    
C14   C22   A    
Cu1   O1    S    
C29   H11   S    
H40   N4    S    
C30   H16   S    
C18   C20   A    
C27   N4    S    
H31   N2    S    
C33   H29   S    
C15   N7    S    
C5    N3    A    
C9    O7    A    
C31   N8    S    
C21   C24   A    
Cu1   O4    S    
C12   O2    A    
Cu2   N3    S    
H27   N10   S    
C29   H10   S    
