data_mof_unit_26950.cif
_audit_creation_date              2012-12-10T19:11:28-0500
_audit_creation_method            fapswitch 2.2
_symmetry_space_group_name_H-M    P1
_symmetry_Int_Tables_number       1
_space_group_crystal_system       triclinic
_cell_length_a                    10.703739
_cell_length_b                    9.93081
_cell_length_c                    10.472552
_cell_angle_alpha                 88.959445
_cell_angle_beta                  89.891295
_cell_angle_gamma                 89.842551
_cell_volume                      1113.00906943

loop_
_atom_site_label
_atom_site_type_symbol
_atom_type_description
_atom_site_fract_x
_atom_site_fract_y
_atom_site_fract_z
_atom_type_partial_charge
C1    C     C_R   0.258953 0.500200 0.504498 0.882667
C2    C     C_3   0.503560 0.502340 0.122802 -0.008594
C3    C     C_3   0.071368 0.639545 0.552523 0.026179
C4    C     C_3   0.072758 0.380834 0.591623 0.026146
C5    C     C_3   0.929592 0.634163 0.557168 -0.372006
C6    C     C_3   0.930027 0.387294 0.596563 -0.379685
C7    C     C_3   0.075907 0.479959 0.369824 -0.506910
C8    C     C_3   0.123308 0.500715 0.508142 0.051302
C9    C     C_3   0.880414 0.499879 0.505013 0.042808
C10   C     C_3   0.932165 0.481626 0.368027 -0.381069
C11   C     C_3   0.371872 0.081281 0.476654 -0.398670
C12   C     C_3   0.370441 0.919980 0.487326 -0.395994
C13   C     C_3   0.578446 0.080660 0.391982 0.101287
C14   C     C_3   0.564294 0.922995 0.382674 0.133913
C15   C     C_3   0.540099 0.077737 0.622808 0.122266
C16   C     C_3   0.547748 0.918727 0.619364 0.109376
C17   C     C_R   0.501804 0.500990 0.257987 0.879296
C18   C     C_R   0.742529 0.499856 0.502359 0.886870
C19   C     C_R   0.500246 0.498931 0.742119 0.917651
C20   C     C_3   0.514265 0.628003 0.037361 -0.129765
C21   C     C_3   0.395207 0.447574 0.045108 -0.169248
C22   C     C_3   0.405815 0.573169 0.957148 -0.151140
C23   C     C_3   0.501620 0.497094 0.877671 0.011095
C24   C     C_3   0.610299 0.551707 0.955445 -0.153271
C25   C     C_3   0.491139 0.371242 0.963262 -0.103758
C26   C     C_3   0.599780 0.426013 0.043821 -0.160220
H1    H     H_    0.326857 0.633893 0.919856 0.192480
H2    H     H_    0.899302 0.565448 0.304675 0.204037
H3    H     H_    0.897691 0.387168 0.326322 0.212505
H4    H     H_    0.335941 0.114123 0.381383 0.179139
H5    H     H_    0.320596 0.878075 0.403831 0.188005
H6    H     H_    0.305131 0.122867 0.547386 0.208745
H7    H     H_    0.313572 0.888774 0.571369 0.210740
H8    H     H_    0.545426 0.125684 0.299947 0.120430
H9    H     H_    0.502356 0.908115 0.298466 0.093526
H10   H     H_    0.466157 0.101735 0.694127 0.109399
H11   H     H_    0.486343 0.880912 0.698153 0.123173
H12   H     H_    0.522972 0.732993 0.070718 0.173306
H13   H     H_    0.307532 0.405750 0.086297 0.158137
H14   H     H_    0.698100 0.593267 0.914415 0.173567
H15   H     H_    0.480743 0.266530 0.929609 0.171715
H16   H     H_    0.678828 0.366530 0.084206 0.168212
H17   H     H_    0.098219 0.718013 0.480172 0.154912
H18   H     H_    0.098738 0.285230 0.544022 0.159930
H19   H     H_    0.899214 0.640746 0.657944 0.222409
H20   H     H_    0.897536 0.406178 0.695596 0.207446
H21   H     H_    0.892799 0.721755 0.501579 0.233867
H22   H     H_    0.894457 0.287882 0.570080 0.236366
H23   H     H_    0.112083 0.560795 0.304654 0.187227
H24   H     H_    0.110382 0.382410 0.332236 0.195785
N1    N     N_3   0.499750 0.138610 0.497240 -0.101008
N2    N     N_3   0.499750 0.861390 0.497240 -0.097018
O1    O     O_R   0.314910 0.616040 0.499970 -0.622522
O2    O     O_R   0.314910 0.383960 0.499970 -0.631226
O3    O     O_R   0.500080 0.616020 0.313900 -0.610797
O4    O     O_R   0.500080 0.383980 0.313900 -0.627751
O5    O     O_R   0.685320 0.616040 0.499930 -0.578705
O6    O     O_R   0.685320 0.383960 0.499930 -0.578201
O7    O     O_R   0.500150 0.616060 0.686000 -0.608509
O8    O     O_R   0.500150 0.383940 0.686000 -0.601854
Zn1   Zn    Zn3+2 0.500150 0.654960 0.499940 0.974747
Zn2   Zn    Zn3+2 0.500150 0.345040 0.499940 0.968284
I1    I     I_    0.692265 0.174449 0.724009 -0.310184
I2    I     I_    0.718228 0.835501 0.690625 -0.299747
I3    I     I_    0.772837 0.136149 0.385288 -0.332899
I4    I     I_    0.717600 0.815417 0.293084 -0.343559
I5    I     I_    0.140526 0.719271 0.729483 -0.384148
I6    I     I_    0.151413 0.352131 0.779920 -0.380490

loop_
_geom_bond_atom_site_label_1
_geom_bond_atom_site_label_2
_ccdc_geom_bond_type
O6    Zn2   S    
C7    C10   S    
C19   C23   S    
C23   C24   S    
C5    C9    S    
C15   N1    S    
C19   O8    A    
C1    C8    S    
C16   I2    S    
C9    C10   S    
C17   O3    A    
C18   O5    A    
C21   H13   S    
C16   H11   S    
C4    C8    S    
C19   O7    A    
C10   H2    S    
C2    C21   S    
C4    I6    S    
C14   I4    S    
C13   H8    S    
C2    C26   S    
C13   I3    S    
C21   C22   S    
C11   H4    S    
C2    C17   S    
O5    Zn1   S    
C12   H7    S    
C5    H21   S    
C17   O4    A    
C3    H17   S    
C21   C25   S    
N1    Zn2   S    
C6    H22   S    
C6    C9    S    
C1    O2    A    
O3    Zn1   S    
O8    Zn2   S    
O2    Zn2   S    
C24   H14   S    
C24   C26   S    
C11   H6    S    
N2    Zn1   S    
C23   C25   S    
C12   H5    S    
C6    H20   S    
C22   H1    S    
C20   C24   S    
O4    Zn2   S    
O7    Zn1   S    
C11   N1    S    
C2    C20   S    
C15   C16   S    
C10   H3    S    
C9    C18   S    
C7    C8    S    
C20   H12   S    
C13   N1    S    
C7    H23   S    
O1    Zn1   S    
C4    C6    S    
C3    C8    S    
C25   H15   S    
C7    H24   S    
C26   H16   S    
C15   I1    S    
C22   C23   S    
C15   H10   S    
C1    O1    A    
C4    H18   S    
C12   N2    S    
C25   C26   S    
C13   C14   S    
C5    H19   S    
C3    I5    S    
C14   H9    S    
C14   N2    S    
C16   N2    S    
C11   C12   S    
C20   C22   S    
C18   O6    A    
C3    C5    S    
