data_mof_unit_9835.cif
_audit_creation_date              2012-12-10T22:11:12-0500
_audit_creation_method            fapswitch 2.2
_symmetry_space_group_name_H-M    P1
_symmetry_Int_Tables_number       1
_space_group_crystal_system       triclinic
_cell_length_a                    12.097832
_cell_length_b                    12.338982
_cell_length_c                    23.02603
_cell_angle_alpha                 90.787203
_cell_angle_beta                  90.412044
_cell_angle_gamma                 91.017855
_cell_volume                      3436.24727896

loop_
_atom_site_label
_atom_site_type_symbol
_atom_type_description
_atom_site_fract_x
_atom_site_fract_y
_atom_site_fract_z
_atom_type_partial_charge
C1    C     C_R   0.657057 0.998383 0.579223 0.872112
C2    C     C_R   0.342931 0.001617 0.420782 0.872139
C3    C     C_R   0.890809 0.782707 0.143706 0.275144
C4    C     C_R   0.109107 0.217723 0.856063 0.275012
C5    C     C_R   0.089138 0.896127 0.170983 0.288750
C6    C     C_R   0.910978 0.103710 0.829121 0.288952
C7    C     C_R   0.086513 0.817976 0.126145 0.269071
C8    C     C_R   0.913637 0.181860 0.873961 0.268866
C9    C     C_R   0.898921 0.137343 0.180212 -0.178696
C10   C     C_R   0.100997 0.862952 0.819952 -0.179238
C11   C     C_R   0.899074 0.217819 0.139243 -0.197486
C12   C     C_R   0.100850 0.782473 0.860920 -0.197344
C13   C     C_R   0.146201 0.910342 0.303439 -0.106596
C14   C     C_R   0.853487 0.089579 0.696716 -0.106600
C15   C     C_R   0.227589 0.907897 0.345993 -0.204353
C16   C     C_R   0.772108 0.092021 0.654156 -0.204457
C17   C     C_R   0.848583 0.105360 0.308794 -0.193716
C18   C     C_R   0.151747 0.894717 0.691378 -0.193391
C19   C     C_R   0.767753 0.102212 0.350705 -0.181238
C20   C     C_R   0.232596 0.897878 0.649475 -0.181200
C21   C     C_3   0.996388 0.011782 0.248382 -0.035889
C22   C     C_3   0.003604 0.988231 0.751618 -0.035941
C23   C     C_R   0.655192 0.001995 0.421018 0.872658
C24   C     C_R   0.344816 0.998004 0.578985 0.872594
C25   C     C_R   0.095452 0.008741 0.289564 0.181749
C26   C     C_R   0.904500 0.991250 0.710457 0.181388
C27   C     C_R   0.257225 0.002904 0.376561 -0.027069
C28   C     C_R   0.742733 0.997093 0.623457 -0.027022
C29   C     C_R   0.901621 0.009682 0.291416 0.205799
C30   C     C_R   0.098361 0.990307 0.708572 0.205821
C31   C     C_R   0.740492 0.004270 0.377364 -0.026033
C32   C     C_R   0.259532 0.995725 0.622645 -0.025957
C33   C     C_R   0.996524 0.112093 0.210454 0.119646
C34   C     C_R   0.003486 0.887937 0.789563 0.120026
C35   C     C_R   0.997486 0.273113 0.126519 -0.014430
C36   C     C_R   0.002528 0.726900 0.873490 -0.014379
C37   C     C_R   0.992192 0.918255 0.203154 -0.078259
C38   C     C_R   0.007824 0.081796 0.796826 -0.078340
C39   C     C_R   0.990089 0.755040 0.116292 -0.246682
C40   C     C_R   0.009924 0.245059 0.883659 -0.246501
C41   C     C_R   0.992613 0.664027 0.074647 0.993992
C42   C     C_R   0.007389 0.336011 0.925334 0.994338
C43   C     C_R   0.998693 0.353263 0.081353 0.852634
C44   C     C_R   0.001309 0.646739 0.918649 0.852568
C45   C     C_R   0.122467 0.102212 0.322923 -0.215818
C46   C     C_R   0.877703 0.897865 0.676984 -0.216010
C47   C     C_R   0.203840 0.099832 0.365076 -0.185042
C48   C     C_R   0.796340 0.900242 0.634827 -0.185035
C49   C     C_R   0.877889 0.912871 0.321107 -0.087865
C50   C     C_R   0.121814 0.087004 0.678725 -0.087763
C51   C     C_R   0.796430 0.909717 0.362853 -0.201769
C52   C     C_R   0.203280 0.090166 0.636984 -0.201796
C53   C     C_R   0.094967 0.169404 0.197390 -0.098610
C54   C     C_R   0.905133 0.830351 0.802477 -0.098113
C55   C     C_R   0.095074 0.249615 0.156161 -0.213740
C56   C     C_R   0.905034 0.750132 0.843702 -0.213670
C57   C     C_R   0.891088 0.865149 0.186496 0.263879
C58   C     C_R   0.108858 0.135195 0.813323 0.263727
H1    H     H_    0.223382 0.173623 0.389337 0.159277
H2    H     H_    0.776989 0.826523 0.610466 0.159252
H3    H     H_    0.921329 0.839104 0.310984 0.112531
H4    H     H_    0.078145 0.160687 0.688726 0.112601
H5    H     H_    0.173524 0.150291 0.216966 0.189340
H6    H     H_    0.826612 0.849277 0.782808 0.188952
H7    H     H_    0.822308 0.093606 0.187701 0.209507
H8    H     H_    0.177516 0.906924 0.812581 0.209342
H9    H     H_    0.121903 0.834726 0.282292 0.117490
H10   H     H_    0.877596 0.165164 0.717948 0.117654
H11   H     H_    0.870520 0.183566 0.291221 0.132822
H12   H     H_    0.130077 0.816558 0.709079 0.132904
H13   H     H_    0.778210 0.833751 0.384099 0.152998
H14   H     H_    0.221258 0.166043 0.615604 0.152943
H15   H     H_    0.172174 0.291492 0.146671 0.166573
H16   H     H_    0.828007 0.708034 0.853077 0.166451
H17   H     H_    0.822702 0.234446 0.116467 0.176246
H18   H     H_    0.177138 0.766064 0.883820 0.176251
H19   H     H_    0.266600 0.831620 0.355184 0.156610
H20   H     H_    0.732902 0.168240 0.645060 0.156619
H21   H     H_    0.727150 0.176872 0.362399 0.159492
H22   H     H_    0.273476 0.823303 0.637922 0.159448
H23   H     H_    0.079459 0.177390 0.316597 0.131399
H24   H     H_    0.920896 0.822766 0.683225 0.131470
O1    O     O_R   0.621380 0.090460 0.561410 -0.627019
O2    O     O_R   0.378620 0.909540 0.438590 -0.627021
O3    O     O_R   0.617150 0.909540 0.438590 -0.627708
O4    O     O_R   0.382850 0.090460 0.561410 -0.627666
O5    O     O_R   0.619720 0.093230 0.440890 -0.629650
O6    O     O_R   0.380280 0.906770 0.559110 -0.629646
O7    O     O_R   0.618800 0.906770 0.559110 -0.630225
O8    O     O_R   0.381200 0.093230 0.440890 -0.630242
O9    O     O_R   0.087590 0.627480 0.058790 -0.572816
O10   O     O_R   0.912410 0.372520 0.941210 -0.572948
O11   O     O_R   0.905660 0.383870 0.059980 -0.623818
O12   O     O_R   0.094340 0.616130 0.940020 -0.623799
O13   O     O_R   0.092570 0.390420 0.063230 -0.637068
O14   O     O_R   0.907430 0.609580 0.936770 -0.636982
O15   O     O_R   0.900680 0.620930 0.055550 -0.567296
O16   O     O_R   0.099320 0.379070 0.944450 -0.567424
Zn1   Zn    Zn3+2 0.501730 0.123520 0.501540 0.945487
Zn2   Zn    Zn3+2 0.498270 0.876480 0.498460 0.945480
Zn3   Zn    Zn3+2 0.125690 0.504390 0.002180 1.028811
Zn4   Zn    Zn3+2 0.874310 0.495610 0.997820 1.028820
O17   O     O_3   0.792306 0.897139 0.210267 -0.784192
H25   H     H_    0.745824 0.831674 0.217181 0.351464
O18   O     O_3   0.207629 0.103389 0.789467 -0.783991
H26   H     H_    0.253856 0.168961 0.782404 0.351469
O19   O     O_3   0.185934 0.952976 0.183604 -0.782594
H27   H     H_    0.249379 0.904668 0.177101 0.350680
O20   O     O_3   0.814264 0.046644 0.816612 -0.782356
H28   H     H_    0.750704 0.094752 0.823276 0.350646
O21   O     O_3   0.793484 0.730430 0.126965 -0.734417
H29   H     H_    0.733096 0.783630 0.127036 0.354502
O22   O     O_3   0.206317 0.270449 0.872558 -0.734582
H30   H     H_    0.266897 0.217467 0.872473 0.354524
O23   O     O_3   0.176028 0.804971 0.089814 -0.733815
H31   H     H_    0.215118 0.875675 0.085741 0.353158
O24   O     O_3   0.824316 0.194621 0.910443 -0.733871
H32   H     H_    0.785446 0.123810 0.914575 0.353113

loop_
_geom_bond_atom_site_label_1
_geom_bond_atom_site_label_2
_ccdc_geom_bond_type
C16   C28   A    
C17   H11   S    
O14   Zn4   S    
C17   C29   A    
C2    O2    A    
O21   H29   S    
C19   C31   A    
C39   C41   S    
C29   C49   A    
C52   H14   S    
C7    C39   A    
C5    C37   A    
C42   O16   A    
C20   C32   A    
C21   C33   S    
O23   H31   S    
C22   C38   S    
C18   C20   A    
C45   C47   A    
C7    O23   S    
C2    O8    A    
C32   C52   A    
C17   C19   A    
C46   H24   S    
C15   C27   A    
C4    C40   A    
O12   Zn3   S    
C3    O21   S    
C49   C51   A    
C1    C28   S    
C43   O13   A    
O19   H27   S    
C6    C38   A    
C2    C27   S    
C18   C30   A    
C14   C16   A    
C12   C36   A    
C35   C43   S    
C16   H20   S    
O15   Zn4   S    
O10   Zn4   S    
C10   H8    S    
C30   C50   A    
C3    C39   A    
O1    Zn1   S    
C9    C33   A    
C13   C25   A    
C51   H13   S    
O9    Zn3   S    
C57   O17   S    
C8    O24   S    
C48   H2    S    
C46   C48   A    
C53   C55   A    
C33   C53   A    
C22   C34   S    
C54   C56   A    
C56   H16   S    
C20   H22   S    
O7    Zn2   S    
C35   C55   A    
O2    Zn2   S    
C4    O22   S    
C49   H3    S    
C13   H9    S    
C5    C7    A    
C6    C8    A    
C21   C29   S    
C23   C31   S    
C24   C32   S    
C36   C56   A    
C24   O6    A    
C50   C52   A    
C10   C34   A    
C38   C58   A    
C14   C26   A    
C19   H21   S    
O4    Zn1   S    
C9    C11   A    
O6    Zn2   S    
C10   C12   A    
C3    C57   A    
C41   O9    A    
C34   C54   A    
C13   C15   A    
C23   O3    A    
C50   H4    S    
C6    O20   S    
C41   O15   A    
C36   C44   S    
C25   C45   A    
O8    Zn1   S    
O22   H30   S    
C5    O19   S    
C27   C47   A    
C21   C25   S    
C28   C48   A    
C1    O7    A    
C44   O14   A    
C22   C30   S    
C45   H23   S    
C31   C51   A    
C40   C42   S    
O11   Zn4   S    
C1    O1    A    
O16   Zn3   S    
O18   H26   S    
C18   H12   S    
C58   O18   S    
C12   H18   S    
O3    Zn2   S    
C11   H17   S    
O24   H32   S    
C53   H5    S    
C15   H19   S    
C54   H6    S    
C11   C35   A    
C43   O11   A    
C42   O10   A    
C9    H7    S    
C44   O12   A    
C26   C46   A    
C47   H1    S    
C55   H15   S    
O5    Zn1   S    
C21   C37   S    
C22   C26   S    
C4    C58   A    
O17   H25   S    
C14   H10   S    
C23   O5    A    
C8    C40   A    
O20   H28   S    
C24   O4    A    
C37   C57   A    
O13   Zn3   S    
