data_mof_unit_49442.cif
_audit_creation_date              2012-12-11T16:37:22-0500
_audit_creation_method            fapswitch 2.2
_symmetry_space_group_name_H-M    P1
_symmetry_Int_Tables_number       1
_space_group_crystal_system       triclinic
_cell_length_a                    19.486673
_cell_length_b                    6.934921
_cell_length_c                    17.70997
_cell_angle_alpha                 89.976619
_cell_angle_beta                  108.986526
_cell_angle_gamma                 89.979487
_cell_volume                      2263.09176839

loop_
_atom_site_label
_atom_site_type_symbol
_atom_type_description
_atom_site_fract_x
_atom_site_fract_y
_atom_site_fract_z
_atom_type_partial_charge
O1    O     O_R   0.561710 0.369960 0.440200 -0.517698
O2    O     O_R   0.061710 0.630040 0.940200 -0.518570
O3    O     O_R   0.412630 0.033330 0.406330 -0.547283
O4    O     O_R   0.912630 0.966670 0.906330 -0.545870
O5    O     O_R   0.438290 0.869790 0.559800 -0.543496
O6    O     O_R   0.938290 0.130210 0.059800 -0.542839
C1    C     C_R   0.384583 0.203158 0.383557 0.704374
C2    C     C_R   0.885017 0.796904 0.882919 0.700858
O7    O     O_R   0.559570 0.039810 0.430640 -0.533730
O8    O     O_R   0.059570 0.960190 0.930640 -0.534641
O9    O     O_R   0.586280 0.876320 0.584290 -0.547580
O10   O     O_R   0.086280 0.123680 0.084290 -0.545537
C3    C     C_R   0.579211 0.209615 0.413406 0.762702
C4    C     C_R   0.079162 0.790413 0.913368 0.758490
O11   O     O_R   0.413720 0.363440 0.415710 -0.538252
O12   O     O_R   0.913720 0.636560 0.915710 -0.540051
O13   O     O_3   0.508590 0.205630 0.550380 -0.360227
O14   O     O_3   0.008590 0.794370 0.050380 -0.357853
V1    V     V_3+5 0.498410 0.928130 0.490650 1.501769
V2    V     V_3+5 0.998410 0.071870 0.990650 1.501583
O15   O     O_R   0.587370 0.546990 0.593670 -0.538914
O16   O     O_R   0.087370 0.453010 0.093670 -0.540064
C5    C     C_R   0.614950 0.716802 0.617326 0.700676
C6    C     C_R   0.115607 0.283169 0.116443 0.699201
O17   O     O_R   0.440430 0.540520 0.569360 -0.511476
O18   O     O_R   0.940430 0.459480 0.069360 -0.511444
C7    C     C_R   0.419919 0.709204 0.585828 0.738595
C8    C     C_R   0.920001 0.290755 0.085902 0.740734
V3    V     V_3+5 0.501590 0.428960 0.509350 1.542576
V4    V     V_3+5 0.001590 0.571040 0.009350 1.539954
O19   O     O_3   0.491410 0.701330 0.449620 -0.351381
O20   O     O_3   0.991410 0.298670 0.949620 -0.352372
C9    C     C_R   0.278523 0.896623 0.673281 -0.082644
C10   C     C_R   0.778463 0.103958 0.173207 -0.082611
H1    H     H_    0.244023 0.022476 0.665905 0.183819
H2    H     H_    0.743596 0.978840 0.165461 0.184086
C11   C     C_R   0.326695 0.883329 0.629583 -0.167731
C12   C     C_R   0.826534 0.117249 0.129393 -0.168563
H3    H     H_    0.327901 0.000204 0.589442 0.164226
H4    H     H_    0.827329 0.001079 0.088815 0.162572
C13   C     C_R   0.371418 0.720113 0.635947 -0.138835
C14   C     C_R   0.871646 0.279705 0.136159 -0.138255
C15   C     C_R   0.368045 0.571775 0.689836 0.371582
C16   C     C_R   0.868846 0.427115 0.190615 0.371565
C17   C     C_R   0.319813 0.587154 0.733537 -0.094755
C18   C     C_R   0.820732 0.411714 0.234460 -0.094295
C19   C     C_R   0.273606 0.746977 0.724533 0.068295
C20   C     C_R   0.774080 0.252796 0.225012 0.068500
C21   C     C_R   0.169880 0.608784 0.764299 0.370469
C22   C     C_R   0.670747 0.392186 0.265145 0.370218
C23   C     C_R   0.122403 0.619028 0.809804 0.331836
C24   C     C_R   0.623167 0.382056 0.310526 0.331369
C25   C     C_R   0.125487 0.778640 0.860978 -0.193571
C26   C     C_R   0.625676 0.221489 0.361142 -0.195414
C27   C     C_R   0.174276 0.928955 0.862509 -0.159214
C28   C     C_R   0.674076 0.070343 0.362278 -0.156753
C29   C     C_R   0.221154 0.918525 0.817325 -0.131766
C30   C     C_R   0.721085 0.080732 0.317243 -0.131217
H5    H     H_    0.259123 0.035209 0.821280 0.166574
H6    H     H_    0.758729 0.963332 0.320876 0.167749
C31   C     C_R   0.220708 0.757576 0.769159 -0.049596
C32   C     C_R   0.721157 0.242453 0.269607 -0.049946
C33   C     C_R   0.804906 0.622299 0.761335 0.146057
C34   C     C_R   0.268017 0.376344 0.311513 0.112014
C35   C     C_R   0.818285 0.782949 0.812339 -0.108469
C36   C     C_R   0.314271 0.217297 0.317814 -0.108036
C37   C     C_R   0.765078 0.928369 0.794436 -0.174867
C38   C     C_R   0.290747 0.072289 0.259661 -0.162788
H7    H     H_    0.772571 0.054265 0.832142 0.133367
H8    H     H_    0.324269 0.946944 0.261798 0.146332
C39   C     C_R   0.699059 0.905487 0.731399 -0.157667
C40   C     C_R   0.226170 0.094597 0.194684 -0.164354
H9    H     H_    0.658301 0.017231 0.721348 0.143002
H10   H     H_    0.211573 0.983549 0.149352 0.125361
C41   C     C_R   0.683926 0.735654 0.684789 -0.105285
C42   C     C_R   0.183238 0.263006 0.185625 -0.110008
C43   C     C_R   0.739642 0.599542 0.699064 0.098260
C44   C     C_R   0.204165 0.398527 0.247277 0.135466
C45   C     C_3   0.737916 0.388377 0.713458 -0.435638
C46   C     C_3   0.215155 0.610254 0.243217 -0.414384
C47   C     C_3   0.809338 0.412724 0.780904 -0.374889
C48   C     C_3   0.284482 0.586575 0.313616 -0.398005
H11   H     H_    0.743057 0.302062 0.662696 0.181509
H12   H     H_    0.225034 0.652857 0.187142 0.166143
H13   H     H_    0.855826 0.341483 0.768857 0.206520
H14   H     H_    0.334548 0.616909 0.298589 0.192208
H15   H     H_    0.692071 0.347520 0.734536 0.185629
H16   H     H_    0.172701 0.694768 0.257912 0.201135
H17   H     H_    0.805045 0.384292 0.840989 0.162454
H18   H     H_    0.281907 0.656528 0.369104 0.170595
Cl1   Cl    Cl    0.424527 0.366567 0.707775 -0.647317
Cl2   Cl    Cl    0.925928 0.631043 0.209051 -0.643627
H19   H     H_    0.318365 0.473380 0.774952 0.165029
H20   H     H_    0.819689 0.524800 0.276288 0.165272
Cl3   Cl    Cl    0.162508 0.413107 0.697968 -0.598332
Cl4   Cl    Cl    0.663996 0.588995 0.199414 -0.600448
Cl5   Cl    Cl    0.056755 0.435021 0.797950 -0.576856
Cl6   Cl    Cl    0.558157 0.567682 0.299197 -0.573731
H21   H     H_    0.177393 0.053636 0.900314 0.163115
H22   H     H_    0.676789 0.944967 0.399654 0.165301

loop_
_geom_bond_atom_site_label_1
_geom_bond_atom_site_label_2
_ccdc_geom_bond_type
C23   Cl5   S    
C36   C38   A    
C33   C35   A    
C30   C32   A    
O13   V3    S    
C46   H12   S    
V1    O19   S    
C45   H15   S    
O9    V1    S    
C33   C47   S    
C12   H4    S    
C42   C44   A    
C12   C14   A    
O3    C1    A    
C33   C43   A    
C44   C46   S    
C29   H5    S    
O12   V4    S    
C17   C19   A    
C24   Cl6   S    
O7    C3    A    
O13   V1    S    
O5    C7    A    
O7    V1    S    
O6    C8    A    
O8    V2    S    
C35   C37   A    
C22   C24   A    
O3    V1    S    
O14   V4    S    
V4    O20   S    
C37   C39   A    
C16   Cl2   S    
O4    C2    A    
C47   H17   S    
C43   C45   S    
C17   H19   S    
C2    C35   S    
C2    O12   A    
V3    O19   S    
C13   C15   A    
C14   C16   A    
C24   C26   A    
O11   V3    S    
C18   C20   A    
C25   C27   A    
O17   V3    S    
C26   C28   A    
C21   C31   A    
C40   H10   S    
O8    C4    A    
C45   C47   S    
C6    C42   S    
C1    O11   A    
C16   C18   A    
C21   C23   A    
C48   H14   S    
O15   V3    S    
C15   Cl1   S    
C23   C25   A    
C34   C36   A    
C41   C43   A    
C7    C13   S    
C20   C32   S    
C18   H20   S    
C38   C40   A    
O10   V2    S    
O1    V3    S    
C40   C42   A    
C21   Cl3   S    
C15   C17   A    
C34   C48   S    
C46   C48   S    
O18   V4    S    
O15   C5    A    
C9    C19   A    
O16   C6    A    
O1    C3    A    
C28   H22   S    
C39   H9    S    
C3    C26   S    
V2    O20   S    
O16   V4    S    
C10   C12   A    
C34   C44   A    
C5    C41   S    
C19   C31   S    
C29   C31   A    
O5    V1    S    
O4    V2    S    
O17   C7    A    
O6    V2    S    
O10   C6    A    
O18   C8    A    
C48   H18   S    
O2    V4    S    
C27   C29   A    
C11   H3    S    
C1    C36   S    
C39   C41   A    
C22   Cl4   S    
C22   C32   A    
O9    C5    A    
C9    H1    S    
C10   H2    S    
C28   C30   A    
O14   V2    S    
C11   C13   A    
O2    C4    A    
C9    C11   A    
C45   H11   S    
C4    C25   S    
C10   C20   A    
C46   H16   S    
C27   H21   S    
C38   H8    S    
C37   H7    S    
C30   H6    S    
C47   H13   S    
C8    C14   S    
