data_mof_unit_63420.cif
_audit_creation_date              2012-12-10T18:13:26-0500
_audit_creation_method            fapswitch 2.2
_symmetry_space_group_name_H-M    P1
_symmetry_Int_Tables_number       1
_space_group_crystal_system       triclinic
_cell_length_a                    36.316454
_cell_length_b                    29.169742
_cell_length_c                    21.537647
_cell_angle_alpha                 89.622894
_cell_angle_beta                  126.565182
_cell_angle_gamma                 90.221016
_cell_volume                      18324.7291947

loop_
_atom_site_label
_atom_site_type_symbol
_atom_type_description
_atom_site_fract_x
_atom_site_fract_y
_atom_site_fract_z
_atom_type_partial_charge
C1    C     C_R   0.913238 0.000001 0.913319 0.896119
C2    C     C_1   0.229462 0.999992 0.229145 -0.000132
C3    C     C_3   0.496731 0.449441 0.286514 0.895511
C4    C     C_1   0.862567 0.000002 0.862702 -0.231428
C5    C     C_1   0.137427 0.999995 0.137246 -0.241184
C6    C     C_1   0.362569 0.500004 0.862661 -0.234277
C7    C     C_1   0.637429 0.499999 0.137278 -0.235456
C8    C     C_3   0.094614 0.926039 0.827449 0.017916
C9    C     C_3   0.118008 0.888950 0.813122 -0.806726
C10   C     C_3   0.950774 0.884393 0.262783 0.116229
C11   C     C_3   0.902527 0.870908 0.233885 -0.832784
C12   C     C_3   0.058178 0.892265 0.346814 0.016415
C13   C     C_1   0.270535 0.500004 0.770760 0.002302
C14   C     C_3   0.083486 0.861811 0.418459 -0.801134
C15   C     C_3   0.123388 0.032242 0.825971 0.130575
C16   C     C_3   0.145300 0.077878 0.830810 -0.847094
C17   C     C_3   0.625758 0.524803 0.831039 0.179816
C18   C     C_3   0.663951 0.490264 0.880567 -0.895125
C19   C     C_3   0.449502 0.384918 0.261325 0.116835
C20   C     C_3   0.401049 0.371976 0.231946 -0.832846
C21   C     C_3   0.557007 0.391581 0.345917 0.015921
C22   C     C_3   0.581722 0.360748 0.417100 -0.799772
C23   C     C_3   0.515534 0.605115 0.703603 0.014783
C24   C     C_1   0.729463 0.499999 0.229153 0.001636
C25   C     C_3   0.534884 0.653189 0.715020 -0.801185
C26   C     C_1   0.728324 0.000001 0.728606 0.002072
C27   C     C_1   0.271671 0.999993 0.271332 -0.000084
C28   C     C_1   0.228325 0.500003 0.728594 0.001812
C29   C     C_1   0.771672 0.499999 0.271335 0.001428
C30   C     C_1   0.678497 0.000000 0.678787 0.000354
C31   C     C_1   0.321500 0.999995 0.321177 -0.001001
C32   C     C_1   0.178498 0.500002 0.678782 0.000227
C33   C     C_R   0.086757 0.999998 0.086669 0.915646
C34   C     C_1   0.821501 0.500000 0.321178 -0.000018
C35   C     C_1   0.636286 1.000000 0.636532 -0.204401
C36   C     C_1   0.363711 0.999998 0.363453 -0.205419
C37   C     C_1   0.136287 0.500001 0.636531 -0.204450
C38   C     C_1   0.863712 0.500000 0.363454 -0.204618
C39   C     C_R   0.000003 0.913260 0.499720 0.954947
C40   C     C_R   0.000001 0.086747 0.500062 0.889657
C41   C     C_R   0.500001 0.413261 0.499696 0.953347
C42   C     C_R   0.500004 0.586746 0.500171 0.886498
C43   C     C_R   0.000237 0.999789 0.622907 0.920123
C44   C     C_R   0.413240 0.500001 0.913256 0.907269
C45   C     C_R   0.999969 0.003920 0.377605 0.926741
C46   C     C_R   0.500097 0.502956 0.622431 0.893329
C47   C     C_R   0.499969 0.503897 0.377602 0.928980
C48   C     C_R   0.500001 0.085623 0.499808 0.878728
C49   C     C_R   0.500006 0.914378 0.500196 0.878635
C50   C     C_R   0.000003 0.585624 0.499812 0.878421
C51   C     C_R   0.000002 0.414381 0.500181 0.878817
C52   C     C_R   0.585609 1.000000 0.585692 0.878849
C53   C     C_R   0.414390 1.000000 0.414306 0.878532
C54   C     C_R   0.085609 0.500000 0.585692 0.878618
C55   C     C_R   0.586759 0.499999 0.086719 0.906933
C56   C     C_R   0.914390 0.500000 0.414306 0.878591
C57   C     C_1   0.000016 0.862602 0.499339 -0.231273
C58   C     C_1   0.000006 0.137417 0.500209 -0.221526
C59   C     C_1   0.500002 0.362602 0.499268 -0.234435
C60   C     C_1   0.500023 0.637408 0.500576 -0.223946
C61   C     C_R   0.994631 0.000118 0.872582 0.892596
C62   C     C_R   0.999627 0.999750 0.122184 0.898073
C63   C     C_R   0.500434 0.500113 0.877914 0.899749
C64   C     C_R   0.499578 0.499751 0.122134 0.897413
C65   C     C_1   0.000030 0.820401 0.499084 -0.016571
C66   C     C_1   0.820359 0.000002 0.820547 -0.002837
C67   C     C_1   0.000011 0.179624 0.500347 -0.002943
C68   C     C_1   0.500005 0.320399 0.498985 -0.015056
C69   C     C_1   0.500048 0.679611 0.500879 -0.009510
C70   C     C_1   0.000040 0.770576 0.498962 -0.000594
C71   C     C_1   0.000014 0.229451 0.500491 0.002831
C72   C     C_1   0.500011 0.270575 0.498859 0.000329
C73   C     C_1   0.500066 0.729435 0.501063 -0.000132
C74   C     C_1   0.500012 0.228363 0.498915 0.000751
C75   C     C_1   0.500064 0.771645 0.501050 0.001261
C76   C     C_1   0.000038 0.728364 0.499000 0.000150
C77   C     C_1   0.179635 0.999993 0.179380 -0.005265
C78   C     C_1   0.000014 0.271660 0.500577 0.002737
C79   C     C_1   0.500009 0.178527 0.499126 -0.000744
C80   C     C_1   0.500047 0.821479 0.500874 -0.000610
C81   C     C_1   0.000027 0.678528 0.499177 -0.001261
C82   C     C_1   0.000010 0.321489 0.500605 0.000651
C83   C     C_1   0.500005 0.136311 0.499393 -0.205009
C84   C     C_1   0.500028 0.863693 0.500622 -0.205063
C85   C     C_1   0.000016 0.636312 0.499414 -0.205301
C86   C     C_1   0.000006 0.363701 0.500518 -0.204080
C87   C     C_3   0.972330 0.956875 0.757210 -0.417900
C88   C     C_1   0.320361 0.500005 0.820517 -0.002123
C89   C     C_3   0.957447 0.026273 0.170664 -0.410353
C90   C     C_3   0.044044 0.022788 0.257353 -0.424599
C91   C     C_3   0.972641 0.043483 0.756454 -0.412072
C92   C     C_3   0.506752 0.451381 0.790474 -0.369916
C93   C     C_3   0.457557 0.526505 0.170800 -0.410611
C94   C     C_3   0.544133 0.522539 0.257427 -0.424385
C95   C     C_3   0.454815 0.521014 0.741457 -0.435663
C96   C     C_3   0.972797 0.957798 0.686611 -0.476469
C97   C     C_3   0.958309 0.028558 0.242409 -0.453301
C98   C     C_3   0.044575 0.023275 0.328907 -0.474121
C99   C     C_1   0.679637 0.499999 0.179399 -0.003300
C100  C     C_3   0.976804 0.044110 0.689764 -0.468188
C101  C     C_3   0.503976 0.452057 0.716448 -0.427619
C102  C     C_3   0.458554 0.528938 0.242667 -0.453193
C103  C     C_3   0.544765 0.522844 0.329085 -0.474134
C104  C     C_3   0.453861 0.520540 0.669493 -0.490386
C105  C     C_3   0.047337 0.000229 0.837597 -0.536550
C106  C     C_3   0.997897 0.949650 0.214489 -0.529044
C107  C     C_3   0.540426 0.531920 0.827620 -0.500386
C108  C     C_3   0.497594 0.449658 0.214172 -0.528849
C109  C     C_3   0.996575 0.000166 0.807043 0.099575
C110  C     C_1   0.770533 0.000001 0.770779 0.002209
C111  C     C_3   0.999697 0.999452 0.189874 0.096851
C112  C     C_3   0.500661 0.500808 0.810616 0.074587
C113  C     C_3   0.499653 0.499452 0.189827 0.097263
C114  C     C_3   0.000812 0.999691 0.691418 0.079381
C115  C     C_3   0.999946 0.000987 0.309977 0.083937
C116  C     C_3   0.500679 0.502619 0.690519 0.033619
C117  C     C_3   0.499931 0.500973 0.309959 0.083010
C118  C     C_3   0.051287 0.996679 0.768742 0.911754
C119  C     C_3   0.997241 0.949425 0.287044 0.895582
C120  C     C_3   0.544443 0.529471 0.759772 0.906664
H1    H     H_    0.989983 0.925277 0.791589 0.188946
H2    H     H_    0.957269 0.061756 0.151101 0.189682
H3    H     H_    0.046144 0.058627 0.241561 0.194868
H4    H     H_    0.935819 0.043605 0.733095 0.171250
H5    H     H_    0.479588 0.428211 0.781665 0.181805
H6    H     H_    0.457485 0.561950 0.151216 0.189288
H7    H     H_    0.546350 0.558411 0.241901 0.194819
H8    H     H_    0.425599 0.500514 0.730675 0.177263
H9    H     H_    0.936857 0.959832 0.633261 0.197685
H10   H     H_    0.960782 0.065012 0.259586 0.164328
H11   H     H_    0.047541 0.059291 0.348254 0.172855
H12   H     H_    0.925387 0.009132 0.122828 0.172420
H13   H     H_    0.941868 0.047106 0.634188 0.190945
H14   H     H_    0.473410 0.432232 0.670405 0.168000
H15   H     H_    0.461455 0.565395 0.260125 0.164195
H16   H     H_    0.548151 0.558786 0.349002 0.173256
H17   H     H_    0.425702 0.497217 0.626457 0.212008
H18   H     H_    0.987602 0.925272 0.683643 0.192403
H19   H     H_    0.925361 0.014971 0.227864 0.225362
H20   H     H_    0.075443 0.004524 0.376760 0.217814
H21   H     H_    0.996449 0.074882 0.694221 0.202239
H22   H     H_    0.534209 0.434168 0.726818 0.211192
H23   H     H_    0.074648 0.004016 0.270659 0.163184
H24   H     H_    0.425483 0.515763 0.228140 0.225125
H25   H     H_    0.575440 0.503707 0.376596 0.217883
H26   H     H_    0.443390 0.554320 0.640360 0.156409
H27   H     H_    0.066234 0.973872 0.883340 0.122153
H28   H     H_    0.966334 0.932760 0.165095 0.174094
H29   H     H_    0.026884 0.930603 0.223111 0.138116
H30   H     H_    0.062820 0.033159 0.868526 0.177717
H31   H     H_    0.572719 0.520034 0.882538 0.153613
H32   H     H_    0.466038 0.432861 0.164607 0.173566
H33   H     H_    0.526609 0.430545 0.223007 0.138634
H34   H     H_    0.988498 0.075229 0.791126 0.196507
H35   H     H_    0.535619 0.567684 0.838824 0.161573
H36   H     H_    0.070242 0.908772 0.835168 0.159312
H37   H     H_    0.121723 0.944566 0.880633 0.129484
H38   H     H_    0.142789 0.904716 0.805045 0.250581
H39   H     H_    0.136718 0.865108 0.863338 0.208028
H40   H     H_    0.092062 0.869262 0.760498 0.258531
H41   H     H_    0.974854 0.869198 0.321404 0.184089
H42   H     H_    0.957048 0.869959 0.222245 0.115376
H43   H     H_    0.877160 0.885222 0.175053 0.255600
H44   H     H_    0.899322 0.832973 0.231544 0.207817
H45   H     H_    0.540523 0.437213 0.839087 0.188673
H46   H     H_    0.895123 0.884291 0.273569 0.264171
H47   H     H_    0.084187 0.908543 0.342179 0.160275
H48   H     H_    0.035054 0.870020 0.296104 0.121717
H49   H     H_    0.058660 0.844805 0.425275 0.247663
H50   H     H_    0.103087 0.835102 0.412985 0.206737
H51   H     H_    0.107704 0.882670 0.470638 0.262091
H52   H     H_    0.137678 0.005696 0.808952 0.184908
H53   H     H_    0.132765 0.024189 0.884291 0.112586
H54   H     H_    0.132093 0.105277 0.848329 0.257882
H55   H     H_    0.183090 0.075552 0.874218 0.207759
H56   H     H_    0.425401 0.509459 0.123035 0.172456
H57   H     H_    0.137219 0.086833 0.773689 0.262668
H58   H     H_    0.626846 0.550512 0.870096 0.139960
H59   H     H_    0.632250 0.542560 0.792572 0.183476
H60   H     H_    0.664577 0.464736 0.843167 0.266293
H61   H     H_    0.697512 0.508191 0.915780 0.216944
H62   H     H_    0.658346 0.472201 0.919860 0.258231
H63   H     H_    0.473306 0.369500 0.319840 0.184237
H64   H     H_    0.455766 0.370368 0.220843 0.115296
H65   H     H_    0.375948 0.386528 0.173198 0.255588
H66   H     H_    0.397431 0.334078 0.229241 0.207855
H67   H     H_    0.574639 0.503688 0.270474 0.163409
H68   H     H_    0.393632 0.385488 0.271544 0.264097
H69   H     H_    0.583356 0.407535 0.341846 0.160640
H70   H     H_    0.533708 0.369675 0.294803 0.121849
H71   H     H_    0.556544 0.344018 0.423316 0.247456
H72   H     H_    0.601091 0.333823 0.411489 0.207078
H73   H     H_    0.606079 0.381260 0.469669 0.262491
H74   H     H_    0.496296 0.604433 0.728597 0.144686
H75   H     H_    0.492337 0.598930 0.640367 0.148923
H76   H     H_    0.553839 0.655883 0.689443 0.263718
H77   H     H_    0.506528 0.678601 0.686271 0.210661
H78   H     H_    0.450415 0.556776 0.753736 0.179813
H79   H     H_    0.558578 0.661093 0.777677 0.249663
H80   H     H_    0.936280 0.955379 0.737893 0.171116
O1    O     O_R   0.936850 0.964330 0.936870 -0.604049
O2    O     O_R   0.000010 0.035670 0.092610 -0.625870
O3    O     O_R   0.000010 0.964330 0.092610 -0.626168
O4    O     O_R   0.999990 0.035670 0.907390 -0.622920
O5    O     O_R   0.499990 0.464330 0.907390 -0.627722
O6    O     O_R   0.500010 0.535670 0.092610 -0.626172
O7    O     O_R   0.500010 0.464330 0.092610 -0.626260
O8    O     O_R   0.499990 0.535670 0.907390 -0.623580
O9    O     O_R   0.964320 0.936860 0.464320 -0.602319
O10   O     O_R   0.035680 0.063140 0.535680 -0.606916
O11   O     O_R   0.035680 0.936860 0.535680 -0.586480
O12   O     O_R   0.063150 0.035670 0.063130 -0.596115
O13   O     O_R   0.964320 0.063140 0.464320 -0.610881
O14   O     O_R   0.464320 0.436860 0.464320 -0.598314
O15   O     O_R   0.535680 0.563140 0.535680 -0.601988
O16   O     O_R   0.535680 0.436860 0.535680 -0.590470
O17   O     O_R   0.464320 0.563140 0.464320 -0.615465
O18   O     O_R   0.964330 1.000000 0.556950 -0.648856
O19   O     O_R   0.035670 1.000000 0.443050 -0.606524
O20   O     O_R   0.464330 0.500000 0.556950 -0.642142
O21   O     O_R   0.535670 0.500000 0.443050 -0.605739
O22   O     O_R   0.035630 1.000000 0.628230 -0.554778
O23   O     O_R   0.063150 0.964330 0.063130 -0.600626
O24   O     O_R   0.964370 1.000000 0.371770 -0.602136
O25   O     O_R   0.535630 0.500000 0.628230 -0.573768
O26   O     O_R   0.464370 0.500000 0.371770 -0.601098
O27   O     O_R   0.499940 0.063120 0.447680 -0.593472
O28   O     O_R   0.500060 0.936880 0.552320 -0.592922
O29   O     O_R   0.500060 0.063120 0.552320 -0.592065
O30   O     O_R   0.499940 0.936880 0.447680 -0.592613
O31   O     O_R   0.999940 0.563120 0.447680 -0.593460
O32   O     O_R   0.000060 0.436880 0.552320 -0.592514
O33   O     O_R   0.000060 0.563120 0.552320 -0.592317
O34   O     O_R   0.936850 0.035670 0.936870 -0.603627
O35   O     O_R   0.999940 0.436880 0.447680 -0.592513
O36   O     O_R   0.563110 1.000000 0.510830 -0.592914
O37   O     O_R   0.436890 1.000000 0.489170 -0.592657
O38   O     O_R   0.063110 0.500000 0.510830 -0.592958
O39   O     O_R   0.936890 0.500000 0.489170 -0.592644
O40   O     O_R   0.563120 1.000000 0.615390 -0.592264
O41   O     O_R   0.436880 1.000000 0.384610 -0.593150
O42   O     O_R   0.063120 0.500000 0.615390 -0.592323
O43   O     O_R   0.936880 0.500000 0.384610 -0.592732
O44   O     O_3   0.070717 0.955512 0.762563 -0.643752
O45   O     O_R   0.436850 0.464330 0.936870 -0.600542
O46   O     O_3   0.954092 0.932696 0.265578 -0.639297
O47   O     O_3   0.034377 0.926536 0.355932 -0.646679
O48   O     O_3   0.075387 0.035852 0.769990 -0.640925
O49   O     O_3   0.583310 0.501228 0.785414 -0.633591
O50   O     O_3   0.453341 0.433182 0.264580 -0.639026
O51   O     O_3   0.533538 0.426149 0.355243 -0.647067
O52   O     O_3   0.552057 0.573464 0.738610 -0.659857
O53   O     O_R   0.563150 0.535670 0.063130 -0.600308
O54   O     O_R   0.563150 0.464330 0.063130 -0.601310
O55   O     O_R   0.436850 0.535670 0.936870 -0.600963
O56   O     O_R   0.999990 0.964330 0.907390 -0.625380
Zn1   Zn    Zn3+2 1.000000 0.952370 0.000000 0.933773
Zn2   Zn    Zn3+2 0.500030 1.000000 0.569830 0.963161
Zn3   Zn    Zn3+2 0.999970 0.500000 0.430170 0.962078
Zn4   Zn    Zn3+2 0.000030 0.500000 0.569830 0.963619
Zn5   Zn    Zn3+2 0.000000 0.047630 0.000000 0.942285
Zn6   Zn    Zn3+2 0.500000 0.452370 0.000000 0.938031
Zn7   Zn    Zn3+2 0.500000 0.547630 0.000000 0.940214
Zn8   Zn    Zn3+2 0.952370 1.000000 0.452390 0.959064
Zn9   Zn    Zn3+2 0.047630 1.000000 0.547610 0.996681
Zn10  Zn    Zn3+2 0.452370 0.500000 0.452390 0.956424
Zn11  Zn    Zn3+2 0.547630 0.500000 0.547610 0.988402
Zn12  Zn    Zn3+2 0.499970 1.000000 0.430170 0.961256

loop_
_geom_bond_atom_site_label_1
_geom_bond_atom_site_label_2
_ccdc_geom_bond_type
C17   H58   S    
C79   C83   T    
C106  C119  S    
C24   C99   S    
O18   Zn8   S    
C107  C112  S    
C56   O39   A    
C19   C20   S    
C3    O50   S    
C7    C55   S    
C14   H50   S    
C42   O17   A    
O20   Zn10  S    
C92   H5    S    
C12   H47   S    
C98   C115  S    
C106  H28   S    
O24   Zn8   S    
C107  H35   S    
O30   Zn12  S    
C94   H7    S    
C100  H13   S    
C105  H30   S    
C52   O36   A    
C89   H12   S    
C7    C99   T    
C30   C35   T    
C25   H79   S    
C54   O42   A    
C49   C84   S    
C119  O46   S    
C3    O51   S    
C97   H10   S    
C102  H15   S    
C76   C81   S    
C95   C112  S    
C61   O4    A    
C96   H18   S    
C33   O12   A    
C118  O48   S    
O27   Zn12  S    
C20   H66   S    
C89   H2    S    
C8    O44   S    
C65   C70   S    
C105  H27   S    
C40   O10   A    
C18   H62   S    
O11   Zn9   S    
O3    Zn1   S    
C6    C88   T    
C104  H17   S    
C39   O9    A    
C51   O35   A    
C90   H3    S    
C49   O30   A    
C119  O47   S    
C24   C29   T    
C62   O2    A    
C42   O15   A    
C3    C117  S    
C50   C85   S    
C20   H65   S    
C108  H32   S    
C92   H45   S    
O34   Zn5   S    
C53   O37   A    
C62   C111  S    
C8    C9    S    
C5    C33   S    
C40   O13   A    
C11   H46   S    
C63   C112  S    
C38   C56   S    
C13   C28   T    
C69   C73   S    
C2    C27   T    
C36   C53   S    
C15   H53   S    
C91   C100  S    
C97   C115  S    
C75   C80   S    
C26   C110  T    
C67   C71   S    
C90   H23   S    
C80   C84   T    
C71   C78   T    
C93   H6    S    
C107  H31   S    
O29   Zn2   S    
C17   H59   S    
C47   O21   A    
C61   C109  S    
O25   Zn11  S    
C10   H42   S    
C106  H29   S    
C104  C116  S    
C21   C22   S    
O56   Zn1   S    
C73   C75   T    
C96   C114  S    
C103  C117  S    
C102  H24   S    
C87   H80   S    
C14   H49   S    
C8    H37   S    
C95   H8    S    
C51   C86   S    
C94   C113  S    
C118  O44   S    
O33   Zn4   S    
O1    Zn1   S    
C106  C111  S    
C64   O7    A    
O12   Zn5   S    
C40   C58   S    
C108  H33   S    
O13   Zn8   S    
C27   C31   S    
C104  H26   S    
O39   Zn4   S    
C28   C32   S    
C43   O22   A    
C100  C114  S    
C94   H67   S    
C41   C59   S    
C46   O20   A    
C72   C74   T    
C19   H63   S    
O5    Zn6   S    
O23   Zn1   S    
C48   O27   A    
O14   Zn10  S    
C92   C112  S    
C93   C113  S    
C18   H61   S    
C82   C86   T    
C64   O6    A    
C29   C34   S    
C55   O53   A    
C98   H20   S    
C108  C113  S    
C98   H11   S    
C50   O33   A    
C103  H16   S    
O16   Zn11  S    
C21   O51   S    
C23   O52   S    
O21   Zn11  S    
C59   C68   T    
C20   H68   S    
C101  H22   S    
C45   C115  S    
C21   H69   S    
C1    O34   A    
C68   C72   S    
C57   C65   T    
C87   C96   S    
C11   H43   S    
C17   C18   S    
O41   Zn12  S    
C39   O11   A    
O38   Zn3   S    
C22   H73   S    
O43   Zn3   S    
C32   C37   T    
C66   C110  S    
C49   O28   A    
C25   H76   S    
C54   O38   A    
C114  C118  S    
C102  C117  S    
C44   O45   A    
C91   H34   S    
C92   C101  S    
C37   C54   S    
C33   O23   A    
C16   H55   S    
O35   Zn3   S    
C56   O43   A    
O26   Zn10  S    
C94   C103  S    
C26   C30   S    
C61   O56   A    
C115  C119  S    
C74   C79   S    
O32   Zn4   S    
C45   O19   A    
C120  O49   S    
C105  C118  S    
C43   O18   A    
C48   O29   A    
C70   C76   T    
C5    C77   T    
O2    Zn5   S    
C42   C60   S    
C107  C120  S    
O37   Zn2   S    
C95   C104  S    
C103  H25   S    
O9    Zn8   S    
C87   H1    S    
O6    Zn7   S    
C16   H54   S    
O22   Zn9   S    
O7    Zn6   S    
C105  C109  S    
C64   C113  S    
O19   Zn9   S    
C51   O32   A    
C34   C38   T    
C45   O24   A    
C90   C111  S    
O42   Zn4   S    
C120  O52   S    
C53   O41   A    
C14   H51   S    
C78   C82   S    
C19   H64   S    
C12   H48   S    
O4    Zn5   S    
C55   O54   A    
C44   O55   A    
C63   O8    A    
C87   C109  S    
C3    C108  S    
C10   H41   S    
C12   O47   S    
C1    O1    A    
C89   C111  S    
C93   H56   S    
C9    H40   S    
C48   C83   S    
C46   C116  S    
C10   O46   S    
C91   H4    S    
C1    C4    S    
C91   C109  S    
C100  H21   S    
C12   C14   S    
C19   O50   S    
C43   C114  S    
C2    C77   S    
C101  H14   S    
C4    C66   T    
C41   O14   A    
O53   Zn7   S    
C21   H70   S    
O55   Zn7   S    
C47   O26   A    
O31   Zn3   S    
C60   C69   T    
C95   H78   S    
C13   C88   S    
C17   O49   S    
C11   H44   S    
C46   O25   A    
C97   H19   S    
C15   H52   S    
C50   O31   A    
O28   Zn2   S    
C23   C25   S    
C16   H57   S    
C8    H36   S    
O45   Zn6   S    
C62   O3    A    
O8    Zn7   S    
C25   H77   S    
C10   C11   S    
C52   O40   A    
C18   H60   S    
C116  C120  S    
C58   C67   T    
C47   C117  S    
O15   Zn11  S    
C15   O48   S    
O54   Zn6   S    
C93   C102  S    
C23   H74   S    
O17   Zn10  S    
C63   O5    A    
C89   C97   S    
C35   C52   S    
O36   Zn12  S    
C101  C116  S    
C9    H39   S    
C31   C36   T    
C41   O16   A    
C6    C44   S    
O10   Zn9   S    
O40   Zn2   S    
C22   H71   S    
C22   H72   S    
C90   C98   S    
C9    H38   S    
C81   C85   T    
C23   H75   S    
C15   C16   S    
C96   H9    S    
C39   C57   S    
