data_mof_unit_44452.cif
_audit_creation_date              2012-12-10T17:02:18-0500
_audit_creation_method            fapswitch 2.2
_symmetry_space_group_name_H-M    P1
_symmetry_Int_Tables_number       1
_space_group_crystal_system       triclinic
_cell_length_a                    10.654724
_cell_length_b                    10.614861
_cell_length_c                    10.048214
_cell_angle_alpha                 93.205996
_cell_angle_beta                  90.189967
_cell_angle_gamma                 89.798955
_cell_volume                      1134.64592847

loop_
_atom_site_label
_atom_site_type_symbol
_atom_type_description
_atom_site_fract_x
_atom_site_fract_y
_atom_site_fract_z
_atom_type_partial_charge
C1    C     C_R   0.504389 0.262066 0.495431 0.902515
C2    C     C_2   0.511227 0.128312 0.480041 -0.347914
C3    C     C_2   0.600515 0.487495 0.924261 -0.096608
C4    C     C_R   0.260688 0.497314 0.499586 0.893729
C5    C     C_2   0.600454 0.508707 0.073648 -0.118008
C6    C     C_R   0.514140 0.737657 0.504078 0.895352
C7    C     C_R   0.739369 0.496052 0.500150 0.892093
C8    C     C_R   0.133398 0.288920 0.612638 -0.153649
C9    C     C_R   0.069555 0.192770 0.672393 -0.115789
C10   C     C_R   0.939243 0.194546 0.677780 -0.073788
C11   C     C_R   0.872182 0.291670 0.622032 -0.146413
C12   C     C_R   0.067068 0.390114 0.558414 0.048601
C13   C     C_R   0.935517 0.390525 0.561526 0.081006
C14   C     C_2   0.398465 0.426245 0.099153 1.042638
C15   C     C_2   0.637327 0.865794 0.281165 0.991103
C16   C     C_2   0.565610 0.927374 0.657083 0.950926
C17   C     C_2   0.725227 0.127228 0.371992 0.930544
C18   C     C_R   0.128290 0.490053 0.498222 -0.089332
C19   C     C_R   0.062661 0.585408 0.436806 0.088190
C20   C     C_R   0.933998 0.583338 0.437597 -0.247560
C21   C     C_R   0.871659 0.488764 0.500594 -0.125445
C22   C     C_2   0.603723 0.928338 0.412654 -0.121477
C23   C     C_2   0.559944 0.867099 0.518331 -0.317227
C24   C     C_2   0.609798 0.066456 0.422313 -0.002068
H1    H     H_    0.430041 0.078048 0.514827 0.136624
H2    H     H_    0.097812 0.771556 0.424202 0.199904
H3    H     H_    0.099859 0.686408 0.276855 0.229443
H4    H     H_    0.211040 0.412311 0.074803 0.333516
H5    H     H_    0.630803 0.871488 0.080906 0.349832
H6    H     H_    0.659317 0.040938 0.790758 0.351751
H7    H     H_    0.804493 0.269356 0.277464 0.338099
H8    H     H_    0.688794 0.464107 0.875362 0.167469
H9    H     H_    0.424704 0.543810 0.897755 0.187917
H10   H     H_    0.689326 0.532245 0.121487 0.189748
H11   H     H_    0.234510 0.281882 0.608062 0.147457
H12   H     H_    0.121376 0.116205 0.713842 0.160691
H13   H     H_    0.890046 0.119467 0.723771 0.183357
H14   H     H_    0.770969 0.286839 0.625038 0.153209
H15   H     H_    0.882560 0.657909 0.391984 0.207511
N1    N     N_2   0.501340 0.501330 0.852150 -0.176435
N2    N     N_2   0.501380 0.501360 0.147810 -0.156411
N3    N     N_3   0.127130 0.686278 0.376914 -0.415112
O1    O     O_R   0.499980 0.319060 0.613040 -0.610306
O2    O     O_R   0.276583 0.474407 0.110798 -0.805125
O3    O     O_2   0.701496 0.770011 0.275322 -0.651602
O4    O     O_R   0.601052 0.921275 0.164004 -0.768670
O5    O     O_2   0.482100 0.908877 0.736895 -0.592999
O6    O     O_R   0.666654 0.005051 0.695443 -0.814712
O7    O     O_2   0.826376 0.073649 0.382020 -0.619239
O8    O     O_R   0.719227 0.240442 0.308036 -0.769919
O9    O     O_R   0.500020 0.319100 0.386900 -0.559688
O10   O     O_R   0.316750 0.499980 0.613090 -0.623348
O11   O     O_R   0.316790 0.500020 0.386950 -0.577540
O12   O     O_R   0.499980 0.680900 0.613100 -0.580302
O13   O     O_R   0.500020 0.680940 0.386960 -0.585546
O14   O     O_R   0.683210 0.499980 0.613050 -0.644341
O15   O     O_R   0.683250 0.500020 0.386910 -0.580884
O16   O     O_2   0.416167 0.318903 0.051715 -0.606549
Zn1   Zn    Zn3+2 0.499970 0.499970 0.650990 0.987916
Zn2   Zn    Zn3+2 0.500030 0.500030 0.349010 1.052867

loop_
_geom_bond_atom_site_label_1
_geom_bond_atom_site_label_2
_ccdc_geom_bond_type
C17   O8    S    
C9    H12   S    
C19   N3    S    
O10   Zn1   S    
C4    O11   A    
C2    H1    S    
C11   C13   A    
C9    C10   A    
C6    O13   A    
C19   C20   A    
O14   Zn1   S    
O1    Zn1   S    
H5    O4    S    
C8    C12   A    
C4    C18   S    
C5    H10   S    
C16   O6    S    
C13   C21   A    
N1    Zn1   S    
O13   Zn2   S    
C20   C21   A    
C7    O15   A    
C1    O9    A    
H3    N3    S    
C7    O14   A    
C6    O12   A    
C10   H13   S    
C6    C23   S    
C1    C2    S    
C16   O5    D    
H6    O6    S    
O11   Zn2   S    
C1    O1    A    
C3    N1    D    
C4    O10   A    
C16   C23   S    
O12   Zn1   S    
C14   N2    S    
C2    C24   D    
C3    H8    S    
C14   O16   D    
C22   C24   S    
C17   C24   S    
C10   C11   A    
C15   O3    D    
H7    O8    S    
C12   C18   A    
H9    N1    S    
C12   C13   A    
H2    N3    S    
C14   O2    S    
C18   C19   A    
C17   O7    D    
C20   H15   S    
C5    N2    D    
C22   C23   D    
C11   H14   S    
O9    Zn2   S    
C15   O4    S    
C3    C5    S    
C7    C21   S    
H4    O2    S    
C15   C22   S    
N2    Zn2   S    
C8    C9    A    
O15   Zn2   S    
C8    H11   S    
