data_mof_unit_16084.cif
_audit_creation_date              2012-12-10T17:36:50-0500
_audit_creation_method            fapswitch 2.2
_symmetry_space_group_name_H-M    P1
_symmetry_Int_Tables_number       1
_space_group_crystal_system       triclinic
_cell_length_a                    10.647093
_cell_length_b                    12.413378
_cell_length_c                    13.38984
_cell_angle_alpha                 117.118923
_cell_angle_beta                  76.376312
_cell_angle_gamma                 101.286413
_cell_volume                      1522.80878909

loop_
_atom_site_label
_atom_site_type_symbol
_atom_type_description
_atom_site_fract_x
_atom_site_fract_y
_atom_site_fract_z
_atom_type_partial_charge
C1    C     C_R   0.517672 0.854626 0.286715 0.816617
C2    C     C_3   0.017525 0.888648 0.489252 -0.224032
C3    C     C_3   0.962569 0.905689 0.400318 -0.219713
C4    C     C_3   0.876824 0.998943 0.498290 -0.120481
C5    C     C_R   0.588971 0.280499 0.996458 -0.154912
C6    C     C_R   0.495395 0.228593 0.830806 -0.058735
C7    C     C_R   0.466685 0.814946 0.102168 -0.154501
C8    C     C_R   0.444286 0.737276 0.992511 0.475851
C9    C     C_R   0.459264 0.613605 0.947647 -0.248395
C10   C     C_R   0.506173 0.567318 0.009490 0.012457
C11   C     C_R   0.545186 0.651428 0.114879 0.078322
C12   C     C_R   0.739982 0.999931 0.499968 0.831842
C13   C     C_R   0.518634 0.441208 0.969803 0.108362
C14   C     C_R   0.578241 0.404027 0.031827 0.138665
C15   C     C_R   0.631839 0.490825 0.125813 -0.202568
C16   C     C_R   0.617274 0.612988 0.165654 -0.154960
C17   C     C_R   0.475819 0.350679 0.869880 -0.215942
C18   C     C_R   0.547682 0.193095 0.896315 -0.140024
C19   C     C_R   0.515224 0.773345 0.165143 -0.177237
C20   C     C_R   0.716768 0.360405 0.346470 -0.335061
C21   C     C_R   0.311427 0.757866 0.632142 0.087972
C22   C     C_R   0.254876 0.657189 0.650686 -0.186397
C23   C     C_R   0.484740 0.145227 0.712587 0.781147
C24   C     C_R   0.316852 0.550660 0.600937 0.438934
C25   C     C_R   0.445882 0.549240 0.536056 -0.091638
C26   C     C_R   0.493655 0.654467 0.513527 0.256784
C27   C     C_R   0.527926 0.450115 0.485319 0.001000
C28   C     C_R   0.644081 0.458169 0.410086 0.085811
C29   C     C_R   0.685582 0.561430 0.392246 -0.253738
C30   C     C_R   0.609444 0.654805 0.439694 -0.131630
C31   C     C_R   0.506315 0.344809 0.506019 0.053382
C32   C     C_R   0.676083 0.251001 0.353580 0.605991
C33   C     C_R   0.260395 0.997577 0.496678 0.825466
C34   C     C_3   0.981515 0.105406 0.502770 -0.139533
C35   C     C_3   0.069165 0.011452 0.406065 0.489973
C36   C     C_3   0.123523 0.994363 0.493685 -0.125591
C37   C     C_3   0.034522 0.084513 0.589320 0.109109
C38   C     C_3   0.928248 0.981016 0.587200 -0.116366
Cu1   Cu    Cu3+1 0.529830 0.098270 0.475420 1.064474
Cu2   Cu    Cu3+1 0.470170 0.901730 0.524580 0.966195
H1    H     H_    0.430716 0.372524 0.818255 0.173495
H2    H     H_    0.442978 0.907699 0.139603 0.244542
H3    H     H_    0.436937 0.557138 0.863423 0.190962
H4    H     H_    0.667277 0.678514 0.233542 0.123839
H5    H     H_    0.775648 0.568088 0.336071 0.146536
H6    H     H_    0.799972 0.367318 0.284218 0.192655
H7    H     H_    0.438878 0.340328 0.577205 0.210707
H8    H     H_    0.260064 0.838072 0.670573 0.160075
H9    H     H_    0.965730 0.194360 0.509348 0.224630
H10   H     H_    0.159790 0.662708 0.703060 0.195791
H11   H     H_    0.641114 0.723912 0.411602 0.187192
H12   H     H_    0.868275 0.970562 0.662827 0.174075
H13   H     H_    0.033727 0.800008 0.483121 0.181311
H14   H     H_    0.929595 0.832028 0.321967 0.164463
H15   H     H_    0.564607 0.099213 0.866357 0.208614
H16   H     H_    0.686958 0.463504 0.167090 0.150269
H17   H     H_    0.633893 0.252043 0.044101 0.184646
N1    N     N_R   0.575030 0.246270 0.438190 -0.253410
N2    N     N_R   0.425760 0.754330 0.561190 -0.216290
O1    O     O_R   0.537510 0.972500 0.318130 -0.497635
O2    O     O_R   0.487140 0.806530 0.359650 -0.605738
O3    O     O_R   0.708330 0.082950 0.479220 -0.532515
O4    O     O_R   0.657960 0.916980 0.520740 -0.614149
O5    O     O_R   0.512860 0.193470 0.640350 -0.604082
O6    O     O_R   0.462490 0.027500 0.681870 -0.566947
O7    O     O_R   0.342040 0.083020 0.479260 -0.521797
O8    O     O_R   0.291670 0.917050 0.520780 -0.605867
S1    S     S_3+6 0.156505 0.023390 0.279402 0.014300
O9    O     O_2   0.286744 0.095033 0.298126 -0.253536
O10   O     O_2   0.174772 0.897557 0.186607 -0.335114
O11   O     O_3   0.070268 0.093475 0.240619 -0.453051
H18   H     H_    0.118970 0.089173 0.166310 0.382883
S2    S     S_3+6 0.394013 0.794579 0.911864 0.022945
O12   O     O_2   0.475169 0.749063 0.795279 -0.298317
O13   O     O_2   0.253841 0.749282 0.901960 -0.291253
O14   O     O_3   0.412024 0.947722 0.972572 -0.508556
H19   H     H_    0.328903 0.972467 0.024223 0.383483
S3    S     S_3+6 0.745485 0.122510 0.236148 0.050587
O15   O     O_2   0.647052 0.057066 0.158343 -0.295106
O16   O     O_2   0.863247 0.164621 0.170478 -0.289483
O17   O     O_3   0.792120 0.024652 0.271320 -0.498305
H20   H     H_    0.813444 0.952877 0.198318 0.368490
S4    S     S_3+6 0.217202 0.426069 0.617993 -0.046178
O18   O     O_2   0.234952 0.310078 0.511294 -0.256454
O19   O     O_2   0.251325 0.414895 0.715390 -0.390001
O20   O     O_3   0.059252 0.449530 0.648583 -0.543933
H21   H     H_    0.035208 0.479722 0.732277 0.365592
N3    N     N_3   0.072146 0.177906 0.695861 -0.543579
H22   H     H_    0.022550 0.253294 0.720874 0.268369
H23   H     H_    0.171253 0.203993 0.680214 0.273942

loop_
_geom_bond_atom_site_label_1
_geom_bond_atom_site_label_2
_ccdc_geom_bond_type
C30   H11   S    
C34   C37   S    
S2    O12   D    
C37   N3    S    
C35   C36   S    
C32   N1    A    
O17   H20   S    
C7    C8    A    
Cu1   O5    S    
C11   C19   A    
C29   C30   A    
Cu2   O4    S    
C31   N1    A    
C28   C29   A    
C24   S4    S    
C21   N2    A    
C3    H14   S    
S3    O16   D    
C38   H12   S    
Cu1   O1    S    
C15   C16   A    
C33   C36   S    
C34   C35   S    
C7    H2    S    
C6    C17   A    
S1    O9    D    
Cu2   O8    S    
C4    C12   S    
C9    C10   A    
C16   H4    S    
C22   H10   S    
C21   H8    S    
Cu2   N2    S    
C31   H7    S    
C21   C22   A    
S2    O13   D    
C33   O7    A    
C6    C18   A    
C4    C34   S    
C9    H3    S    
C1    C19   S    
C27   C31   A    
C24   C25   A    
C1    O1    A    
Cu1   Cu2   S    
C12   O4    A    
S3    O15   D    
C8    C9    A    
C5    C18   A    
C20   C28   A    
C25   C26   A    
Cu1   N1    S    
C10   C13   A    
Cu2   O2    S    
C29   H5    S    
C37   C38   S    
C12   O3    A    
C11   C16   A    
C2    C38   S    
S4    O18   D    
C3    C35   S    
O14   H19   S    
C5    C14   A    
C18   H15   S    
C23   O5    A    
S4    O19   D    
N3    H23   S    
C26   C30   A    
C7    C19   A    
Cu2   O6    S    
Cu1   O7    S    
C22   C24   A    
C3    C4    S    
C33   O8    A    
C20   C32   A    
C2    C36   S    
Cu1   O3    S    
C36   C37   S    
C34   H9    S    
O20   H21   S    
C4    C38   S    
C2    H13   S    
C1    O2    A    
C5    H17   S    
C25   C27   A    
C13   C17   A    
C15   H16   S    
C23   O6    A    
C2    C3    S    
O11   H18   S    
S3    O17   S    
C35   S1    S    
S1    O11   S    
C6    C23   S    
C8    S2    S    
S2    O14   S    
C17   H1    S    
C10   C11   A    
C32   S3    S    
S4    O20   S    
N3    H22   S    
S1    O10   D    
C27   C28   A    
C14   C15   A    
C26   N2    A    
C13   C14   A    
C20   H6    S    
