data_mof_unit_24819.cif
_audit_creation_date              2012-12-10T18:42:34-0500
_audit_creation_method            fapswitch 2.2
_symmetry_space_group_name_H-M    P1
_symmetry_Int_Tables_number       1
_space_group_crystal_system       triclinic
_cell_length_a                    8.628559
_cell_length_b                    10.748611
_cell_length_c                    9.856415
_cell_angle_alpha                 90.414022
_cell_angle_beta                  97.290315
_cell_angle_gamma                 89.592307
_cell_volume                      906.702129187

loop_
_atom_site_label
_atom_site_type_symbol
_atom_type_description
_atom_site_fract_x
_atom_site_fract_y
_atom_site_fract_z
_atom_type_partial_charge
C1    C     C_R   0.505149 0.260078 0.499952 0.913011
C2    C     C_R   0.480893 0.067149 0.618612 -0.383513
C3    C     C_R   0.508765 0.872885 0.505173 -0.182001
C4    C     C_R   0.511698 0.127657 0.500256 -0.177436
C5    C     C_R   0.622176 0.551039 0.086140 0.535031
C6    C     C_R   0.378014 0.448390 0.913629 0.554973
C7    C     C_R   0.622072 0.548816 0.941406 -0.299836
C8    C     C_R   0.377501 0.451779 0.058465 -0.314165
C9    C     C_1   0.980935 0.387232 0.345218 0.263381
C10   C     C_1   0.016930 0.609256 0.654887 0.258218
C11   C     C_3   0.521570 0.114427 0.159164 0.109455
C12   C     C_R   0.502625 0.740170 0.501429 0.900516
C13   C     C_3   0.607697 0.168194 0.047713 -0.773007
C14   C     C_3   0.338182 0.906024 0.803538 0.106537
C15   C     C_3   0.328049 0.819982 0.924018 -0.776378
C16   C     C_3   0.794409 0.713923 0.136234 0.090604
C17   C     C_3   0.900161 0.770417 0.255872 -0.800343
C18   C     C_3   0.192082 0.290826 0.866535 0.057849
C19   C     C_3   0.025763 0.308800 0.900209 -0.816901
C20   C     C_R   0.202234 0.497319 0.465689 0.881930
C21   C     C_R   0.797667 0.500828 0.534213 0.891470
C22   C     C_2   0.041082 0.475560 0.451714 -0.236048
C23   C     C_2   0.958636 0.521128 0.548225 -0.229894
C24   C     C_R   0.550996 0.061674 0.385992 0.483720
C25   C     C_R   0.480526 0.939174 0.623613 0.490589
C26   C     C_R   0.547240 0.933595 0.389244 -0.379668
H1    H     H_    0.580982 0.881595 0.303167 0.186800
H2    H     H_    0.233778 0.891209 0.726431 0.145584
H3    H     H_    0.337435 0.002982 0.843072 0.106967
H4    H     H_    0.218517 0.838668 0.969072 0.203273
H5    H     H_    0.329818 0.721567 0.889920 0.273596
H6    H     H_    0.429188 0.834797 0.003551 0.220351
H7    H     H_    0.691192 0.776391 0.111901 0.129983
H8    H     H_    0.861879 0.709038 0.047491 0.147034
H9    H     H_    0.009287 0.714575 0.276781 0.248824
H10   H     H_    0.930744 0.867119 0.231140 0.213053
H11   H     H_    0.839992 0.771889 0.349020 0.254506
H12   H     H_    0.462313 0.119587 0.709111 0.175317
H13   H     H_    0.264958 0.244567 0.953133 0.095896
H14   H     H_    0.188288 0.225272 0.778563 0.158972
H15   H     H_    0.949465 0.343423 0.808887 0.267994
H16   H     H_    0.979401 0.218749 0.931492 0.212899
H17   H     H_    0.023306 0.377128 0.984866 0.257560
H18   H     H_    0.720136 0.584558 0.896094 0.179219
H19   H     H_    0.279297 0.416133 0.103695 0.180893
H20   H     H_    0.413076 0.169661 0.165159 0.140133
H21   H     H_    0.489500 0.017196 0.129726 0.118844
H22   H     H_    0.713817 0.111652 0.037226 0.252415
H23   H     H_    0.531066 0.167478 0.948608 0.182368
H24   H     H_    0.643010 0.265425 0.073652 0.263482
N1    N     N_R   0.499960 0.499970 0.857200 -0.133272
N2    N     N_R   0.500040 0.500030 0.142800 -0.127873
N3    N     N_1   0.933622 0.316962 0.260731 -0.182240
N4    N     N_1   0.060526 0.679519 0.740291 -0.228475
O1    O     O_R   0.499990 0.316750 0.614620 -0.625059
O2    O     O_3   0.477640 0.879156 0.747723 -0.588877
O3    O     O_3   0.750148 0.593652 0.172760 -0.579210
O4    O     O_3   0.250647 0.405613 0.825945 -0.574296
O5    O     O_R   0.500010 0.683250 0.385380 -0.622942
O6    O     O_R   0.499990 0.316780 0.385290 -0.589373
O7    O     O_R   0.500010 0.683220 0.614710 -0.561661
O8    O     O_R   0.271750 0.499990 0.587840 -0.552876
O9    O     O_R   0.728250 0.500010 0.412160 -0.544809
O10   O     O_R   0.271750 0.500010 0.358510 -0.640050
O11   O     O_R   0.728250 0.499990 0.641490 -0.641334
O12   O     O_3   0.620008 0.120871 0.284726 -0.584151
Zn1   Zn    Zn3+2 0.500000 0.499980 0.653120 0.997803
Zn2   Zn    Zn3+2 0.500000 0.500020 0.346880 0.994644

loop_
_geom_bond_atom_site_label_1
_geom_bond_atom_site_label_2
_ccdc_geom_bond_type
C20   O10   A    
C13   H22   S    
O1    Zn1   S    
C18   H13   S    
C11   O12   S    
C5    N2    A    
C15   H5    S    
C17   H10   S    
C5    O3    S    
C10   C23   S    
C17   H9    S    
C14   O2    S    
C2    H12   S    
C11   H21   S    
N2    Zn2   S    
C19   H16   S    
C24   O12   S    
C1    C4    S    
C14   H2    S    
C6    C8    A    
C1    O1    A    
C7    N1    A    
C15   H6    S    
N1    Zn1   S    
C7    H18   S    
C12   O7    A    
C11   C13   S    
C24   C26   A    
C26   H1    S    
O8    Zn1   S    
C4    C24   A    
C2    C4    A    
O10   Zn2   S    
C19   H17   S    
C2    C25   A    
C16   O3    S    
C21   C23   S    
C20   O8    A    
C16   H7    S    
C25   O2    S    
C13   H23   S    
C9    C22   S    
C21   O9    A    
C9    N3    T    
C10   N4    T    
C13   H24   S    
C19   H15   S    
C8    N2    A    
C3    C25   A    
C18   H14   S    
O7    Zn1   S    
O6    Zn2   S    
C15   H4    S    
C18   C19   S    
C1    O6    A    
C5    C7    A    
O5    Zn2   S    
C6    O4    S    
C14   C15   S    
C11   H20   S    
C17   H11   S    
C3    C12   S    
C14   H3    S    
C16   H8    S    
O9    Zn2   S    
C22   C23   D    
C12   O5    A    
C21   O11   A    
C18   O4    S    
C3    C26   A    
C8    H19   S    
C20   C22   S    
C16   C17   S    
O11   Zn1   S    
C6    N1    A    
