data_mof_unit_16455.cif
_audit_creation_date              2012-12-10T17:21:39-0500
_audit_creation_method            fapswitch 2.2
_symmetry_space_group_name_H-M    P1
_symmetry_Int_Tables_number       1
_space_group_crystal_system       triclinic
_cell_length_a                    10.832556
_cell_length_b                    10.8627
_cell_length_c                    9.65036
_cell_angle_alpha                 90.093477
_cell_angle_beta                  89.393275
_cell_angle_gamma                 94.269741
_cell_volume                      1132.35008684

loop_
_atom_site_label
_atom_site_type_symbol
_atom_type_description
_atom_site_fract_x
_atom_site_fract_y
_atom_site_fract_z
_atom_type_partial_charge
C1    C     C_R   0.512383 0.263725 0.499589 0.812211
C2    C     C_3   0.877787 0.492345 0.499368 -0.153316
C3    C     C_3   0.937253 0.625956 0.524891 0.027848
C4    C     C_3   0.928085 0.447916 0.352972 0.696130
C5    C     C_R   0.581779 0.119368 0.746928 -0.213222
C6    C     C_R   0.565892 0.059330 0.873327 -0.219898
C7    C     C_R   0.491987 0.949090 0.883517 0.427639
C8    C     C_R   0.447775 0.890443 0.761446 0.329508
C9    C     C_R   0.486937 0.940149 0.629890 -0.070854
C10   C     C_R   0.532240 0.064797 0.625273 0.031088
C11   C     C_R   0.528426 0.129724 0.498764 -0.059599
C12   C     C_R   0.260067 0.494318 0.500593 0.869351
C13   C     C_R   0.519883 0.061923 0.373609 -0.021966
C14   C     C_R   0.500100 0.934450 0.377774 -0.247392
C15   C     C_R   0.485372 0.871795 0.503896 -0.118891
C16   C     C_R   0.656781 0.689367 0.132424 0.369833
C17   C     C_R   0.712586 0.786056 0.049137 0.342803
C18   C     C_R   0.717438 0.771927 0.908793 -0.222164
C19   C     C_R   0.654533 0.672378 0.847966 -0.170661
C20   C     C_R   0.575983 0.586722 0.922707 0.155567
C21   C     C_R   0.576263 0.590279 0.072062 0.067024
C22   C     C_R   0.426623 0.417099 0.075213 0.514285
C23   C     C_R   0.492286 0.737092 0.500995 0.787564
C24   C     C_R   0.427253 0.417782 0.926738 -0.120758
C25   C     C_R   0.739493 0.495854 0.499374 0.958040
C26   C     C_3   0.062010 0.388626 0.599537 0.053609
C27   C     C_3   0.919235 0.400789 0.616830 0.256952
C28   C     C_3   0.080304 0.624645 0.540229 0.639228
C29   C     C_3   0.072465 0.459185 0.353717 -0.610801
C30   C     C_3   0.121898 0.492795 0.501349 -0.141786
Cu1   Cu    Cu3+1 0.499990 0.499990 0.640660 1.014773
Cu2   Cu    Cu3+1 0.500010 0.500010 0.359340 1.080829
H1    H     H_    0.917981 0.682468 0.432920 0.144042
H2    H     H_    0.636663 0.206619 0.744726 0.244781
H3    H     H_    0.607551 0.101900 0.964029 0.221530
H4    H     H_    0.499861 0.883646 0.281144 0.201574
H5    H     H_    0.074028 0.299573 0.545340 0.202890
H6    H     H_    0.768499 0.840811 0.845223 0.197038
H7    H     H_    0.668218 0.669891 0.740011 0.251579
H8    H     H_    0.367791 0.350737 0.870994 0.162800
H9    H     H_    0.110484 0.529351 0.277711 0.234569
H10   H     H_    0.108454 0.370776 0.318509 0.215420
N1    N     N_R   0.501200 0.501210 0.147910 -0.173616
N2    N     N_R   0.501250 0.501290 0.852040 -0.183855
O1    O     O_R   0.499990 0.319640 0.618810 -0.600368
O2    O     O_R   0.500000 0.319660 0.381240 -0.517755
O3    O     O_R   0.317680 0.499970 0.618790 -0.528312
O4    O     O_R   0.317700 0.499990 0.381210 -0.568005
O5    O     O_R   0.500000 0.680340 0.618760 -0.588209
O6    O     O_R   0.500010 0.680360 0.381190 -0.541013
O7    O     O_R   0.682300 0.500010 0.618790 -0.592686
O8    O     O_R   0.682320 0.500030 0.381210 -0.468876
O9    O     O_3   0.122514 0.376085 0.727049 -0.730231
H11   H     H_    0.129654 0.456732 0.774840 0.376198
O10   O     O_3   0.884104 0.516634 0.241458 -0.689222
H12   H     H_    0.933262 0.596841 0.232276 0.308569
O11   O     O_3   0.136143 0.714027 0.448296 -0.771689
H13   H     H_    0.224389 0.729314 0.473466 0.311904
C31   C     C_2   0.539272 0.118937 0.236045 0.445976
H14   H     H_    0.471721 0.098884 0.155739 0.108075
O12   O     O_2   0.631908 0.186755 0.211319 -0.489032
O13   O     O_3   0.464600 0.901877 0.013811 -0.782781
H15   H     H_    0.418992 0.819799 0.005848 0.361269
O14   O     O_3   0.357696 0.794598 0.774336 -0.705627
H16   H     H_    0.313109 0.787382 0.685678 0.336314
O15   O     O_3   0.350025 0.332940 0.148374 -0.718713
H17   H     H_    0.302344 0.278747 0.082083 0.299574
O16   O     O_3   0.691953 0.689103 0.267557 -0.688221
H18   H     H_    0.771851 0.737866 0.280839 0.310596
O17   O     O_3   0.768757 0.893504 0.103397 -0.701026
H19   H     H_    0.727306 0.911173 0.192513 0.338985
O18   O     O_3   0.855614 0.283856 0.596415 -0.691224
H20   H     H_    0.888841 0.224662 0.662321 0.353042
C32   C     C_2   0.888595 0.444585 0.763495 0.516246
H21   H     H_    0.934912 0.527657 0.806190 0.135833
O19   O     O_2   0.813232 0.385437 0.836960 -0.528908
O20   O     O_3   0.115076 0.654434 0.677268 -0.746695
H22   H     H_    0.102594 0.743099 0.692387 0.359531
O21   O     O_3   0.882914 0.682037 0.639479 -0.779168
H23   H     H_    0.895313 0.772807 0.626234 0.335460
O22   O     O_3   0.886211 0.323446 0.332221 -0.623973
H24   H     H_    0.908443 0.301020 0.235767 0.372436

loop_
_geom_bond_atom_site_label_1
_geom_bond_atom_site_label_2
_ccdc_geom_bond_type
C8    C9    A    
O10   H12   S    
C16   C21   A    
C29   H10   S    
C19   C20   A    
C1    C11   S    
C12   O4    A    
C3    O21   S    
O22   H24   S    
C7    C8    A    
O9    H11   S    
C26   C27   S    
C29   C30   S    
C32   O19   D    
C3    C28   S    
C14   H4    S    
C5    C6    A    
C1    O2    A    
C23   O5    A    
C3    H1    S    
C6    H3    S    
C18   C19   A    
Cu2   O8    S    
C21   N1    A    
C22   O15   S    
C4    O22   S    
Cu1   Cu2   S    
O16   H18   S    
C2    C27   S    
C16   O16   S    
C27   C32   S    
C9    C10   A    
C4    C29   S    
C12   C30   S    
C15   C23   S    
O15   H17   S    
C17   O17   S    
Cu1   O3    S    
C13   C14   A    
Cu2   O4    S    
Cu1   O5    S    
C12   O3    A    
C20   N2    A    
C31   O12   D    
C32   H21   S    
Cu1   N2    S    
C16   C17   A    
C23   O6    A    
O20   H22   S    
C2    C4    S    
C25   O7    A    
C7    O13   S    
O13   H15   S    
C22   N1    A    
C5    H2    S    
C17   C18   A    
C28   O20   S    
Cu2   O6    S    
O17   H19   S    
C19   H7    S    
C8    O14   S    
C26   C30   S    
C4    O10   S    
C24   N2    A    
C22   C24   A    
C26   O9    S    
C29   H9    S    
Cu2   O2    S    
Cu1   O7    S    
O18   H20   S    
C26   H5    S    
C6    C7    A    
C13   C31   S    
O14   H16   S    
C28   C30   S    
C2    C3    S    
C18   H6    S    
C25   O8    A    
C5    C10   A    
C11   C13   A    
C1    O1    A    
O11   H13   S    
C24   H8    S    
Cu2   N1    S    
C2    C25   S    
C9    C15   A    
C10   C11   A    
O21   H23   S    
C31   H14   S    
C20   C21   A    
C28   O11   S    
Cu1   O1    S    
C14   C15   A    
C27   O18   S    
