data_mof_unit_33936.cif
_audit_creation_date              2013-03-05T15:48:34-0500
_audit_creation_method            fapswitch 2.2
_symmetry_space_group_name_H-M    P1
_symmetry_Int_Tables_number       1
_space_group_crystal_system       triclinic
_cell_length_a                    16.663803
_cell_length_b                    16.605568
_cell_length_c                    43.126194
_cell_angle_alpha                 89.966823
_cell_angle_beta                  89.772463
_cell_angle_gamma                 119.913702
_cell_volume                      10343.5902517

loop_
_atom_site_label
_atom_site_type_symbol
_atom_site_description
_atom_site_fract_x
_atom_site_fract_y
_atom_site_fract_z
_atom_type_partial_charge
O1    O     O_R   0.509640 0.171340 0.784000 -0.507466
O2    O     O_R   0.661700 0.490360 0.716000 -0.511289
O3    O     O_R   0.828660 0.338300 0.784000 -0.511824
O4    O     O_R   0.509640 0.171340 0.716000 -0.506323
O5    O     O_R   0.661700 0.490360 0.784000 -0.513502
O6    O     O_R   0.828660 0.338300 0.716000 -0.512379
O7    O     O_R   0.171340 0.509640 0.284000 -0.513049
O8    O     O_R   0.490360 0.661700 0.216000 -0.508109
O9    O     O_R   0.338300 0.828660 0.284000 -0.507570
O10   O     O_R   0.171340 0.509640 0.216000 -0.513140
O11   O     O_R   0.490360 0.661700 0.284000 -0.504840
O12   O     O_R   0.338300 0.828660 0.216000 -0.497965
O13   O     O_R   0.539230 0.345420 0.781810 -0.495466
O14   O     O_R   0.806190 0.460770 0.718190 -0.495149
O15   O     O_R   0.654580 0.193810 0.781810 -0.496544
O16   O     O_R   0.539230 0.345420 0.718190 -0.495259
O17   O     O_R   0.806190 0.460770 0.781810 -0.497667
O18   O     O_R   0.654580 0.193810 0.718190 -0.495302
O19   O     O_R   0.345420 0.539230 0.281810 -0.498547
O20   O     O_R   0.460770 0.806190 0.218190 -0.493310
O21   O     O_R   0.193810 0.654580 0.281810 -0.500081
O22   O     O_R   0.345420 0.539230 0.218190 -0.498746
O23   O     O_R   0.460770 0.806190 0.281810 -0.490538
O24   O     O_R   0.193810 0.654580 0.218190 -0.494019
C1    C     C_R   0.583942 0.426077 0.794691 0.551110
C2    C     C_R   0.842506 0.416314 0.705341 0.544268
C3    C     C_R   0.574242 0.158611 0.794728 0.548630
C4    C     C_R   0.584464 0.426277 0.705317 0.552705
C5    C     C_R   0.841292 0.415529 0.794866 0.548078
C6    C     C_R   0.574406 0.158426 0.705355 0.549086
C7    C     C_R   0.425564 0.583882 0.294716 0.551465
C8    C     C_R   0.416574 0.842932 0.205742 0.541655
C9    C     C_R   0.157690 0.573774 0.294690 0.548807
C10   C     C_R   0.426231 0.584060 0.205331 0.545309
C11   C     C_R   0.415513 0.841780 0.294498 0.543227
C12   C     C_R   0.157805 0.573860 0.205343 0.549196
Cr1   Cr    Cr6+3 0.530290 0.262330 0.750000 1.029881
Cr2   Cr    Cr6+3 0.732040 0.469710 0.750000 1.026729
Cr3   Cr    Cr6+3 0.737670 0.267960 0.750000 1.036754
Cr4   Cr    Cr6+3 0.262330 0.530290 0.250000 1.023434
Cr5   Cr    Cr6+3 0.469710 0.732040 0.250000 1.036529
Cr6   Cr    Cr6+3 0.267960 0.737670 0.250000 1.031114
O25   O     O_3   0.666667 0.333333 0.750000 -0.240205
O26   O     O_3   0.333333 0.666667 0.250000 -0.241747
C13   C     C_R   0.884819 0.445379 0.825711 0.001937
C14   C     C_R   0.563410 0.117495 0.674377 0.007273
C15   C     C_R   0.550138 0.441586 0.824591 0.005459
C16   C     C_R   0.891986 0.450393 0.675429 -0.015638
C17   C     C_R   0.562328 0.116567 0.825626 0.007400
C18   C     C_R   0.553651 0.441939 0.675014 0.005307
C19   C     C_R   0.440369 0.879013 0.325882 0.017957
C20   C     C_R   0.107056 0.557274 0.175801 0.002820
C21   C     C_R   0.437788 0.551275 0.325230 0.003645
C22   C     C_R   0.446151 0.884141 0.174956 0.015440
C23   C     C_R   0.108581 0.557850 0.324665 0.004693
C24   C     C_R   0.441920 0.551925 0.175149 -0.000020
C25   C     C_R   0.062903 0.586277 0.030899 0.044764
C26   C     C_R   0.560111 0.961078 0.469067 0.051619
C27   C     C_R   0.486818 0.432098 0.035190 0.046108
C28   C     C_R   0.089690 0.547351 0.471098 0.053440
C29   C     C_R   0.574321 0.985843 0.032861 0.061612
C30   C     C_R   0.489674 0.434949 0.464305 0.086048
C31   C     C_R   0.562761 0.983699 0.533696 0.072748
C32   C     C_R   0.036498 0.566787 0.966346 0.040534
C33   C     C_R   0.496618 0.412250 0.528620 0.065723
C34   C     C_R   0.576266 0.000813 0.967905 0.055793
C35   C     C_R   0.066030 0.542214 0.535844 0.038746
C36   C     C_R   0.495078 0.414649 0.970557 0.052425
C37   C     C_R   0.078205 0.594891 0.062952 0.472596
C38   C     C_R   0.554335 0.944615 0.437103 0.453874
C39   C     C_R   0.483092 0.440560 0.067430 0.469063
C40   C     C_R   0.102099 0.549861 0.438912 0.468381
C41   C     C_R   0.571261 0.974971 0.065113 0.460912
C42   C     C_R   0.485587 0.445350 0.432225 0.483543
C43   C     C_R   0.564253 0.994883 0.565909 0.487833
C44   C     C_R   0.024423 0.557066 0.934135 0.463270
C45   C     C_R   0.503945 0.403131 0.560585 0.463853
C46   C     C_R   0.576902 0.007294 0.935512 0.458716
C47   C     C_R   0.053991 0.537639 0.568128 0.415383
C48   C     C_R   0.500874 0.406343 0.938427 0.475154
O27   O     O_2   0.151353 0.657349 0.073104 -0.486498
O28   O     O_2   0.590879 0.903487 0.425598 -0.512881
O29   O     O_2   0.495881 0.389605 0.084692 -0.496327
O30   O     O_2   0.175654 0.562948 0.428080 -0.474624
O31   O     O_2   0.623521 0.953564 0.077803 -0.496837
O32   O     O_2   0.503367 0.399152 0.414350 -0.496965
O33   O     O_2   0.599329 0.961136 0.582484 -0.469695
O34   O     O_2   0.085204 0.612087 0.916702 -0.488852
O35   O     O_2   0.525397 0.347424 0.570492 -0.472177
O36   O     O_2   0.621586 0.981649 0.919996 -0.486691
O37   O     O_2   0.118344 0.552253 0.585170 -0.500324
O38   O     O_2   0.519681 0.349267 0.927926 -0.460305
N1    N     N_R   0.011956 0.532413 0.083057 -0.353205
N2    N     N_R   0.504963 0.971983 0.418749 -0.359623
N3    N     N_R   0.465373 0.506453 0.079723 -0.352363
N4    N     N_R   0.031788 0.537692 0.419386 -0.359408
N5    N     N_R   0.508044 0.986027 0.082537 -0.348369
N6    N     N_R   0.459942 0.506387 0.420778 -0.356911
N7    N     N_R   0.528622 0.046191 0.578882 -0.371141
N8    N     N_R   0.944330 0.485574 0.922050 -0.352421
N9    N     N_R   0.489207 0.458304 0.580886 -0.360771
N10   N     N_R   0.528231 0.043471 0.921096 -0.354756
N11   N     N_R   0.969189 0.514705 0.580706 -0.399200
N12   N     N_R   0.486658 0.463004 0.918608 -0.357408
C49   C     C_R   0.929389 0.460330 0.072202 0.443547
C50   C     C_R   0.466519 0.022339 0.430652 0.456619
C51   C     C_R   0.449402 0.564346 0.060955 0.444813
C52   C     C_R   0.949096 0.525674 0.430833 0.454896
C53   C     C_R   0.450547 0.013474 0.068912 0.465463
C54   C     C_R   0.441015 0.560882 0.440230 0.447908
C55   C     C_R   0.484654 0.081295 0.560939 0.469662
C56   C     C_R   0.873884 0.422897 0.941092 0.446425
C57   C     C_R   0.461988 0.519668 0.570635 0.462065
C58   C     C_R   0.476793 0.072339 0.938151 0.466491
C59   C     C_R   0.897021 0.503772 0.562139 0.426828
C60   C     C_R   0.467021 0.529200 0.929765 0.443286
O39   O     O_2   0.873212 0.406514 0.090980 -0.499528
O40   O     O_2   0.427554 0.048945 0.412931 -0.506753
O41   O     O_2   0.428975 0.618119 0.073130 -0.528359
O42   O     O_2   0.890740 0.519659 0.412496 -0.498804
O43   O     O_2   0.391884 0.017147 0.084930 -0.501355
O44   O     O_2   0.413284 0.609932 0.428917 -0.483141
O45   O     O_2   0.460541 0.132440 0.572978 -0.438654
O46   O     O_2   0.801777 0.364467 0.929203 -0.524543
O47   O     O_2   0.445771 0.563697 0.589850 -0.500420
O48   O     O_2   0.443411 0.113699 0.924890 -0.492556
O49   O     O_2   0.823711 0.485591 0.574426 -0.499143
O50   O     O_2   0.456249 0.578422 0.911176 -0.504064
C61   C     C_R   0.910675 0.448150 0.039721 -0.008701
C62   C     C_R   0.469124 0.039651 0.463055 0.018197
C63   C     C_R   0.455301 0.560559 0.028082 0.000168
C64   C     C_R   0.932385 0.520705 0.463429 0.004273
C65   C     C_R   0.457130 0.033740 0.036567 0.006254
C66   C     C_R   0.450737 0.557729 0.472904 -0.012198
C67   C     C_R   0.471623 0.061969 0.528692 0.018555
C68   C     C_R   0.884534 0.427188 0.973957 -0.000218
C69   C     C_R   0.455629 0.533181 0.538293 0.007252
C70   C     C_R   0.465246 0.056787 0.970739 0.013572
C71   C     C_R   0.907165 0.511887 0.529276 0.006419
C72   C     C_R   0.460615 0.540628 0.962305 -0.007411
C73   C     C_R   0.979548 0.511941 0.019068 -0.041285
C74   C     C_R   0.515097 0.006295 0.482297 -0.022311
C75   C     C_R   0.472517 0.491966 0.015324 -0.036438
C76   C     C_R   0.004587 0.532582 0.483549 -0.039651
C77   C     C_R   0.516981 0.015159 0.018408 -0.009931
C78   C     C_R   0.471163 0.490519 0.484838 -0.019066
C79   C     C_R   0.516468 0.017611 0.514889 -0.040308
C80   C     C_R   0.966478 0.501726 0.986459 -0.037714
C81   C     C_R   0.474192 0.478751 0.517292 -0.014414
C82   C     C_R   0.519318 0.024430 0.985679 -0.016533
C83   C     C_R   0.992322 0.528967 0.516232 -0.041280
C84   C     C_R   0.475738 0.482501 0.982690 -0.040589
C85   C     C_R   0.130703 0.649950 0.010486 -0.081327
C86   C     C_R   0.607129 0.929881 0.488137 -0.115216
C87   C     C_R   0.505148 0.365114 0.022526 -0.097070
C88   C     C_R   0.160869 0.558546 0.490997 -0.068759
C89   C     C_R   0.631977 0.965310 0.014792 -0.106455
C90   C     C_R   0.511774 0.369799 0.476144 -0.107581
C91   C     C_R   0.608055 0.940631 0.519988 -0.054714
C92   C     C_R   0.117744 0.640343 0.978726 -0.100698
C93   C     C_R   0.514807 0.358359 0.507807 -0.143527
C94   C     C_R   0.631996 0.971470 0.982776 -0.084204
C95   C     C_R   0.149721 0.557264 0.522865 -0.093249
C96   C     C_R   0.509696 0.356928 0.990717 -0.056661
C97   C     C_R   0.828020 0.372750 0.027221 -0.003719
C98   C     C_R   0.422003 0.082547 0.477001 -0.033682
C99   C     C_R   0.442675 0.621123 0.007715 0.008512
C100  C     C_R   0.847142 0.505426 0.476506 0.001383
C101  C     C_R   0.402149 0.066088 0.021633 -0.002173
C102  C     C_R   0.438658 0.617448 0.493843 -0.022838
C103  C     C_R   0.419132 0.088953 0.509738 -0.009735
C104  C     C_R   0.815853 0.361284 0.994582 0.010960
C105  C     C_R   0.437439 0.602678 0.526350 -0.006644
C106  C     C_R   0.404669 0.075661 0.988830 -0.004160
C107  C     C_R   0.835207 0.502328 0.509151 0.001636
C108  C     C_R   0.443469 0.610000 0.975078 -0.001788
C109  C     C_R   0.045004 0.611711 0.134604 0.054803
C110  C     C_R   0.393198 0.865272 0.380007 0.049272
C111  C     C_R   0.539659 0.584615 0.129133 0.047212
C112  C     C_R   0.045800 0.462708 0.371350 0.050278
C113  C     C_R   0.506707 0.016206 0.139538 0.060463
C114  C     C_R   0.365851 0.463942 0.372708 0.054766
C115  C     C_R   0.631429 0.130421 0.623173 0.057155
C116  C     C_R   0.944780 0.409690 0.872282 0.046411
C117  C     C_R   0.595966 0.525220 0.625576 0.048258
C118  C     C_R   0.462437 0.018813 0.867554 0.057381
C119  C     C_R   0.947076 0.416611 0.627187 0.041924
C120  C     C_R   0.439711 0.380830 0.867722 0.056744
C121  C     C_R   0.082706 0.621504 0.164417 -0.169674
C122  C     C_R   0.372450 0.838765 0.349062 -0.154565
C123  C     C_R   0.528326 0.601859 0.160206 -0.169517
C124  C     C_R   0.077312 0.473434 0.340617 -0.171413
C125  C     C_R   0.480831 0.979056 0.169649 -0.173698
C126  C     C_R   0.359978 0.483017 0.341418 -0.170531
C127  C     C_R   0.641121 0.151671 0.654781 -0.161740
C128  C     C_R   0.920383 0.394876 0.840838 -0.176508
C129  C     C_R   0.615723 0.517538 0.656581 -0.162567
C130  C     C_R   0.474756 0.049529 0.836606 -0.168826
C131  C     C_R   0.917354 0.394730 0.658153 -0.120802
C132  C     C_R   0.465526 0.373011 0.837309 -0.167032
C133  C     C_R   0.089953 0.480606 0.157429 -0.141452
C134  C     C_R   0.530438 0.947269 0.333595 -0.145848
C135  C     C_R   0.367825 0.479344 0.159261 -0.147608
C136  C     C_R   0.102358 0.630148 0.339209 -0.161887
C137  C     C_R   0.436216 0.825446 0.150281 -0.125906
C138  C     C_R   0.523776 0.596476 0.340159 -0.134620
C139  C     C_R   0.475501 0.056248 0.662541 -0.137097
C140  C     C_R   0.878859 0.515351 0.842042 -0.144165
C141  C     C_R   0.468016 0.376162 0.662617 -0.135151
C142  C     C_R   0.638444 0.152151 0.845653 -0.138285
C143  C     C_R   0.903732 0.532857 0.662201 -0.145673
C144  C     C_R   0.607140 0.520863 0.842170 -0.141028
C145  C     C_R   0.054481 0.471186 0.127657 -0.081549
C146  C     C_R   0.551254 0.977728 0.364249 -0.071096
C147  C     C_R   0.378168 0.461440 0.128374 -0.082645
C148  C     C_R   0.071611 0.620540 0.369816 -0.096874
C149  C     C_R   0.457978 0.860392 0.120297 -0.072007
C150  C     C_R   0.530799 0.577514 0.371183 -0.075160
C151  C     C_R   0.465362 0.030838 0.631365 -0.067391
C152  C     C_R   0.902488 0.530510 0.873331 -0.081199
C153  C     C_R   0.446309 0.384147 0.631985 -0.065539
C154  C     C_R   0.626501 0.125360 0.876605 -0.069703
C155  C     C_R   0.934435 0.556069 0.631658 -0.055741
C156  C     C_R   0.582991 0.528783 0.872467 -0.083214
C157  C     C_R   0.033965 0.537179 0.115621 0.255257
C158  C     C_R   0.483164 0.937721 0.387513 0.252993
C159  C     C_R   0.462504 0.515331 0.112850 0.259954
C160  C     C_R   0.046256 0.538663 0.386399 0.256796
C161  C     C_R   0.492653 0.955210 0.114439 0.247713
C162  C     C_R   0.452229 0.513630 0.387833 0.255163
C163  C     C_R   0.542357 0.068556 0.611385 0.249199
C164  C     C_R   0.932881 0.476569 0.888880 0.261423
C165  C     C_R   0.510118 0.457071 0.613153 0.253723
C166  C     C_R   0.538901 0.060322 0.888080 0.257051
C167  C     C_R   0.953220 0.497126 0.613600 0.208868
C168  C     C_R   0.501101 0.458413 0.885805 0.254548
H1    H     H_    0.172115 0.690887 0.963828 0.190782
H2    H     H_    0.644710 0.915083 0.533900 0.196669
H3    H     H_    0.524140 0.304417 0.981894 0.220631
H4    H     H_    0.206483 0.566182 0.537356 0.157214
H5    H     H_    0.676500 0.953611 0.969664 0.181166
H6    H     H_    0.532767 0.307651 0.515961 0.136290
H7    H     H_    0.642257 0.895449 0.478509 0.164205
H8    H     H_    0.194656 0.707601 0.019031 0.207238
H9    H     H_    0.527252 0.327441 0.460910 0.134010
H10   H     H_    0.676047 0.942328 0.025344 0.172226
H11   H     H_    0.225490 0.567563 0.481916 0.205144
H12   H     H_    0.516414 0.318715 0.037213 0.166657
H13   H     H_    0.893296 0.581725 0.885952 0.130814
H14   H     H_    0.396994 0.983943 0.622404 0.153616
H15   H     H_    0.630285 0.588140 0.886201 0.138309
H16   H     H_    0.939214 0.617891 0.621418 0.149517
H17   H     H_    0.685209 0.157923 0.892095 0.154585
H18   H     H_    0.380865 0.331733 0.622465 0.150392
H19   H     H_    0.620380 0.032424 0.370011 0.142860
H20   H     H_    0.046630 0.414267 0.113277 0.142965
H21   H     H_    0.596843 0.615704 0.382796 0.151060
H22   H     H_    0.446541 0.813182 0.101318 0.165433
H23   H     H_    0.072027 0.678781 0.381257 0.138193
H24   H     H_    0.318946 0.408682 0.115909 0.134947
H25   H     H_    0.094407 0.680217 0.178603 0.119037
H26   H     H_    0.303727 0.783308 0.343085 0.109552
H27   H     H_    0.586325 0.657404 0.172355 0.127958
H28   H     H_    0.080674 0.416632 0.329521 0.115992
H29   H     H_    0.489137 0.024054 0.189039 0.100312
H30   H     H_    0.293087 0.447723 0.330150 0.119907
H31   H     H_    0.709007 0.201170 0.663605 0.122556
H32   H     H_    0.925939 0.341116 0.828421 0.123944
H33   H     H_    0.682538 0.568199 0.665800 0.122595
H34   H     H_    0.416108 0.021392 0.821021 0.113711
H35   H     H_    0.908536 0.330961 0.668179 0.174981
H36   H     H_    0.420450 0.312022 0.823798 0.118258
C169  C     C_2   0.731697 0.278257 0.982382 0.328765
H37   H     H_    0.738391 0.233427 0.965525 0.145348
O51   O     O_2   0.654465 0.259934 0.990919 -0.522358
C170  C     C_2   0.356812 0.119726 0.523580 0.356364
H38   H     H_    0.356195 0.180348 0.514527 0.117956
O52   O     O_2   0.301790 0.074157 0.544024 -0.417412
C171  C     C_2   0.427665 0.672924 0.954612 0.353595
H39   H     H_    0.371337 0.644206 0.938056 0.172232
O53   O     O_2   0.478076 0.757062 0.956001 -0.460068
C172  C     C_2   0.745160 0.485275 0.521827 0.326022
H40   H     H_    0.699302 0.419976 0.533346 0.146585
O54   O     O_2   0.723339 0.545224 0.520153 -0.390950
C173  C     C_2   0.339595 0.100062 0.973456 0.347518
H41   H     H_    0.298058 0.059005 0.954068 0.158849
O55   O     O_2   0.332930 0.166625 0.981931 -0.457463
C174  C     C_2   0.420894 0.663108 0.547714 0.352449
H42   H     H_    0.361139 0.632896 0.563053 0.149278
O56   O     O_2   0.475247 0.746471 0.548803 -0.449090
C175  C     C_2   0.373413 0.119233 0.457696 0.265638
H43   H     H_    0.411131 0.170895 0.439910 0.158805
O57   O     O_2   0.290731 0.090558 0.461133 -0.440867
C176  C     C_2   0.753961 0.303804 0.047983 0.357365
H44   H     H_    0.721450 0.326644 0.064993 0.176934
O58   O     O_2   0.729653 0.221334 0.046340 -0.450659
C177  C     C_2   0.434120 0.699597 0.481937 0.322419
H45   H     H_    0.480476 0.741780 0.463488 0.177410
O59   O     O_2   0.378748 0.720581 0.492310 -0.464482
C178  C     C_2   0.342180 0.090908 0.040167 0.344262
H46   H     H_    0.371918 0.141203 0.058776 0.152049
O60   O     O_2   0.259108 0.053516 0.035298 -0.434715
C179  C     C_2   0.766978 0.485370 0.456386 0.296123
H47   H     H_    0.738860 0.426010 0.440933 0.137416
O61   O     O_2   0.733578 0.536174 0.456441 -0.429584
C180  C     C_2   0.430257 0.697944 0.020160 0.330639
H48   H     H_    0.480359 0.747779 0.036229 0.145216
O62   O     O_2   0.363535 0.705302 0.012770 -0.493691
H49   H     H_    0.851137 0.555026 0.831151 0.137382
H50   H     H_    0.414617 0.029865 0.677216 0.139750
H51   H     H_    0.672888 0.574831 0.833119 0.141020
H52   H     H_    0.885082 0.577364 0.674941 0.134315
H53   H     H_    0.706495 0.205137 0.837867 0.141630
H54   H     H_    0.419088 0.316983 0.676255 0.142433
H55   H     H_    0.583815 0.977624 0.315923 0.122223
H56   H     H_    0.108267 0.430050 0.165426 0.141517
H57   H     H_    0.584797 0.649439 0.328293 0.148747
H58   H     H_    0.408936 0.751774 0.154156 0.132712
H59   H     H_    0.125728 0.695937 0.327523 0.138190
H60   H     H_    0.300333 0.439803 0.170086 0.138231
C181  C     C_2   0.019274 0.680973 0.124214 0.287653
H61   H     H_    0.038937 0.742593 0.138055 0.104028
O63   O     O_2   0.974299 0.669580 0.100706 -0.447967
C182  C     C_2   0.319623 0.813545 0.403538 0.305792
H62   H     H_    0.249092 0.767332 0.396076 0.101737
O64   O     O_2   0.336478 0.818982 0.431216 -0.433270
C183  C     C_2   0.631838 0.642946 0.114462 0.277096
H63   H     H_    0.686647 0.699374 0.127483 0.109522
O65   O     O_2   0.648612 0.628780 0.088099 -0.458906
C184  C     C_2   0.015950 0.372397 0.386996 0.267381
H64   H     H_    0.026665 0.320234 0.375580 0.094872
O66   O     O_2   0.977694 0.353995 0.412293 -0.469788
C185  C     C_2   0.549230 0.118171 0.135575 0.292027
H65   H     H_    0.547731 0.160029 0.154652 0.101807
O67   O     O_2   0.588495 0.157143 0.111571 -0.442509
C186  C     C_2   0.279599 0.394836 0.388751 0.294104
H66   H     H_    0.214281 0.363499 0.376404 0.083760
O68   O     O_2   0.279693 0.371267 0.415552 -0.452649
C187  C     C_2   0.715277 0.178784 0.603338 0.278847
H67   H     H_    0.782975 0.210081 0.613973 0.123549
O69   O     O_2   0.710384 0.187429 0.575415 -0.486694
C188  C     C_2   0.979801 0.352202 0.886853 0.266369
H68   H     H_    0.979982 0.296537 0.873719 0.103608
O70   O     O_2   0.010061 0.366495 0.913225 -0.460522
C189  C     C_2   0.669044 0.602854 0.607015 0.299848
H69   H     H_    0.730821 0.655861 0.618457 0.099343
O71   O     O_2   0.662909 0.608479 0.579011 -0.420707
C190  C     C_2   0.369363 0.943879 0.877310 0.277919
H70   H     H_    0.310465 0.923893 0.862201 0.100779
O72   O     O_2   0.357401 0.901696 0.901648 -0.457244
C191  C     C_2   0.965742 0.352038 0.608827 0.262308
H71   H     H_    0.973055 0.358487 0.583832 0.140956
O73   O     O_2   0.972861 0.290053 0.621455 -0.497375
C192  C     C_2   0.349429 0.306090 0.879709 0.293324
H72   H     H_    0.309940 0.243170 0.866270 0.096772
O74   O     O_2   0.316904 0.314092 0.904151 -0.439398

loop_
_geom_bond_atom_site_label_1
_geom_bond_atom_site_label_2
_geom_bond_distance
_ccdc_geom_bond_type
C64   C76   1.418189 A    
C100  C107  1.418359 A    
C117  C165  1.416436 A    
C10   C24   1.478040 S    
N9    C57   1.378960 Am   
C52   O42   1.220774 D    
C45   N9    1.374697 Am   
C175  H43   1.084895 S    
O13   C1    1.290904 A    
C104  C169  1.490830 S    
C179  O61   1.220567 D    
C185  H65   1.085555 S    
C45   O35   1.223358 D    
C172  H40   1.084630 S    
C109  C181  1.483312 S    
C135  C147  1.393618 A    
C56   O46   1.220953 D    
C76   C83   1.420336 A    
C37   N1    1.376908 Am   
C39   N3    1.373723 Am   
C28   C40   1.400115 A    
C99   C180  1.490410 S    
O24   Cr6   1.904650 S    
O10   Cr4   2.016493 S    
C20   C133  1.403863 A    
O12   Cr6   2.006048 S    
C156  H15   1.083074 S    
N12   C60   1.380218 Am   
C18   C141  1.402630 A    
C182  H62   1.085148 S    
C109  C121  1.406778 A    
C70   C106  1.426705 A    
C101  C106  1.421581 A    
C114  C126  1.400838 A    
C89   H10   1.083506 S    
C72   C84   1.418254 A    
O1    Cr1   2.006543 S    
N4    C52   1.379327 Am   
C24   C123  1.406152 A    
O3    Cr3   2.016566 S    
C50   O40   1.220859 D    
C21   C126  1.406907 A    
O7    C9    1.280546 A    
Cr6   O26   1.964167 S    
C112  C184  1.484558 S    
C36   C96   1.402687 A    
C66   C78   1.416321 A    
C33   C45   1.399226 A    
C184  H64   1.085640 S    
C16   C131  1.405759 A    
C53   C65   1.425644 A    
C35   C47   1.402474 A    
C108  C171  1.488436 S    
C188  H68   1.085655 S    
C26   C38   1.399789 A    
C5    C13   1.480255 S    
C48   O38   1.223598 D    
C124  H28   1.083886 S    
C69   C105  1.427723 A    
N10   C58   1.382290 Am   
O14   Cr2   1.897495 S    
O15   C3    1.287428 A    
C179  H47   1.085287 S    
C72   C108  1.428217 A    
C22   C137  1.396954 A    
C143  C155  1.393846 A    
C180  H48   1.085500 S    
C134  C146  1.397597 A    
C94   H5    1.083490 S    
O15   Cr3   1.896763 S    
C40   O30   1.223699 D    
C19   C122  1.400973 A    
C111  C183  1.485135 S    
O5    C1    1.283014 A    
C59   C71   1.424979 A    
N10   C166  1.444021 S    
C11   C19   1.461386 S    
C57   C69   1.425350 A    
C65   C77   1.415700 A    
C129  H33   1.084040 S    
C63   C75   1.416971 A    
C178  H46   1.085465 S    
C131  H35   1.083335 S    
C132  H36   1.083896 S    
C86   H7    1.083575 S    
C154  C166  1.401200 A    
C150  H21   1.082982 S    
C144  H51   1.082939 S    
C186  H66   1.085830 S    
C88   H11   1.082195 S    
N7    C163  1.439993 S    
C61   C97   1.429000 A    
C44   N8    1.374114 Am   
C116  C188  1.484814 S    
O23   Cr5   1.898298 S    
C139  H50   1.083077 S    
C135  H60   1.083008 S    
Cr2   O25   1.963322 S    
C173  O55   1.220756 D    
C136  H59   1.082874 S    
C53   O43   1.220940 D    
C190  H70   1.085566 S    
C20   C121  1.405666 A    
C171  O53   1.221146 D    
C33   C81   1.417803 A    
C38   O28   1.223197 D    
N3    C159  1.439360 S    
O21   Cr6   1.896410 S    
C40   N4    1.376409 Am   
N1    C157  1.445079 S    
O21   C9    1.289300 A    
C181  H61   1.085606 S    
C33   C93   1.402716 A    
C117  C129  1.399182 A    
C89   C94   1.384432 A    
C54   O44   1.221358 D    
C155  H16   1.082997 S    
C142  C154  1.388635 A    
C191  H71   1.083531 S    
C126  H30   1.084051 S    
C31   C91   1.402123 A    
C133  H56   1.083007 S    
C42   N6    1.373573 Am   
C137  C149  1.387753 A    
C148  C160  1.400727 A    
N4    C160  1.440701 S    
C175  O57   1.221061 D    
C134  H55   1.083071 S    
C58   O48   1.221218 D    
C120  C132  1.404851 A    
O3    C5    1.280920 A    
C65   C101  1.427561 A    
N6    C162  1.437470 S    
C114  C162  1.414786 A    
C151  H14   1.082902 S    
C17   C142  1.402010 A    
C47   O37   1.223066 D    
C77   C82   1.418011 A    
C12   C20   1.480131 S    
C19   C134  1.398448 A    
C13   C128  1.406503 A    
C27   C75   1.419894 A    
C32   C80   1.419372 A    
C177  O59   1.220860 D    
C47   N11   1.375904 Am   
C56   C68   1.426527 A    
C31   C79   1.416959 A    
C39   O29   1.223080 D    
O22   C10   1.291834 A    
C92   H1    1.083691 S    
O8    Cr5   2.007879 S    
C183  O65   1.220425 D    
C50   C62   1.423307 A    
C7    C21   1.475680 S    
C174  O56   1.220133 D    
N5    C53   1.382272 Am   
O2    Cr2   2.013811 S    
C180  O62   1.221044 D    
N7    C55   1.380332 Am   
C96   H3    1.082597 S    
C43   N7    1.376187 Am   
C21   C138  1.402239 A    
C111  C123  1.402084 A    
C9    C23   1.478536 S    
O8    C10   1.283074 A    
C41   O31   1.223330 D    
C68   C80   1.417097 A    
C155  C167  1.402499 A    
C43   O33   1.223182 D    
C98   C175  1.488814 S    
C90   H9    1.083069 S    
C13   C140  1.404079 A    
C67   C79   1.414689 A    
C128  H32   1.083900 S    
C115  C163  1.415151 A    
C141  H54   1.082944 S    
C127  H31   1.084668 S    
O20   C8    1.285991 A    
N11   C167  1.444814 S    
C153  C165  1.401557 A    
C74   C79   1.416964 A    
C6    C14   1.469392 S    
C30   C42   1.400236 A    
C151  C163  1.403548 A    
C113  C185  1.483321 S    
C136  C148  1.393978 A    
C114  C186  1.485754 S    
C85   C92   1.384356 A    
C86   C91   1.384446 A    
O6    C2    1.281839 A    
C31   C43   1.400351 A    
C71   C83   1.415140 A    
C169  O51   1.220631 D    
C91   H2    1.083559 S    
C147  C159  1.400557 A    
O17   Cr2   1.904450 S    
C58   C70   1.423631 A    
C111  C159  1.415107 A    
C62   C74   1.417762 A    
C52   C64   1.426267 A    
C54   C66   1.422920 A    
O19   Cr4   1.905624 S    
C109  C157  1.418149 A    
C35   C95   1.402413 A    
N12   C168  1.442503 S    
C170  H38   1.084353 S    
C182  O64   1.220392 D    
C192  H72   1.085609 S    
C66   C102  1.427598 A    
C148  H23   1.082901 S    
O5    Cr2   2.007311 S    
C3    C17   1.470049 S    
C118  C166  1.419823 A    
C36   C48   1.400285 A    
N6    C54   1.380401 Am   
C46   N10   1.376486 Am   
O17   C5    1.289947 A    
O19   C7    1.289152 A    
C24   C135  1.403585 A    
C141  C153  1.394622 A    
C46   O36   1.223175 D    
C184  O66   1.220572 D    
C48   N12   1.376554 Am   
C38   N2    1.373934 Am   
C34   C82   1.416922 A    
C144  C156  1.391116 A    
C176  H44   1.085166 S    
C110  C122  1.395292 A    
C188  O70   1.220485 D    
C61   C73   1.418029 A    
C34   C94   1.402440 A    
C8    C22   1.459863 S    
C29   C77   1.416611 A    
C150  C162  1.400549 A    
C26   C86   1.402863 A    
C90   C93   1.383134 A    
C118  C190  1.483311 S    
C68   C104  1.428348 A    
C88   C95   1.384843 A    
C115  C127  1.397951 A    
C171  H39   1.085135 S    
C30   C90   1.401754 A    
C107  C172  1.483262 S    
C67   C103  1.424870 A    
C189  O71   1.219861 D    
C113  C125  1.407859 A    
C1    C15   1.478428 S    
C2    C16   1.479685 S    
O16   Cr1   1.897117 S    
C152  H13   1.082957 S    
C49   O39   1.220463 D    
C117  C189  1.486896 S    
C51   O41   1.221124 D    
C18   C129  1.405355 A    
C178  O60   1.221099 D    
C143  H52   1.082983 S    
C185  O67   1.220698 D    
C34   C46   1.400690 A    
C55   O45   1.221301 D    
C186  O68   1.220346 D    
C29   C41   1.399950 A    
C116  C128  1.403462 A    
C25   C85   1.403198 A    
C112  C160  1.415442 A    
C138  C150  1.392984 A    
C149  H22   1.083424 S    
C119  C131  1.405489 A    
Cr1   O25   1.970330 S    
N11   C59   1.382176 Am   
O18   Cr3   1.905730 S    
C28   C88   1.402207 A    
C173  H41   1.085201 S    
C36   C84   1.417283 A    
C29   C89   1.402722 A    
C78   C81   1.417644 A    
C62   C98   1.428386 A    
C187  H67   1.082915 S    
C16   C143  1.403482 A    
C32   C92   1.402510 A    
C190  O72   1.220758 D    
C121  H25   1.083905 S    
O24   C12   1.290349 A    
C133  C145  1.391584 A    
C93   H6    1.083554 S    
N3    C51   1.380629 Am   
C137  H58   1.084286 S    
C75   C84   1.419981 A    
N8    C56   1.381450 Am   
O23   C11   1.288054 A    
N9    C165  1.438474 S    
Cr5   O26   1.970376 S    
C154  H17   1.083374 S    
C172  O54   1.220483 D    
C191  O73   1.221368 D    
C25   C73   1.417626 A    
C23   C124  1.406170 A    
C156  C168  1.400371 A    
C183  H63   1.085642 S    
C28   C76   1.416512 A    
C55   C67   1.420403 A    
C105  C174  1.485527 S    
C63   C99   1.427826 A    
C23   C136  1.403564 A    
C101  C178  1.487350 S    
C37   O27   1.223522 D    
N2    C158  1.438389 S    
O4    Cr1   2.009817 S    
O9    C11   1.277933 A    
O6    Cr3   2.006802 S    
C118  C130  1.405815 A    
C145  H20   1.083086 S    
O10   C12   1.280428 A    
C95   H4    1.082698 S    
C102  C105  1.421401 A    
O16   C4    1.290566 A    
C177  H45   1.084085 S    
C71   C107  1.426479 A    
O20   Cr5   1.898126 S    
C14   C127  1.403908 A    
C87   H12   1.083862 S    
C70   C82   1.415182 A    
C41   N5    1.376519 Am   
O9    Cr6   2.014115 S    
C57   O47   1.220734 D    
C59   O49   1.221112 D    
C26   C74   1.418035 A    
C103  C170  1.490199 S    
C73   C80   1.421189 A    
C149  C161  1.402763 A    
C4    C18   1.475538 S    
N5    C161  1.444303 S    
C113  C161  1.420954 A    
C181  O63   1.220704 D    
C100  C179  1.487991 S    
O7    Cr4   2.007427 S    
O18   C6    1.288340 A    
C44   O34   1.223125 D    
O13   Cr1   1.899124 S    
C120  C168  1.416835 A    
N1    C49   1.381345 Am   
C97   C104  1.422232 A    
O11   C7    1.285679 A    
C98   C103  1.418277 A    
C22   C125  1.400213 A    
C15   C144  1.403442 A    
O12   C8    1.280692 A    
C69   C81   1.417899 A    
C110  C182  1.486462 S    
C120  C192  1.483806 S    
C17   C130  1.402363 A    
Cr3   O25   1.964544 S    
C14   C139  1.400518 A    
C130  H34   1.084122 S    
C152  C164  1.401067 A    
C35   C83   1.418237 A    
N8    C164  1.441892 S    
C145  C157  1.400565 A    
C116  C164  1.415796 A    
C51   C63   1.424299 A    
C112  C124  1.401793 A    
C27   C87   1.402506 A    
C49   C61   1.428708 A    
C106  C173  1.491060 S    
O14   C2    1.289050 A    
C123  H27   1.083875 S    
C147  H24   1.082958 S    
C102  C177  1.494182 S    
C140  C152  1.394611 A    
Cr4   O26   1.963653 S    
O22   Cr4   1.897569 S    
C169  H37   1.085345 S    
C32   C44   1.402265 A    
C140  H49   1.083029 S    
C42   O32   1.223169 D    
C119  C191  1.484987 S    
C187  O69   1.220507 D    
C170  O52   1.221230 D    
C192  O74   1.220661 D    
C30   C78   1.418994 A    
C15   C132  1.406158 A    
C153  H18   1.082887 S    
N2    C50   1.380333 Am   
C146  H19   1.082862 S    
C64   C100  1.426263 A    
C97   C176  1.488741 S    
C87   C96   1.384108 A    
C139  C151  1.394863 A    
C125  H29   1.084100 S    
C174  H42   1.084875 S    
C122  H26   1.084756 S    
C176  O58   1.221301 D    
C138  H57   1.082929 S    
O11   Cr5   2.008887 S    
C146  C158  1.404878 A    
O4    C6    1.283941 A    
C110  C158  1.416005 A    
C142  H53   1.083657 S    
C115  C187  1.483034 S    
C60   O50   1.220527 D    
C85   H8    1.083483 S    
O1    C3    1.283898 A    
O2    C4    1.280788 A    
C25   C37   1.401049 A    
C189  H69   1.085720 S    
C119  C167  1.415441 A    
C27   C39   1.401790 A    
C99   C108  1.420556 A    
C60   C72   1.426906 A    
