data_mof_unit_14111.cif
_audit_creation_date              2012-10-26T19:48:47-0400
_audit_creation_method            fapswitch 2.2
_symmetry_space_group_name_H-M    P1
_symmetry_Int_Tables_number       1
_space_group_crystal_system       triclinic
_cell_length_a                    10.716802
_cell_length_b                    9.406126
_cell_length_c                    27.827504
_cell_angle_alpha                 90.182745
_cell_angle_beta                  89.863435
_cell_angle_gamma                 89.954149
_cell_volume                      2805.08915049

loop_
_atom_site_label
_atom_site_type_symbol
_atom_type_description
_atom_site_fract_x
_atom_site_fract_y
_atom_site_fract_z
_atom_type_partial_charge
C1    C     C_R   0.259660 0.500245 0.499413 0.550529
C2    C     C_R   0.389258 0.474335 0.974773 0.015493
C3    C     C_R   0.618690 0.452693 0.974600 0.018040
C4    C     C_R   0.501243 0.499653 0.407487 0.565016
C5    C     C_R   0.504192 0.464584 0.949449 0.024966
C6    C     C_R   0.280494 0.506590 0.948294 -0.127994
C7    C     C_R   0.281790 0.510869 0.898415 -0.133071
C8    C     C_R   0.392843 0.489605 0.873022 0.027000
C9    C     C_R   0.504768 0.469115 0.898403 -0.028141
C10   C     C_R   0.617359 0.454632 0.872678 0.025544
C11   C     C_R   0.615906 0.460934 0.822247 0.400149
C12   C     C_R   0.457117 0.369808 0.280516 -0.076244
C13   C     C_R   0.395042 0.492319 0.822615 0.397007
C14   C     C_R   0.458739 0.606888 0.723406 -0.052311
C15   C     C_R   0.450008 0.611608 0.672991 0.234974
C16   C     C_R   0.740108 0.500140 0.499406 0.545358
C17   C     C_R   0.547992 0.378213 0.669191 -0.203684
C18   C     C_R   0.549650 0.371693 0.719166 -0.078313
C19   C     C_R   0.505796 0.486311 0.746567 0.194287
C20   C     C_R   0.387850 0.457906 0.025626 0.007746
C21   C     C_R   0.503152 0.461328 0.050828 -0.007529
C22   C     C_R   0.618604 0.461424 0.025548 0.019389
C23   C     C_R   0.502405 0.484167 0.253608 0.192363
C24   C     C_R   0.276189 0.435442 0.052666 0.235236
C25   C     C_R   0.728987 0.478377 0.102119 -0.109515
C26   C     C_R   0.729732 0.434023 0.947682 -0.144901
C27   C     C_R   0.728835 0.435046 0.897743 -0.114710
C28   C     C_R   0.498799 0.500022 0.592579 0.577859
C29   C     C_R   0.730402 0.472195 0.052256 -0.143229
C30   C     C_3   0.071088 0.654448 0.492145 -0.231186
C31   C     C_3   0.071641 0.441617 0.547199 -0.232325
C32   C     C_3   0.928331 0.654576 0.492921 -0.234287
C33   C     C_3   0.927703 0.440041 0.547014 -0.232607
C34   C     C_R   0.503167 0.464689 0.101872 -0.043034
C35   C     C_3   0.072270 0.407496 0.457142 -0.232677
C36   C     C_3   0.121739 0.500970 0.498979 0.050847
C37   C     C_3   0.878034 0.500761 0.499020 0.051341
C38   C     C_3   0.928263 0.408488 0.456884 -0.231558
C39   C     C_3   0.623830 0.083793 0.514661 -0.104060
C40   C     C_3   0.623720 0.916332 0.514777 -0.109566
C41   C     C_3   0.407606 0.084276 0.535577 -0.109111
C42   C     C_3   0.407762 0.916577 0.535544 -0.111858
C43   C     C_3   0.468973 0.083337 0.453098 -0.105206
C44   C     C_3   0.468558 0.916120 0.453163 -0.102100
C45   C     C_R   0.390149 0.459095 0.127575 -0.025027
C46   C     C_R   0.391832 0.466649 0.177977 0.402588
C47   C     C_R   0.613986 0.479852 0.177783 0.398821
C48   C     C_R   0.548648 0.604796 0.277187 -0.041993
C49   C     C_R   0.552017 0.610886 0.327463 0.231184
C50   C     C_R   0.456789 0.376347 0.330508 -0.198752
C51   C     C_3   0.271051 0.745015 0.666687 -0.006367
C52   C     C_3   0.198761 0.834284 0.630849 -0.392971
C53   C     C_3   0.160584 0.253194 0.023097 -0.014516
C54   C     C_3   0.038627 0.215214 0.998372 -0.370318
C55   C     C_3   0.732586 0.709223 0.353766 -0.004597
C56   C     C_R   0.278200 0.442356 0.102703 -0.088951
C57   C     C_3   0.792966 0.847167 0.370340 -0.379380
C58   C     C_R   0.616262 0.474194 0.127357 0.035320
C59   C     C_R   0.502788 0.497005 0.354555 0.003191
C60   C     C_R   0.499719 0.498184 0.645587 0.012367
Cu1   Cu    Cu3+1 0.499860 0.642410 0.500020 0.908010
Cu2   Cu    Cu3+1 0.499860 0.357590 0.500020 0.864932
H1    H     H_    0.819106 0.415737 0.964159 0.107505
H2    H     H_    0.893003 0.701351 0.458891 0.113546
H3    H     H_    0.894093 0.329104 0.552045 0.116205
H4    H     H_    0.108045 0.448033 0.422190 0.115718
H5    H     H_    0.105913 0.296137 0.461051 0.118784
H6    H     H_    0.651355 0.124252 0.550724 0.114556
H7    H     H_    0.650850 0.876937 0.550938 0.122718
H8    H     H_    0.696496 0.120440 0.488949 0.111628
H9    H     H_    0.696626 0.878585 0.489354 0.107782
H10   H     H_    0.427679 0.123133 0.572520 0.124230
H11   H     H_    0.428646 0.878700 0.572357 0.180256
H12   H     H_    0.585193 0.277314 0.736636 0.150680
H13   H     H_    0.376239 0.123396 0.441350 0.113694
H14   H     H_    0.375551 0.876475 0.441554 0.119386
H15   H     H_    0.312385 0.122674 0.526597 0.112801
H16   H     H_    0.312667 0.878069 0.526560 0.107525
H17   H     H_    0.190918 0.430071 0.121994 0.180855
H18   H     H_    0.427059 0.696075 0.744871 0.130690
H19   H     H_    0.195335 0.533700 0.879856 0.164794
H20   H     H_    0.193704 0.535742 0.965232 0.184927
H21   H     H_    0.419744 0.286942 0.350400 0.126586
H22   H     H_    0.583966 0.693371 0.256435 0.144768
H23   H     H_    0.820979 0.480403 0.035631 0.124382
H24   H     H_    0.817204 0.487190 0.120834 0.171805
H25   H     H_    0.584650 0.288886 0.648922 0.128247
H26   H     H_    0.816523 0.421112 0.878840 0.164206
H27   H     H_    0.422008 0.275664 0.262609 0.148016
H28   H     H_    0.894249 0.451085 0.422037 0.102966
H29   H     H_    0.893516 0.297415 0.460044 0.117793
H30   H     H_    0.538022 0.120159 0.425962 0.124250
H31   H     H_    0.536898 0.878475 0.425996 0.175527
H32   H     H_    0.270543 0.802254 0.701692 0.148224
H33   H     H_    0.221179 0.641497 0.670579 0.142475
H34   H     H_    0.104614 0.698617 0.457351 0.118524
H35   H     H_    0.196876 0.779259 0.595596 0.141003
H36   H     H_    0.101383 0.849278 0.643625 0.107932
H37   H     H_    0.243301 0.940129 0.626737 0.140304
H38   H     H_    0.165507 0.193828 0.057634 0.141071
H39   H     H_    0.238886 0.219002 0.999281 0.142803
H40   H     H_    0.031642 0.272058 0.963550 0.153096
H41   H     H_    0.034987 0.098930 0.991523 0.111900
H42   H     H_    0.958391 0.245721 0.021554 0.157343
H43   H     H_    0.776044 0.679078 0.318708 0.148091
H44   H     H_    0.752833 0.625258 0.380757 0.128898
H45   H     H_    0.107014 0.331713 0.553024 0.116553
H46   H     H_    0.756161 0.878752 0.406066 0.126987
H47   H     H_    0.895537 0.832507 0.373120 0.095415
H48   H     H_    0.773336 0.933170 0.344160 0.165774
H49   H     H_    0.105461 0.725576 0.521179 0.110612
H50   H     H_    0.105440 0.508374 0.577602 0.114109
H51   H     H_    0.895286 0.723274 0.523050 0.116890
H52   H     H_    0.891869 0.504368 0.577739 0.116095
N1    N     N_R   0.502721 0.477119 0.202024 -0.390091
N2    N     N_R   0.505672 0.479123 0.798210 -0.392367
N3    N     N_3   0.500250 0.143650 0.501060 -0.223553
N4    N     N_3   0.500250 0.856350 0.501060 -0.236779
O1    O     O_R   0.317570 0.620260 0.500030 -0.516967
O2    O     O_2   0.287170 0.506900 0.798161 -0.514603
O3    O     O_2   0.722166 0.486812 0.202421 -0.510141
O4    O     O_2   0.724025 0.450999 0.797491 -0.501443
O5    O     O_3   0.395019 0.726441 0.650087 -0.569921
O6    O     O_3   0.163723 0.401263 0.031436 -0.587391
O7    O     O_3   0.602398 0.729365 0.349549 -0.568340
O8    O     O_R   0.317570 0.379740 0.500030 -0.516157
O9    O     O_R   0.499900 0.620250 0.430280 -0.468143
O10   O     O_R   0.499900 0.379750 0.430280 -0.524621
O11   O     O_R   0.682190 0.620260 0.500010 -0.520386
O12   O     O_R   0.682190 0.379740 0.500010 -0.517818
O13   O     O_R   0.499860 0.620280 0.569750 -0.457685
O14   O     O_R   0.499860 0.379720 0.569750 -0.522664
O15   O     O_2   0.283403 0.464903 0.202749 -0.499321

loop_
_geom_bond_atom_site_label_1
_geom_bond_atom_site_label_2
_ccdc_geom_bond_type
C10   C27   A    
C40   N4    S    
C41   C42   S    
C8    C13   A    
C6    H20   S    
C40   H9    S    
Cu1   O1    S    
C51   O5    S    
C39   H6    S    
Cu2   O12   S    
C35   C36   S    
C43   C44   S    
C33   H3    S    
C7    C8    A    
C53   C54   S    
C47   N1    A    
C12   C23   A    
C26   C27   A    
C56   H17   S    
C15   O5    S    
C46   N1    A    
C55   H43   S    
C50   C59   A    
C54   H42   S    
C22   C29   A    
C31   C36   S    
C41   H15   S    
C47   O3    S    
C52   H35   S    
C24   O6    S    
C18   C19   A    
C1    O1    A    
C44   H14   S    
Cu2   N3    S    
C30   H34   S    
C44   H31   S    
C57   H47   S    
C20   C24   A    
C45   C56   A    
C53   H39   S    
C8    C9    A    
C31   H50   S    
C31   C33   S    
C14   H18   S    
C32   H51   S    
C30   C32   S    
C16   O12   A    
C9    C10   A    
C29   H23   S    
Cu1   Cu2   S    
Cu1   O11   S    
C16   C37   S    
C18   H12   S    
C21   C22   A    
C43   H13   S    
C2    C6    A    
C50   H21   S    
C28   C60   S    
C53   H38   S    
C25   C29   A    
C40   H7    S    
C4    O10   A    
C55   H44   S    
C2    C20   A    
C51   C52   S    
Cu2   O14   S    
C12   H27   S    
C35   C38   S    
C1    O8    A    
C32   H2    S    
C39   C40   S    
Cu2   O8    S    
C42   N4    S    
C21   C34   A    
C51   H32   S    
C35   H4    S    
C39   N3    S    
C38   H29   S    
C33   C37   S    
C48   H22   S    
C28   O14   A    
C26   H1    S    
C5    C9    A    
C37   C38   S    
C16   O11   A    
C54   H41   S    
C57   H48   S    
C35   H5    S    
C17   C18   A    
C33   H52   S    
Cu1   O9    S    
C34   C45   A    
C32   C37   S    
C11   N2    A    
C43   N3    S    
C41   H10   S    
C48   C49   A    
C7    H19   S    
C42   H16   S    
C55   C57   S    
C2    C5    A    
C44   N4    S    
C13   O2    S    
C42   H11   S    
C23   C48   A    
C4    O9    A    
Cu1   N4    S    
C17   H25   S    
C31   H45   S    
C14   C19   A    
C54   H40   S    
C3    C26   A    
C3    C5    A    
C53   O6    S    
C55   O7    S    
C12   C50   A    
C6    C7    A    
C24   C56   A    
C49   O7    S    
C38   H28   S    
C52   H37   S    
C43   H30   S    
C49   C59   A    
C30   C36   S    
C30   H49   S    
C28   O13   A    
C47   C58   A    
Cu2   O10   S    
C19   N2    S    
C4    C59   S    
C52   H36   S    
C25   H24   S    
C39   H8    S    
C27   H26   S    
C13   N2    A    
C10   C11   A    
Cu1   O13   S    
C17   C60   A    
C23   N1    S    
C11   O4    S    
C45   C46   A    
C57   H46   S    
C20   C21   A    
C25   C58   A    
C34   C58   A    
C14   C15   A    
C3    C22   A    
C41   N3    S    
C15   C60   A    
C1    C36   S    
C51   H33   S    
C46   O15   S    
