data_mof_unit_8707.cif
_audit_creation_date              2013-03-05T15:47:36-0500
_audit_creation_method            fapswitch 2.2
_symmetry_space_group_name_H-M    P1
_symmetry_Int_Tables_number       1
_space_group_crystal_system       triclinic
_cell_length_a                    10.773304
_cell_length_b                    12.977398
_cell_length_c                    11.718146
_cell_angle_alpha                 99.763329
_cell_angle_beta                  91.261216
_cell_angle_gamma                 91.900352
_cell_volume                      1613.05618059

loop_
_atom_site_label
_atom_site_type_symbol
_atom_site_description
_atom_site_fract_x
_atom_site_fract_y
_atom_site_fract_z
_atom_type_partial_charge
O1    O     O_R   0.506570 0.354460 0.582000 -0.578658
O2    O     O_R   0.490940 0.341410 0.386200 -0.573879
C1    C     C_R   0.493685 0.299353 0.478595 0.845566
O3    O     O_R   0.327470 0.506530 0.597920 -0.544434
O4    O     O_R   0.311840 0.493480 0.402120 -0.559896
C2    C     C_R   0.262303 0.493487 0.502403 0.848264
Cu1   Cu    Cu3+1 0.509250 0.507730 0.615930 1.014737
Cu2   Cu    Cu3+1 0.490750 0.492270 0.384070 1.078593
O5    O     O_R   0.509060 0.658590 0.613800 -0.609842
O6    O     O_R   0.493430 0.645540 0.418000 -0.499407
O7    O     O_R   0.688160 0.506520 0.597880 -0.597993
O8    O     O_R   0.672530 0.493470 0.402080 -0.537536
C3    C     C_R   0.500429 0.700399 0.521273 0.898580
C4    C     C_R   0.737217 0.503227 0.497500 0.851289
H1    H     H_    0.129502 0.659451 0.521146 0.211482
C5    C     C_R   0.102731 0.303394 0.526267 0.327629
C6    C     C_R   0.033029 0.209599 0.490853 -0.062555
H2    H     H_    0.069071 0.135578 0.504398 0.205704
C7    C     C_R   0.911425 0.211399 0.449213 -0.159092
H3    H     H_    0.856922 0.139019 0.425350 0.183501
C8    C     C_R   0.856268 0.306757 0.448625 -0.152077
H4    H     H_    0.758934 0.305328 0.423567 0.136838
C9    C     C_R   0.926414 0.401846 0.479019 0.020550
C10   C     C_R   0.054718 0.398938 0.503964 -0.004943
C11   C     C_R   0.127914 0.492690 0.510523 -0.121145
C12   C     C_R   0.072026 0.588392 0.513795 -0.179650
C13   C     C_R   0.943387 0.593945 0.508568 0.332890
C14   C     C_R   0.870654 0.499814 0.489945 -0.157808
C15   C     C_R   0.502824 0.813508 0.531919 -0.109705
C16   C     C_R   0.478693 0.185953 0.465739 -0.117493
C17   C     C_R   0.374018 0.020957 0.379932 0.297254
C18   C     C_R   0.390615 0.129303 0.386604 0.288500
C19   C     C_R   0.549253 0.134824 0.538039 -0.253092
C20   C     C_R   0.532135 0.027705 0.534579 0.077479
C21   C     C_R   0.441851 0.968981 0.457161 -0.069198
C22   C     C_R   0.423148 0.861233 0.461533 0.366650
C23   C     C_R   0.591131 0.872591 0.606639 -0.150389
C24   C     C_R   0.604545 0.979329 0.609155 -0.102613
H5    H     H_    0.651716 0.835536 0.661322 0.185397
H6    H     H_    0.673685 0.023864 0.667808 0.165454
H7    H     H_    0.617466 0.179186 0.598117 0.167195
N1    N     N_R   0.523180 0.519350 0.790130 -0.211467
N2    N     N_R   0.476820 0.480650 0.209890 -0.272834
C25   C     C_R   0.389976 0.393500 0.025882 0.287944
C26   C     C_R   0.397885 0.407114 0.147397 0.013583
C27   C     C_R   0.548219 0.545834 0.154373 0.481180
C28   C     C_R   0.540088 0.537940 0.031999 -0.080326
C29   C     C_R   0.461693 0.459580 0.966747 -0.094584
C30   C     C_R   0.457818 0.450466 0.844395 0.152220
C31   C     C_R   0.598069 0.595912 0.852581 0.095288
C32   C     C_R   0.609109 0.605874 0.973216 -0.175433
H8    H     H_    0.403724 0.388161 0.791854 0.221955
H9    H     H_    0.650362 0.649243 0.808569 0.142546
H10   H     H_    0.670743 0.667195 0.019450 0.206502
H11   H     H_    0.340597 0.358346 0.192188 0.227629
Cl1   Cl    Cl    0.294065 0.192656 0.298471 -0.547986
Cl2   Cl    Cl    0.288014 0.293968 0.952436 -0.455312
N3    N     N_R   0.634077 0.620630 0.219760 0.146153
O9    O     O_R   0.750252 0.597267 0.225688 -0.309014
O10   O     O_R   0.605841 0.718651 0.239740 -0.303080
N4    N     N_R   0.200167 0.304440 0.611726 0.101794
O11   O     O_R   0.196087 0.373057 0.706230 -0.324803
O12   O     O_R   0.261854 0.220482 0.614955 -0.355944
N5    N     N_R   0.889100 0.695184 0.520995 0.122724
O13   O     O_R   0.786599 0.708386 0.465514 -0.323273
O14   O     O_R   0.948647 0.777087 0.579044 -0.318310
Cl3   Cl    Cl    0.293061 0.785653 0.393289 -0.499770
N6    N     N_R   0.294600 0.964897 0.289075 0.201885
O15   O     O_R   0.175015 0.975944 0.291765 -0.241006
O16   O     O_R   0.343055 0.912326 0.197343 -0.250408

loop_
_geom_bond_atom_site_label_1
_geom_bond_atom_site_label_2
_geom_bond_distance
_ccdc_geom_bond_type
O1    C1    1.300413 A    
O4    Cu2   1.943935 S    
C24   H6    1.084168 S    
C9    C10   1.409584 A    
Cu2   O6    1.960279 S    
C23   C24   1.383161 A    
C1    C16   1.456862 S    
C28   C29   1.408176 A    
Cu2   N2    2.022830 S    
C25   Cl2   1.761532 S    
Cu2   O8    1.964349 S    
C30   H8    1.075445 S    
C19   H7    1.085729 S    
N5    O13   1.300064 A    
C32   H10   1.081930 S    
N4    O12   1.300429 A    
C19   C20   1.389840 A    
C11   C12   1.393166 A    
C22   Cl3   1.777398 S    
Cu1   Cu2   2.692681 S    
C5    C10   1.421170 A    
C20   C24   1.398187 A    
C8    H4    1.081408 S    
C27   N3    1.428935 S    
Cu1   O7    1.943935 S    
C2    C11   1.452838 S    
N2    C26   1.360832 A    
C15   C22   1.406424 A    
C12   C13   1.390662 A    
O4    C2    1.301280 A    
N1    C31   1.359380 A    
O3    Cu1   1.964351 S    
O1    Cu1   1.960279 S    
C3    C15   1.451223 S    
C29   C30   1.418050 A    
C6    C7    1.390209 A    
O8    C4    1.289869 A    
C31   C32   1.399556 A    
O2    C1    1.292704 A    
C8    C9    1.413491 A    
N4    O11   1.300578 A    
C23   H5    1.083880 S    
O7    C4    1.294828 A    
C17   C21   1.420778 A    
N2    C27   1.376950 A    
C31   H9    1.081832 S    
C5    N4    1.432864 S    
N1    C30   1.367503 A    
N3    O10   1.301259 A    
C16   C18   1.408741 A    
C25   C29   1.411975 A    
C10   C11   1.417737 A    
C26   H11   1.076081 S    
C6    H2    1.082794 S    
C20   C21   1.423856 A    
C13   N5    1.441943 S    
Cu1   N1    2.023063 S    
C15   C23   1.395304 A    
C13   C14   1.411535 A    
Cu1   O5    1.962224 S    
N6    O16   1.301164 A    
O5    C3    1.295011 A    
C27   C28   1.420765 A    
C5    C6    1.404300 A    
H1    C12   1.083542 S    
C28   C32   1.410560 A    
C21   C22   1.415806 A    
C16   C19   1.389837 A    
C4    C14   1.443902 S    
N3    O9    1.300656 A    
C9    C14   1.411547 A    
O3    C2    1.291354 A    
C17   N6    1.432054 S    
C18   Cl1   1.766890 S    
C17   C18   1.400172 A    
O2    Cu2   1.962224 S    
C25   C26   1.405136 A    
C7    H3    1.082771 S    
N6    O15   1.301473 A    
C7    C8    1.391413 A    
O6    C3    1.295090 A    
N5    O14   1.301672 A    
