data_mof_unit_30481.cif
_audit_creation_date              2012-12-11T16:58:15-0500
_audit_creation_method            fapswitch 2.2
_symmetry_space_group_name_H-M    P1
_symmetry_Int_Tables_number       1
_space_group_crystal_system       triclinic
_cell_length_a                    16.948803
_cell_length_b                    7.277012
_cell_length_c                    16.818865
_cell_angle_alpha                 91.793847
_cell_angle_beta                  100.406018
_cell_angle_gamma                 88.04711
_cell_volume                      2038.41151469

loop_
_atom_site_label
_atom_site_type_symbol
_atom_type_description
_atom_site_fract_x
_atom_site_fract_y
_atom_site_fract_z
_atom_type_partial_charge
O1    O     O_R   0.413450 0.494370 0.415710 -0.522312
O2    O     O_R   0.586550 0.994370 0.584290 -0.523339
O3    O     O_R   0.578420 0.819350 0.429360 -0.535353
O4    O     O_R   0.421580 0.319350 0.570640 -0.541299
C1    C     C_R   0.604274 0.650797 0.413381 0.708460
C2    C     C_R   0.395396 0.160146 0.586752 0.706150
O5    O     O_R   0.413570 0.823780 0.406240 -0.553608
O6    O     O_R   0.586430 0.323780 0.593760 -0.553212
O7    O     O_R   0.420530 0.998740 0.561000 -0.537817
O8    O     O_R   0.579470 0.498740 0.439000 -0.544393
C3    C     C_R   0.385955 0.655480 0.384023 0.702775
C4    C     C_R   0.614093 0.155116 0.616043 0.703343
O9    O     O_3   0.502480 0.662320 0.550800 -0.388067
O10   O     O_3   0.497520 0.162320 0.449200 -0.387666
V1    V     V_3+5 0.499540 0.935370 0.490580 1.385348
V2    V     V_3+5 0.500460 0.435370 0.509420 1.383626
C5    C     C_R   0.692065 0.999863 0.739219 -0.014034
C6    C     C_R   0.308011 0.492750 0.261273 -0.011729
C7    C     C_R   0.682006 0.145879 0.685464 -0.073686
C8    C     C_R   0.318043 0.646021 0.314500 -0.074994
C9    C     C_R   0.739651 0.283805 0.699938 -0.163033
C10   C     C_R   0.260123 0.790308 0.299606 -0.164673
H1    H     H_    0.735632 0.397522 0.659577 0.166752
H2    H     H_    0.264025 0.910001 0.339510 0.168207
C11   C     C_R   0.806629 0.269230 0.763103 -0.168804
C12   C     C_R   0.193037 0.775603 0.236585 -0.168268
H3    H     H_    0.852219 0.370937 0.769398 0.170122
H4    H     H_    0.147321 0.883374 0.229940 0.170859
C13   C     C_R   0.817529 0.119122 0.815029 -0.136482
C14   C     C_R   0.182275 0.618784 0.185131 -0.137190
C15   C     C_R   0.757925 0.986899 0.802343 0.026166
C16   C     C_R   0.242139 0.479656 0.198198 0.028289
C17   C     C_3   0.763238 0.781490 0.791013 0.347092
C18   C     C_3   0.237203 0.276924 0.210126 0.345525
C19   C     C_3   0.690129 0.796723 0.723155 0.226767
C20   C     C_3   0.310241 0.291893 0.277999 0.226310
H5    H     H_    0.634715 0.734699 0.736358 0.060105
H6    H     H_    0.365800 0.219296 0.265099 0.060547
C21   C     C_R   0.334160 0.171252 0.640488 -0.061679
C22   C     C_R   0.664892 0.623394 0.359758 -0.060266
C23   C     C_R   0.165316 0.098451 0.859661 -0.059458
C24   C     C_R   0.835494 0.645870 0.139922 -0.060732
C25   C     C_R   0.262244 0.908950 0.798971 -0.196034
C26   C     C_R   0.739922 0.852000 0.194175 -0.195560
C27   C     C_R   0.210035 0.932557 0.854233 -0.153320
C28   C     C_R   0.792232 0.815182 0.139963 -0.150120
C29   C     C_R   0.175744 0.242724 0.809159 -0.231858
C30   C     C_R   0.823607 0.511917 0.194684 -0.234263
C31   C     C_R   0.228090 0.219172 0.752812 0.156408
C32   C     C_R   0.771101 0.548670 0.249789 0.155995
C33   C     C_R   0.271413 0.050551 0.747319 0.158893
C34   C     C_R   0.729211 0.720478 0.249864 0.157152
C35   C     C_R   0.323691 0.026913 0.690915 -0.237608
C36   C     C_R   0.676831 0.757392 0.305067 -0.234232
C37   C     C_R   0.289664 0.337350 0.646061 -0.147564
C38   C     C_R   0.707819 0.453748 0.359499 -0.153372
C39   C     C_R   0.237378 0.360911 0.701257 -0.197433
C40   C     C_R   0.760213 0.416959 0.305351 -0.194489
H7    H     H_    0.357808 0.898877 0.688048 0.124166
H8    H     H_    0.643963 0.887994 0.303946 0.125311
H9    H     H_    0.295828 0.451335 0.607942 0.137133
H10   H     H_    0.700487 0.347503 0.401044 0.135166
H11   H     H_    0.294990 0.779017 0.796271 0.121158
H12   H     H_    0.708244 0.984108 0.192823 0.120977
H13   H     H_    0.204714 0.490933 0.704026 0.122456
H14   H     H_    0.791769 0.284713 0.306609 0.122347
H15   H     H_    0.204131 0.818663 0.892487 0.134408
H16   H     H_    0.799234 0.921304 0.098244 0.136879
H17   H     H_    0.141581 0.370718 0.811939 0.126601
H18   H     H_    0.856581 0.381440 0.195943 0.127574
O11   O     O_R   0.920630 0.775410 0.061150 -0.538971
O12   O     O_R   0.079370 0.275410 0.938850 -0.532691
O13   O     O_R   0.086500 0.441450 0.093690 -0.547348
O14   O     O_R   0.913500 0.941450 0.906310 -0.547272
C41   C     C_R   0.113385 0.609497 0.116620 0.698374
C42   C     C_R   0.886528 0.109651 0.883343 0.698489
O15   O     O_R   0.921670 0.445960 0.070740 -0.536973
O16   O     O_R   0.078330 0.945960 0.929260 -0.542271
O17   O     O_R   0.913380 0.271130 0.915780 -0.535535
O18   O     O_R   0.086620 0.771130 0.084220 -0.534876
C43   C     C_R   0.896310 0.618718 0.086420 0.686659
C44   C     C_R   0.104005 0.109642 0.913389 0.685984
O19   O     O_3   0.997500 0.603030 0.949220 -0.382715
O20   O     O_3   0.002500 0.103030 0.050780 -0.382034
V3    V     V_3+5 0.000470 0.329940 0.009420 1.372754
V4    V     V_3+5 0.999530 0.829940 0.990580 1.371265
N1    N     N_3   0.746415 0.685376 0.861023 -0.697932
H19   H     H_    0.795785 0.695915 0.908036 0.236476
H20   H     H_    0.739983 0.545961 0.845492 0.243080
N2    N     N_3   0.254279 0.167276 0.140413 -0.696688
H21   H     H_    0.204661 0.176585 0.093560 0.237296
H22   H     H_    0.261687 0.029550 0.156518 0.242239
N3    N     N_3   0.836140 0.711280 0.762843 -0.648198
H23   H     H_    0.881954 0.686742 0.812054 0.241172
H24   H     H_    0.856409 0.807743 0.726868 0.249647
N4    N     N_3   0.164361 0.222241 0.238379 -0.649007
H25   H     H_    0.118467 0.198179 0.189200 0.240265
H26   H     H_    0.144163 0.327074 0.274433 0.249536
O21   O     O_3   0.708440 0.749739 0.646710 -0.631681
H27   H     H_    0.663255 0.677019 0.617545 0.300882
O22   O     O_3   0.291884 0.260045 0.354537 -0.632089
H28   H     H_    0.336585 0.182876 0.383585 0.301042

loop_
_geom_bond_atom_site_label_1
_geom_bond_atom_site_label_2
_ccdc_geom_bond_type
N1    H19   S    
N3    H23   S    
O1    C3    A    
C42   O17   A    
O2    C4    A    
C2    O7    A    
O12   V3    S    
C35   H7    S    
C25   H11   S    
C29   C31   A    
C13   C42   S    
C36   H8    S    
C26   H12   S    
O5    C3    A    
O22   H28   S    
O14   C42   A    
C10   H2    S    
C7    C9    A    
C18   N4    S    
C30   C32   A    
C31   C39   A    
C24   C28   A    
C29   H17   S    
O18   V4    S    
C17   C19   S    
C40   H14   S    
C21   C37   A    
C34   C36   A    
C31   C33   A    
N4    H26   S    
C27   H15   S    
C32   C34   A    
C15   C17   S    
C41   O18   A    
C18   C20   S    
C26   C34   A    
O5    V1    S    
O15   V3    S    
O6    V2    S    
O13   C41   A    
C24   C43   S    
C19   O21   S    
C26   C28   A    
C11   C13   A    
C3    C8    S    
C32   C40   A    
O20   V3    S    
O4    C2    A    
C30   H18   S    
C22   C38   A    
C20   O22   S    
C33   C35   A    
C16   C18   S    
O4    V2    S    
C18   N2    S    
C28   H16   S    
O11   V4    S    
O16   C44   A    
N2    H22   S    
O21   H27   S    
O15   C43   A    
O6    C4    A    
N4    H25   S    
C23   C29   A    
O1    V2    S    
C24   C30   A    
O14   V4    S    
O2    V1    S    
C25   C27   A    
O13   V3    S    
C8    C10   A    
C12   C14   A    
C22   C36   A    
C9    H1    S    
C5    C15   A    
C38   H10   S    
O9    V2    S    
C6    C16   A    
O17   V3    S    
O3    V1    S    
C9    C11   A    
C19   H5    S    
C2    C21   S    
C39   H13   S    
O3    C1    A    
C17   N3    S    
C11   H3    S    
C12   H4    S    
C37   C39   A    
C17   N1    S    
C1    O8    A    
C13   C15   A    
O8    V2    S    
C14   C16   A    
C14   C41   S    
O16   V4    S    
N2    H21   S    
C21   C35   A    
C25   C33   A    
C23   C44   S    
C37   H9    S    
C4    C7    S    
C20   H6    S    
C5    C7    A    
C38   C40   A    
C6    C8    A    
O7    V1    S    
O19   V4    S    
N3    H24   S    
C10   C12   A    
C1    C22   S    
N1    H20   S    
C23   C27   A    
O10   V1    S    
C5    C19   S    
C6    C20   S    
O12   C44   A    
O11   C43   A    
