data_mof_unit_51966.cif
_audit_creation_date              2012-12-11T14:44:03-0500
_audit_creation_method            fapswitch 2.2
_symmetry_space_group_name_H-M    P1
_symmetry_Int_Tables_number       1
_space_group_crystal_system       triclinic
_cell_length_a                    19.27496
_cell_length_b                    11.188207
_cell_length_c                    18.830569
_cell_angle_alpha                 89.655443
_cell_angle_beta                  90.718444
_cell_angle_gamma                 90.203829
_cell_volume                      4060.43714324

loop_
_atom_site_label
_atom_site_type_symbol
_atom_type_description
_atom_site_fract_x
_atom_site_fract_y
_atom_site_fract_z
_atom_type_partial_charge
C1    C     C_R   0.728243 0.375292 0.145574 0.597492
C2    C     C_R   0.270907 0.372629 0.855106 0.599199
C3    C     C_R   0.228243 0.875292 0.145574 0.597492
C4    C     C_R   0.770907 0.872629 0.855106 0.599199
C5    C     C_R   0.479915 0.392433 0.935603 0.136937
C6    C     C_R   0.444738 0.339347 0.077156 0.119872
C7    C     C_R   0.979916 0.892433 0.935603 0.136937
C8    C     C_R   0.944738 0.839347 0.077156 0.119872
C9    C     C_R   0.952526 0.982012 0.979092 0.018144
C10   C     C_R   0.934102 0.955473 0.050167 0.007235
C11   C     C_R   0.452526 0.482012 0.979092 0.018144
C12   C     C_R   0.434102 0.455473 0.050167 0.007235
C13   C     C_R   0.730541 0.834511 0.047121 0.193609
C14   C     C_R   0.315125 0.910796 0.971210 0.168469
C15   C     C_R   0.230541 0.334511 0.047121 0.193609
C16   C     C_R   0.815125 0.410796 0.971210 0.168469
C17   C     C_R   0.725172 0.817452 0.974111 0.153684
C18   C     C_R   0.307271 0.906327 0.044862 0.171638
C19   C     C_R   0.225172 0.317452 0.974111 0.153684
C20   C     C_R   0.807271 0.406327 0.044862 0.171639
C21   C     C_R   0.750879 0.905561 0.926875 0.031560
C22   C     C_R   0.240699 0.908844 0.072452 0.018385
C23   C     C_R   0.250879 0.405561 0.926875 0.031560
C24   C     C_R   0.740699 0.408844 0.072452 0.018385
C25   C     C_R   0.764757 0.020071 0.951883 0.111709
C26   C     C_R   0.182975 0.924611 0.026711 0.130758
C27   C     C_R   0.264757 0.520071 0.951883 0.111708
C28   C     C_R   0.682975 0.424611 0.026711 0.130757
C29   C     C_R   0.759107 0.042420 0.023908 -0.138047
C30   C     C_R   0.190694 0.920787 0.954715 -0.099673
C31   C     C_R   0.259107 0.542420 0.023908 -0.138048
C32   C     C_R   0.690694 0.420787 0.954715 -0.099673
C33   C     C_R   0.746102 0.948132 0.071764 -0.017864
C34   C     C_R   0.255929 0.924528 0.925888 0.004263
C35   C     C_R   0.246102 0.448132 0.071764 -0.017864
C36   C     C_R   0.755929 0.424528 0.925888 0.004263
C37   C     C_R   0.488436 0.063249 0.461630 0.109520
C38   C     C_R   0.497691 0.059699 0.534614 0.145754
C39   C     C_R   0.988436 0.563249 0.461630 0.109520
C40   C     C_R   0.997691 0.559699 0.534614 0.145754
C41   C     C_R   0.493164 0.166595 0.573439 -0.022902
C42   C     C_R   0.503423 0.169280 0.424851 -0.034512
C43   C     C_R   0.993164 0.666595 0.573439 -0.022902
C44   C     C_R   0.003423 0.669280 0.424851 -0.034512
C45   C     C_R   0.536534 0.152664 0.143628 0.599788
C46   C     C_R   0.469619 0.157116 0.851775 0.595455
C47   C     C_R   0.036534 0.652664 0.143628 0.599788
C48   C     C_R   0.969619 0.657116 0.851775 0.595455
C49   C     C_R   0.496080 0.277470 0.536719 0.151695
C50   C     C_R   0.507486 0.278474 0.463185 0.150761
C51   C     C_R   0.996080 0.777470 0.536719 0.151695
C52   C     C_R   0.007486 0.778474 0.463185 0.150761
C53   C     C_R   0.777798 0.044080 0.484446 0.129692
C54   C     C_R   0.211041 0.016267 0.522564 0.158663
C55   C     C_R   0.277798 0.544080 0.484446 0.129692
C56   C     C_R   0.711041 0.516267 0.522564 0.158663
C57   C     C_R   0.767933 0.039439 0.557737 0.165457
C58   C     C_R   0.221298 0.016200 0.449752 0.187561
C59   C     C_R   0.267933 0.539439 0.557737 0.165457
C60   C     C_R   0.721297 0.516200 0.449752 0.187561
C61   C     C_R   0.743154 0.931687 0.582508 0.022897
C62   C     C_R   0.255140 0.921147 0.420157 0.000605
C63   C     C_R   0.243153 0.431687 0.582508 0.022897
C64   C     C_R   0.755140 0.421147 0.420157 0.000605
C65   C     C_R   0.690572 0.877124 0.543173 -0.074663
C66   C     C_R   0.297621 0.849030 0.462796 -0.100951
C67   C     C_R   0.190572 0.377124 0.543173 -0.074663
C68   C     C_R   0.797621 0.349030 0.462796 -0.100951
C69   C     C_R   0.677314 0.913036 0.472774 -0.023201
C70   C     C_R   0.302204 0.866541 0.536064 -0.022342
C71   C     C_R   0.177314 0.413036 0.472774 -0.023201
C72   C     C_R   0.802204 0.366541 0.536064 -0.022342
C73   C     C_R   0.727688 0.989985 0.439615 -0.029664
C74   C     C_R   0.254341 0.946036 0.567585 -0.016400
C75   C     C_R   0.227688 0.489985 0.439615 -0.029664
C76   C     C_R   0.754341 0.446035 0.567585 -0.016400
C77   C     C_R   0.739792 0.976971 0.145886 0.607682
C78   C     C_R   0.260613 0.971786 0.853477 0.592157
C79   C     C_R   0.239792 0.476971 0.145886 0.607682
C80   C     C_R   0.760613 0.471786 0.853477 0.592157
C81   C     C_R   0.731021 0.378464 0.351300 0.578551
C82   C     C_R   0.269449 0.379243 0.648447 0.572577
C83   C     C_R   0.231021 0.878464 0.351300 0.578551
C84   C     C_R   0.769449 0.879243 0.648447 0.572577
C85   C     C_R   0.532580 0.157572 0.353365 0.581449
C86   C     C_R   0.466887 0.157426 0.646243 0.586015
C87   C     C_R   0.032580 0.657572 0.353365 0.581449
C88   C     C_R   0.966887 0.657426 0.646243 0.586015
C89   C     C_R   0.728192 0.016925 0.362031 0.545824
C90   C     C_R   0.259825 0.977596 0.643278 0.560968
C91   C     C_R   0.228192 0.516925 0.362031 0.545824
C92   C     C_R   0.759825 0.477596 0.643278 0.560968
C93   C     C_R   0.506988 0.175842 0.919580 0.005667
C94   C     C_R   0.513228 0.152955 0.068056 0.016373
C95   C     C_R   0.006989 0.675842 0.919580 0.005668
C96   C     C_R   0.013228 0.652955 0.068056 0.016373
C97   C     C_R   0.489045 0.274558 0.962994 -0.050091
C98   C     C_R   0.481676 0.254919 0.036870 -0.019616
C99   C     C_R   0.989045 0.774558 0.962994 -0.050091
C100  C     C_R   0.981676 0.754919 0.036870 -0.019616
C101  C     C_R   0.539440 0.061552 0.022963 0.162748
C102  C     C_R   0.539877 0.077681 0.949613 0.178564
C103  C     C_R   0.039440 0.561552 0.022963 0.162748
C104  C     C_R   0.039877 0.577681 0.949613 0.178564
Cr1   Cr    Cr6+3 0.772000 0.169640 0.250110 1.131281
Cr2   Cr    Cr6+3 0.228000 0.169640 0.749890 1.170649
Cr3   Cr    Cr6+3 0.272000 0.669640 0.250110 1.131281
Cr4   Cr    Cr6+3 0.728000 0.669640 0.749890 1.170649
Cr5   Cr    Cr6+3 0.614960 0.323350 0.249260 1.160640
Cr6   Cr    Cr6+3 0.385040 0.323350 0.750740 1.147024
Cr7   Cr    Cr6+3 0.114960 0.823350 0.249260 1.160640
Cr8   Cr    Cr6+3 0.885040 0.823350 0.750740 1.147024
Cr9   Cr    Cr6+3 0.616670 0.010620 0.250840 1.145290
Cr10  Cr    Cr6+3 0.383330 0.010620 0.749160 1.145428
Cr11  Cr    Cr6+3 0.116670 0.510620 0.250840 1.145290
Cr12  Cr    Cr6+3 0.883330 0.510620 0.749160 1.145428
H1    H     H_    0.659483 0.810370 0.568487 0.234285
H2    H     H_    0.326066 0.777578 0.438797 0.228807
H3    H     H_    0.159483 0.310370 0.568487 0.234285
H4    H     H_    0.826066 0.277578 0.438797 0.228807
H5    H     H_    0.764879 0.133286 0.042627 0.180086
H6    H     H_    0.145809 0.932910 0.921308 0.224817
H7    H     H_    0.264879 0.633286 0.042627 0.180086
H8    H     H_    0.645809 0.432910 0.921308 0.224817
O1    O     O_R   0.787540 0.042690 0.170470 -0.500928
O2    O     O_R   0.212460 0.042690 0.829530 -0.460772
O3    O     O_R   0.287540 0.542690 0.170470 -0.500930
O4    O     O_R   0.712460 0.542690 0.829530 -0.460772
O5    O     O_R   0.556540 0.252920 0.323970 -0.459834
O6    O     O_R   0.443460 0.252920 0.676030 -0.460891
O7    O     O_R   0.056540 0.752920 0.323970 -0.459834
O8    O     O_R   0.943460 0.752920 0.676030 -0.460891
O9    O     O_R   0.545870 0.051100 0.330840 -0.512822
O10   O     O_R   0.454130 0.051100 0.669160 -0.461841
O11   O     O_R   0.045870 0.551100 0.330840 -0.512822
O12   O     O_R   0.954130 0.551100 0.669160 -0.461841
O13   O     O_R   0.681340 0.959300 0.325510 -0.514795
O14   O     O_R   0.318660 0.959300 0.674490 -0.531431
O15   O     O_R   0.181340 0.459300 0.325510 -0.514795
O16   O     O_R   0.818660 0.459300 0.674490 -0.531431
O17   O     O_3   0.667880 0.167870 0.250070 -0.363417
O18   O     O_3   0.332120 0.167870 0.749930 -0.337804
O19   O     O_3   0.167880 0.667870 0.250070 -0.363417
O20   O     O_3   0.832120 0.667870 0.749930 -0.337804
O21   O     O_R   0.765660 0.292160 0.175050 -0.476910
O22   O     O_R   0.234340 0.292160 0.824950 -0.452586
O23   O     O_R   0.265660 0.792160 0.175050 -0.476910
O24   O     O_R   0.734340 0.792160 0.824950 -0.452586
O25   O     O_R   0.670190 0.408980 0.168550 -0.439940
O26   O     O_R   0.329810 0.408980 0.831450 -0.486580
O27   O     O_R   0.170190 0.908980 0.168550 -0.439940
O28   O     O_R   0.829810 0.908980 0.831450 -0.486580
O29   O     O_R   0.556580 0.251450 0.175160 -0.472641
O30   O     O_R   0.443420 0.251450 0.824840 -0.485435
O31   O     O_R   0.056580 0.751450 0.175160 -0.472641
O32   O     O_R   0.943420 0.751450 0.824840 -0.485435
O33   O     O_R   0.545920 0.049510 0.170320 -0.437650
O34   O     O_R   0.454080 0.049510 0.829680 -0.430578
O35   O     O_R   0.045920 0.549510 0.170320 -0.437650
O36   O     O_R   0.954080 0.549510 0.829680 -0.430578
O37   O     O_R   0.681390 0.957840 0.176710 -0.441633
O38   O     O_R   0.318610 0.957840 0.823290 -0.457437
O39   O     O_R   0.181390 0.457840 0.176710 -0.441633
O40   O     O_R   0.818610 0.457840 0.823290 -0.457437
O41   O     O_R   0.787500 0.044280 0.330990 -0.425931
O42   O     O_R   0.212500 0.044280 0.669010 -0.443951
O43   O     O_R   0.287500 0.544280 0.330990 -0.425931
O44   O     O_R   0.712500 0.544280 0.669010 -0.443951
O45   O     O_R   0.765610 0.293630 0.323860 -0.515177
O46   O     O_R   0.234390 0.293630 0.676140 -0.501120
O47   O     O_R   0.265610 0.793630 0.323860 -0.515177
O48   O     O_R   0.734390 0.793630 0.676140 -0.501120
O49   O     O_R   0.670140 0.410570 0.329080 -0.433917
O50   O     O_R   0.329860 0.410570 0.670920 -0.456421
O51   O     O_R   0.170140 0.910570 0.329080 -0.433917
O52   O     O_R   0.829860 0.910570 0.670920 -0.456421
Br1   Br    Br    0.566159 0.904444 0.056170 -0.216028
Br2   Br    Br    0.585613 0.966681 0.887672 -0.307845
Br3   Br    Br    0.066159 0.404445 0.056170 -0.216028
Br4   Br    Br    0.085613 0.466681 0.887672 -0.307845
Br5   Br    Br    0.872022 0.048420 0.454894 -0.274207
Br6   Br    Br    0.126658 0.085085 0.554225 -0.239669
Br7   Br    Br    0.372022 0.548420 0.454894 -0.274208
Br8   Br    Br    0.626658 0.585085 0.554225 -0.239669
Br9   Br    Br    0.705108 0.156741 0.593939 -0.539045
Br10  Br    Br    0.194004 0.144369 0.387935 -0.333886
Br11  Br    Br    0.205108 0.656740 0.593939 -0.539045
Br12  Br    Br    0.694004 0.644369 0.387935 -0.333886
C105  C     C_2   0.614333 0.862437 0.437204 0.345288
H9    H     H_    0.594226 0.894130 0.388160 0.199494
O53   O     O_2   0.582322 0.779040 0.462742 -0.335667
C106  C     C_2   0.350837 0.790243 0.578186 0.344169
H10   H     H_    0.340696 0.767172 0.633032 0.166281
O54   O     O_2   0.402374 0.748385 0.551285 -0.348312
C107  C     C_2   0.114333 0.362437 0.437204 0.345288
H11   H     H_    0.094226 0.394130 0.388160 0.199494
O55   O     O_2   0.082322 0.279040 0.462742 -0.335667
C108  C     C_2   0.850837 0.290243 0.578186 0.344169
H12   H     H_    0.840696 0.267172 0.633032 0.166281
O56   O     O_2   0.902373 0.248385 0.551285 -0.348312
Br13  Br    Br    0.526616 0.445350 0.849009 -0.403997
Br14  Br    Br    0.399982 0.292893 0.164850 -0.413536
Br15  Br    Br    0.026616 0.945350 0.849009 -0.403997
Br16  Br    Br    0.899983 0.792894 0.164850 -0.413536
C109  C     C_2   0.956780 0.106156 0.953087 0.406307
H13   H     H_    0.933581 0.130353 0.902315 0.175540
O57   O     O_2   0.991941 0.179258 0.985213 -0.301929
C110  C     C_2   0.916392 0.051253 0.101091 0.354820
H14   H     H_    0.925676 0.038201 0.157524 0.173625
O58   O     O_2   0.891483 0.145853 0.081350 -0.438926
C111  C     C_2   0.456780 0.606156 0.953087 0.406308
H15   H     H_    0.433581 0.630353 0.902315 0.175540
O59   O     O_2   0.491941 0.679257 0.985212 -0.301928
C112  C     C_2   0.416392 0.551253 0.101091 0.354818
H16   H     H_    0.425675 0.538201 0.157525 0.173625
O60   O     O_2   0.391484 0.645853 0.081349 -0.438925
Br17  Br    Br    0.713678 0.706276 0.113380 -0.289441
Br18  Br    Br    0.406229 0.887774 0.936626 -0.308347
Br19  Br    Br    0.213678 0.206276 0.113380 -0.289441
Br20  Br    Br    0.906229 0.387774 0.936626 -0.308347
Br21  Br    Br    0.661501 0.697923 0.942543 -0.282026
Br22  Br    Br    0.386354 0.918283 0.108526 -0.267396
Br23  Br    Br    0.161501 0.197923 0.942543 -0.282027
Br24  Br    Br    0.886354 0.418283 0.108526 -0.267396
Br25  Br    Br    0.781449 0.148626 0.886995 -0.473688
Br26  Br    Br    0.095718 0.984496 0.056471 -0.369329
Br27  Br    Br    0.281448 0.648626 0.886995 -0.473689
Br28  Br    Br    0.595718 0.484496 0.056471 -0.369328
Br29  Br    Br    0.449051 0.926063 0.414050 -0.346959
Br30  Br    Br    0.521560 0.908789 0.579070 -0.282059
Br31  Br    Br    0.949051 0.426063 0.414050 -0.346959
Br32  Br    Br    0.021560 0.408789 0.579070 -0.282059
Br33  Br    Br    0.484797 0.428941 0.584452 -0.209241
Br34  Br    Br    0.528097 0.431006 0.418524 -0.209303
Br35  Br    Br    0.984797 0.928941 0.584452 -0.209241
Br36  Br    Br    0.028097 0.931006 0.418524 -0.209303

loop_
_geom_bond_atom_site_label_1
_geom_bond_atom_site_label_2
_ccdc_geom_bond_type
C58   C62   A    
C71   C75   A    
C62   C83   S    
C82   O46   A    
C3    O23   A    
C101  C102  A    
C56   C76   A    
C48   C95   S    
C83   O51   A    
C58   Br10  S    
C39   Br31  S    
C14   C18   A    
Cr5   O49   S    
C1    O21   A    
C42   C50   A    
Cr3   O43   S    
C12   C112  S    
C72   C76   A    
C27   Br27  S    
C28   Br28  S    
C97   C98   A    
C70   C106  S    
C38   Br30  S    
C47   O35   A    
C109  H13   S    
C15   C19   A    
C41   C86   S    
C48   O36   A    
C16   C36   A    
C57   C61   A    
Cr1   O45   S    
C2    O26   A    
Cr7   O51   S    
C43   C88   S    
C32   C36   A    
C91   O43   A    
C6    Br14  S    
C55   C59   A    
C64   C68   A    
Cr1   O17   S    
C112  O60   D    
Cr10  O38   S    
C103  Br3   S    
C94   C98   A    
Cr11  O11   S    
C46   O34   A    
C29   C33   A    
Cr9   O33   S    
C51   Br35  S    
C87   O7    A    
C37   C42   A    
Cr6   O18   S    
C10   C110  S    
Cr10  O34   S    
C7    Br15  S    
C11   C111  S    
C54   C74   A    
C32   H8    S    
C86   O10   A    
C40   C43   A    
C80   O40   A    
C30   H6    S    
C94   C101  A    
Cr9   O17   S    
C110  H14   S    
C83   O47   A    
C70   C74   A    
C49   Br33  S    
C47   C96   S    
Cr8   O28   S    
C59   Br11  S    
C108  H12   S    
C23   C27   A    
C40   Br32  S    
C44   C87   S    
Cr5   O29   S    
C9    C10   A    
C57   Br9   S    
C75   C91   S    
C55   C75   A    
C44   C52   A    
C109  O57   D    
C48   O32   A    
C43   C51   A    
C60   Br12  S    
Cr12  O20   S    
C90   O42   A    
C77   O37   A    
Cr2   O46   S    
C4    O28   A    
C45   C94   S    
C41   C49   A    
C90   O14   A    
Cr2   O18   S    
Cr11  O19   S    
Cr6   O50   S    
C25   C29   A    
C108  O56   D    
C46   O30   A    
C63   C67   A    
Cr7   O19   S    
C30   C34   A    
C63   C82   S    
C27   C31   A    
C51   C52   A    
C82   O50   A    
C8    Br16  S    
C45   O33   A    
C88   O12   A    
C38   C41   A    
C36   C80   S    
C69   C105  S    
C39   C40   A    
C78   O2    A    
C62   C66   A    
C112  H16   S    
C86   O6    A    
C5    Br13  S    
Cr3   O47   S    
C107  H11   S    
C80   O4    A    
Cr6   O26   S    
Cr9   O37   S    
C17   C21   A    
C56   C60   A    
Cr11  O35   S    
C68   C72   A    
C4    O24   A    
C81   O49   A    
Cr5   O25   S    
C107  O55   D    
C73   C89   S    
C13   C33   A    
C37   C38   A    
Cr6   O30   S    
C85   O5    A    
Cr3   O23   S    
C92   O44   A    
C93   C97   A    
C71   C107  S    
C111  H15   S    
C28   C32   A    
C16   C20   A    
Cr1   O21   S    
C2    C23   S    
C54   Br6   S    
C20   Br24  S    
C19   Br23  S    
C42   C85   S    
C35   C79   S    
Cr8   O8    S    
C69   C73   A    
C89   O41   A    
C55   Br7   S    
C7    C99   A    
C76   C92   S    
Cr4   O44   S    
C91   O15   A    
Cr7   O7    S    
Cr8   O32   S    
Cr8   O52   S    
Cr11  O15   S    
C78   O38   A    
C89   O13   A    
Cr4   O48   S    
Cr12  O36   S    
C22   C26   A    
C102  Br2   S    
C31   C35   A    
C79   O39   A    
C45   O29   A    
C88   O8    A    
C15   Br19  S    
C92   O16   A    
C6    C98   A    
Cr4   O20   S    
C77   O1    A    
C95   C104  A    
C52   Br36  S    
C87   O11   A    
C54   C58   A    
C7    C9    A    
C21   C25   A    
C53   C57   A    
C111  O59   D    
C18   C22   A    
Cr2   O42   S    
C59   C63   A    
Cr12  O40   S    
C53   C73   A    
C24   C28   A    
C5    C97   A    
C1    O25   A    
C84   O48   A    
C61   C84   S    
Cr7   O27   S    
C93   C102  A    
C14   C34   A    
Cr5   O17   S    
C11   C12   A    
Cr10  O18   S    
C5    C11   A    
C39   C44   A    
Cr12  O12   S    
C29   H5    S    
Cr12  O16   S    
C2    O22   A    
C56   Br8   S    
C31   H7    S    
Cr2   O2    S    
Cr6   O6    S    
C3    O27   A    
C81   O45   A    
Cr2   O22   S    
C99   C100  A    
Cr1   O1    S    
C60   C64   A    
Cr9   O13   S    
C13   Br17  S    
C106  H10   S    
Cr8   O20   S    
C67   H3    S    
C8    C100  A    
C79   O3    A    
C110  O58   D    
C9    C109  S    
C68   H4    S    
Cr3   O19   S    
C6    C12   A    
C4    C21   S    
C33   C77   S    
C104  Br4   S    
C46   C93   S    
C47   O31   A    
C26   Br26  S    
C65   C69   A    
C74   C90   S    
C96   C100  A    
C25   Br25  S    
Cr10  O10   S    
C106  O54   D    
Cr1   O41   S    
C16   Br20  S    
C95   C99   A    
C67   C71   A    
Cr10  O14   S    
Cr11  O39   S    
C105  H9    S    
C18   Br22  S    
C53   Br5   S    
C64   C81   S    
C15   C35   A    
C101  Br1   S    
C72   C108  S    
C13   C17   A    
C17   Br21  S    
C61   C65   A    
C19   C23   A    
C66   C70   A    
C1    C24   S    
C8    C10   A    
C49   C50   A    
C66   H2    S    
C96   C103  A    
C103  C104  A    
C65   H1    S    
C14   Br18  S    
C3    C22   S    
Cr9   O9    S    
C37   Br29  S    
Cr3   O3    S    
C105  O53   D    
C84   O52   A    
Cr5   O5    S    
Cr7   O31   S    
C20   C24   A    
C34   C78   S    
Cr4   O4    S    
C85   O9    A    
Cr4   O24   S    
C26   C30   A    
C50   Br34  S    
