data_mof_unit_38996.cif
_audit_creation_date              2012-12-10T18:15:20-0500
_audit_creation_method            fapswitch 2.2
_symmetry_space_group_name_H-M    P1
_symmetry_Int_Tables_number       1
_space_group_crystal_system       triclinic
_cell_length_a                    12.653969
_cell_length_b                    13.17745
_cell_length_c                    23.457934
_cell_angle_alpha                 91.175274
_cell_angle_beta                  102.869498
_cell_angle_gamma                 82.666709
_cell_volume                      3781.9650753

loop_
_atom_site_label
_atom_site_type_symbol
_atom_type_description
_atom_site_fract_x
_atom_site_fract_y
_atom_site_fract_z
_atom_type_partial_charge
C1    C     C_R   0.439274 0.691041 0.490702 0.899618
C2    C     C_R   0.485993 0.699903 0.032108 -0.146352
C3    C     C_R   0.500885 0.699510 0.975142 -0.151837
C4    C     C_R   0.490756 0.610975 0.941110 -0.000289
C5    C     C_R   0.463985 0.522266 0.964403 -0.077549
C6    C     C_R   0.449057 0.434509 0.929584 -0.238625
C7    C     C_R   0.426660 0.344646 0.954246 0.512265
C8    C     C_R   0.415944 0.343916 0.012412 0.362495
C9    C     C_R   0.507686 0.608657 0.884255 0.607693
C10   C     C_R   0.455789 0.440207 0.870744 0.568609
C11   C     C_R   0.568083 0.449642 0.770934 -0.306604
C12   C     C_R   0.500685 0.502205 0.610112 1.051139
C13   C     C_R   0.570637 0.441482 0.711758 0.365506
C14   C     C_R   0.501388 0.511732 0.671926 -0.227601
C15   C     C_R   0.433871 0.592602 0.690872 0.294761
C16   C     C_R   0.432410 0.600669 0.750753 0.415371
C17   C     C_R   0.496967 0.526309 0.790103 0.155555
C18   C     C_R   0.565670 0.537911 0.240760 0.431534
C19   C     C_R   0.575399 0.536695 0.301949 0.351594
C20   C     C_R   0.495100 0.496306 0.325259 -0.413870
C21   C     C_R   0.408547 0.455071 0.286708 0.327353
C22   C     C_R   0.390473 0.472001 0.226629 0.419801
C23   C     C_R   0.560706 0.309007 0.506977 0.864637
C24   C     C_R   0.470518 0.509567 0.203349 -0.061034
C25   C     C_R   0.709346 0.063839 0.468929 -0.108681
C26   C     C_R   0.596373 0.200467 0.504032 -0.063549
C27   C     C_R   0.296959 0.837004 0.490609 -0.242416
C28   C     C_R   0.263324 0.941071 0.490037 -0.221383
C29   C     C_R   0.336546 0.011565 0.486983 0.547798
C30   C     C_R   0.444696 0.974313 0.480455 -0.023696
C31   C     C_R   0.469609 0.869386 0.469646 -0.029418
C32   C     C_R   0.529573 0.036615 0.484366 0.010827
C33   C     C_R   0.627633 0.999294 0.466299 0.056134
C34   C     C_R   0.499237 0.498244 0.389045 0.959858
C35   C     C_R   0.643118 0.899392 0.445487 0.499079
C36   C     C_R   0.562412 0.835568 0.446896 -0.276603
C37   C     C_R   0.522330 0.133868 0.508711 -0.120505
C38   C     C_R   0.692500 0.164713 0.486436 -0.244769
C39   C     C_R   0.400669 0.800305 0.481821 -0.075556
C40   C     C_R   0.087545 0.340042 0.421742 0.462469
C41   C     C_R   0.799037 0.633407 0.567493 0.486629
C42   C     C_R   0.904452 0.663614 0.580233 0.389008
C43   C     C_R   0.983108 0.614950 0.552300 -0.325946
C44   C     C_R   0.960901 0.532121 0.514522 -0.006395
C45   C     C_R   0.448610 0.427374 0.109153 0.605557
C46   C     C_R   0.854439 0.503093 0.504290 0.074237
C47   C     C_R   0.039896 0.477263 0.486744 -0.086532
C48   C     C_R   0.010204 0.393550 0.449665 -0.121964
C49   C     C_R   0.903959 0.365695 0.440607 0.406125
C50   C     C_R   0.828049 0.421751 0.467399 -0.286293
C51   C     C_R   0.148071 0.501730 0.494742 -0.152564
C52   C     C_R   0.193718 0.364299 0.434119 0.440400
C53   C     C_R   0.458964 0.607101 0.115390 0.583132
C54   C     C_R   0.465399 0.610479 0.056837 -0.008819
C55   C     C_R   0.454730 0.521049 0.023045 -0.068144
C56   C     C_R   0.437146 0.430233 0.048219 -0.251431
H1    H     H_    0.494602 0.769324 0.057333 0.194488
H2    H     H_    0.752454 0.215222 0.484307 0.171698
H3    H     H_    0.784648 0.038238 0.455322 0.207130
H4    H     H_    0.458814 0.160957 0.531125 0.194310
H5    H     H_    0.241226 0.785108 0.497768 0.178014
H6    H     H_    0.179971 0.966623 0.492890 0.167478
H7    H     H_    0.519852 0.768875 0.957797 0.189907
H8    H     H_    0.570238 0.759467 0.429366 0.175574
H9    H     H_    0.176302 0.564669 0.520991 0.156773
H10   H     H_    0.060659 0.643543 0.561623 0.161682
H11   H     H_    0.747250 0.401846 0.457253 0.204486
H12   H     H_    0.619317 0.394726 0.802265 0.172798
N1    N     N_R   0.456656 0.515436 0.141067 -0.308257
N2    N     N_R   0.487172 0.525249 0.849825 -0.321864
N3    N     N_R   0.222200 0.444670 0.469780 -0.186754
N4    N     N_R   0.776960 0.554790 0.529910 -0.156841
O1    O     O_R   0.366740 0.627150 0.485570 -0.628009
O2    O     O_2   0.458495 0.693847 0.146998 -0.528918
O3    O     O_2   0.544944 0.688777 0.863575 -0.530280
O4    O     O_2   0.430029 0.362200 0.834241 -0.502654
O5    O     O_R   0.544830 0.662520 0.504870 -0.564875
O6    O     O_R   0.410930 0.482340 0.574190 -0.634570
O7    O     O_R   0.589010 0.517710 0.593490 -0.535820
O8    O     O_R   0.455170 0.337480 0.495130 -0.618345
O9    O     O_R   0.633260 0.372850 0.514430 -0.638025
O10   O     O_R   0.410990 0.482290 0.406510 -0.604234
O11   O     O_R   0.589070 0.517660 0.425810 -0.608348
O12   O     O_2   0.457952 0.336918 0.136955 -0.527295
Zn1   Zn    Zn3+2 0.381090 0.476380 0.487110 0.959783
Zn2   Zn    Zn3+2 0.618910 0.523620 0.512890 1.006671
O13   O     O_3   0.655113 0.585014 0.338835 -0.589433
C57   C     C_3   0.760937 0.537553 0.337243 -0.265214
H13   H     H_    0.765273 0.453106 0.331510 0.153685
H14   H     H_    0.816869 0.552491 0.379109 0.163984
H15   H     H_    0.792964 0.573528 0.303423 0.206225
O14   O     O_3   0.338971 0.399477 0.307120 -0.577277
C58   C     C_3   0.374559 0.294435 0.301211 -0.207067
H16   H     H_    0.382587 0.274397 0.255885 0.200203
H17   H     H_    0.312897 0.248900 0.311050 0.218044
H18   H     H_    0.453355 0.271226 0.332769 0.139199
O15   O     O_3   0.297736 0.443120 0.190002 -0.556183
C59   C     C_3   0.214889 0.527093 0.183109 -0.253097
H19   H     H_    0.238698 0.593687 0.162655 0.163986
H20   H     H_    0.193584 0.549339 0.225608 0.173381
H21   H     H_    0.140425 0.504555 0.153486 0.184135
O16   O     O_3   0.741632 0.868029 0.428658 -0.636991
C60   C     C_3   0.744008 0.775362 0.397950 -0.209340
H22   H     H_    0.674277 0.778079 0.359346 0.208525
H23   H     H_    0.747014 0.709998 0.427718 0.184396
H24   H     H_    0.820087 0.763687 0.381303 0.185954
O17   O     O_3   0.298128 0.115234 0.480764 -0.569562
C61   C     C_3   0.242355 0.149112 0.525057 -0.270254
H25   H     H_    0.278190 0.109458 0.567824 0.138451
H26   H     H_    0.154180 0.140742 0.510681 0.192400
H27   H     H_    0.248820 0.231658 0.532528 0.190717
O18   O     O_3   0.267895 0.302089 0.410453 -0.705584
H28   H     H_    0.328757 0.339983 0.409477 0.398565
O19   O     O_3   0.874509 0.284491 0.404761 -0.728784
H29   H     H_    0.795088 0.280924 0.399208 0.310410
O20   O     O_3   0.062522 0.259655 0.384316 -0.503778
C62   C     C_3   0.036535 0.297268 0.326279 -0.162479
H30   H     H_    0.966344 0.359387 0.319180 0.121722
H31   H     H_    0.012215 0.233912 0.296343 0.187110
H32   H     H_    0.108269 0.324801 0.314248 0.170691
O21   O     O_3   0.716545 0.680847 0.592173 -0.715204
H33   H     H_    0.741011 0.741190 0.614675 0.353719
O22   O     O_3   0.930078 0.743558 0.617668 -0.606403
C63   C     C_3   0.969793 0.703133 0.674723 -0.296983
H34   H     H_    0.042066 0.644242 0.677184 0.158511
H35   H     H_    0.904834 0.670259 0.690694 0.177296
H36   H     H_    0.995977 0.766100 0.704530 0.211977
O23   O     O_3   0.408593 0.258194 0.920840 -0.527450
C64   C     C_3   0.506956 0.190739 0.930418 -0.144470
H37   H     H_    0.531924 0.162973 0.976525 0.170258
H38   H     H_    0.573961 0.227021 0.918482 0.130274
H39   H     H_    0.493762 0.123037 0.902063 0.194328
O24   O     O_3   0.381475 0.258445 0.031864 -0.695753
H40   H     H_    0.329248 0.282010 0.056634 0.374514
O25   O     O_3   0.637759 0.364570 0.691657 -0.750599
H41   H     H_    0.680655 0.321831 0.725287 0.346079
O26   O     O_3   0.377501 0.667822 0.651308 -0.603480
C65   C     C_3   0.266699 0.652307 0.635440 -0.289585
H42   H     H_    0.256064 0.571760 0.622762 0.165853
H43   H     H_    0.227015 0.702382 0.597290 0.185397
H44   H     H_    0.224037 0.674652 0.671118 0.180577
O27   O     O_3   0.367877 0.678343 0.771952 -0.735834
H45   H     H_    0.349771 0.736607 0.744031 0.371379
O28   O     O_3   0.644008 0.577030 0.217803 -0.549866
C66   C     C_3   0.706967 0.496267 0.195071 -0.319010
H46   H     H_    0.665727 0.476893 0.150087 0.177842
H47   H     H_    0.726801 0.426332 0.223311 0.139409
H48   H     H_    0.785648 0.522305 0.192298 0.184016

loop_
_geom_bond_atom_site_label_1
_geom_bond_atom_site_label_2
_ccdc_geom_bond_type
O13   C57   S    
C58   H16   S    
C1    O5    A    
C41   C42   A    
C19   C20   A    
C55   C56   A    
C35   O16   S    
C53   N1    A    
O23   C64   S    
C8    C56   A    
O19   H29   S    
C2    H1    S    
O22   C63   S    
C53   C54   A    
C61   H25   S    
C29   C30   A    
C18   C24   A    
C5    C6    A    
C28   C29   A    
C19   O13   S    
C62   H31   S    
C30   C31   A    
C52   O18   S    
C15   C16   A    
C12   O7    A    
O15   C59   S    
O20   C62   S    
C18   C19   A    
C51   H9    S    
C23   C26   S    
C41   O21   S    
C27   H5    S    
C38   H2    S    
C10   O4    S    
C35   C36   A    
C45   C56   A    
C27   C39   A    
C16   C17   A    
C12   O6    A    
C42   O22   S    
O17   C61   S    
C9    O3    S    
C7    O23   S    
C50   H11   S    
C31   C36   A    
C46   N4    A    
O9    Zn2   S    
C44   C47   A    
C64   H39   S    
C20   C34   S    
O25   H41   S    
C49   O19   S    
C17   N2    S    
C58   H17   S    
C22   O15   S    
N3    Zn1   S    
C13   C14   A    
C13   O25   S    
C51   N3    A    
O18   H28   S    
C66   H47   S    
C44   C46   A    
C24   N1    S    
C66   H46   S    
C45   N1    A    
C7    C8    A    
C9    N2    A    
C2    C54   A    
C62   H32   S    
C26   C38   A    
C47   C51   A    
C40   C52   A    
C16   O27   S    
C43   C44   A    
O8    Zn1   S    
C25   C38   A    
C47   C48   A    
C57   H15   S    
C60   H23   S    
C32   C37   A    
C57   H13   S    
O1    Zn1   S    
O21   H33   S    
C65   H43   S    
C41   N4    A    
C10   N2    A    
O6    Zn1   S    
C48   C49   A    
C12   C14   S    
O5    Zn2   S    
C59   H19   S    
C58   H18   S    
C59   H20   S    
C63   H36   S    
O24   H40   S    
C23   O8    A    
C22   C24   A    
C45   O12   S    
C42   C43   A    
C3    C4    A    
C59   H21   S    
C60   H22   S    
C66   H48   S    
C11   H12   S    
C63   H35   S    
C64   H37   S    
C40   C48   A    
C54   C55   A    
C11   C17   A    
C23   O9    A    
C8    O24   S    
O27   H45   S    
C5    C55   A    
C57   H14   S    
O28   C66   S    
C65   H44   S    
C6    C10   A    
N4    Zn2   S    
C61   H26   S    
C26   C37   A    
C6    C7    A    
C3    H7    S    
O10   Zn1   S    
C25   H3    S    
O26   C65   S    
C46   C50   A    
C61   H27   S    
C1    O1    A    
C32   C33   A    
C18   O28   S    
C2    C3    A    
C52   N3    A    
C36   H8    S    
C62   H30   S    
C30   C32   A    
C11   C13   A    
C40   O20   S    
C43   H10   S    
O14   C58   S    
C33   C35   A    
C31   C39   A    
C60   H24   S    
O16   C60   S    
C37   H4    S    
C65   H42   S    
C1    C39   S    
C4    C5    A    
O11   Zn2   S    
C20   C21   A    
C49   C50   A    
C34   O11   A    
C27   C28   A    
C14   C15   A    
C29   O17   S    
C34   O10   A    
C64   H38   S    
C4    C9    A    
C21   C22   A    
C21   O14   S    
O7    Zn2   S    
C25   C33   A    
C63   H34   S    
C15   O26   S    
C53   O2    S    
C28   H6    S    
