data_mof_unit_31379.cif
_audit_creation_date              2012-12-11T16:28:01-0500
_audit_creation_method            fapswitch 2.2
_symmetry_space_group_name_H-M    P1
_symmetry_Int_Tables_number       1
_space_group_crystal_system       triclinic
_cell_length_a                    30.307881
_cell_length_b                    22.624819
_cell_length_c                    18.262373
_cell_angle_alpha                 90.388194
_cell_angle_beta                  124.425293
_cell_angle_gamma                 90.142983
_cell_volume                      10328.9818414

loop_
_atom_site_label
_atom_site_type_symbol
_atom_type_description
_atom_site_fract_x
_atom_site_fract_y
_atom_site_fract_z
_atom_type_partial_charge
C1    C     C_R   0.544770 0.581608 0.742075 -0.129731
C2    C     C_R   0.610394 0.267772 0.423438 -0.198208
C3    C     C_R   0.803108 0.624083 0.036267 -0.211954
C4    C     C_R   0.228582 0.707587 0.825138 -0.211351
C5    C     C_R   0.734977 0.211710 0.092223 -0.224075
C6    C     C_R   0.773241 0.704289 0.180797 -0.211950
C7    C     C_R   0.229142 0.295730 0.816697 -0.214541
C8    C     C_R   0.734241 0.157662 0.870361 -0.252685
C9    C     C_R   0.147768 0.652162 0.939882 -0.234542
C10   C     C_R   0.144569 0.358554 0.921318 -0.232563
C11   C     C_R   0.853047 0.647029 0.064832 -0.235329
C12   C     C_R   0.280019 0.687608 0.858524 -0.236622
C13   C     C_R   0.698291 0.598198 0.437857 -0.202861
C14   C     C_R   0.696795 0.250468 0.083169 -0.229052
C15   C     C_R   0.721206 0.685284 0.146314 -0.237845
C16   C     C_R   0.281809 0.313231 0.854100 -0.245720
C17   C     C_R   0.597502 0.581918 0.430653 -0.131386
C18   C     C_R   0.416578 0.395329 0.570601 -0.161522
C19   C     C_R   0.402888 0.582216 0.569916 -0.128961
C20   C     C_R   0.575224 0.389113 0.428392 -0.130465
C21   C     C_R   0.097268 0.082831 0.430729 -0.128562
C22   C     C_R   0.910682 0.902207 0.570380 -0.158700
C23   C     C_R   0.907139 0.091023 0.570963 -0.163143
C24   C     C_R   0.374390 0.261914 0.510421 -0.189692
C25   C     C_R   0.089582 0.903133 0.428835 -0.159124
C26   C     C_R   0.381624 0.582920 0.258274 -0.122712
C27   C     C_R   0.615820 0.410823 0.738186 -0.161994
C28   C     C_R   0.618508 0.583300 0.742340 -0.120287
C29   C     C_R   0.381127 0.418384 0.256058 -0.129634
C30   C     C_R   0.882888 0.087198 0.262711 -0.134169
C31   C     C_R   0.109627 0.895817 0.716928 -0.127102
C32   C     C_R   0.106142 0.109498 0.705194 -0.129610
C33   C     C_R   0.890317 0.895117 0.282855 -0.126325
C34   C     C_R   0.598624 0.597119 0.793206 0.052671
C35   C     C_R   0.783320 0.101831 0.496023 -0.218650
C36   C     C_R   0.400973 0.404926 0.205165 0.062455
C37   C     C_R   0.401540 0.596792 0.207649 0.053628
C38   C     C_R   0.591930 0.391607 0.780434 0.060915
C39   C     C_R   0.077592 0.141504 0.730934 0.052749
C40   C     C_R   0.918025 0.864692 0.254208 0.051969
C41   C     C_R   0.903796 0.104196 0.215285 0.058452
C42   C     C_R   0.082096 0.865876 0.746205 0.051607
C43   C     C_R   0.648548 0.594725 0.507621 0.061487
C44   C     C_R   0.375109 0.367691 0.493172 0.067890
C45   C     C_R   0.351958 0.594803 0.493289 0.064177
C46   C     C_R   0.134679 0.773823 0.497264 -0.190882
C47   C     C_R   0.612446 0.356417 0.504429 0.070250
C48   C     C_R   0.147968 0.096198 0.507969 0.067158
C49   C     C_R   0.865773 0.878502 0.493627 0.060812
C50   C     C_R   0.862077 0.114029 0.494958 0.061952
C51   C     C_R   0.134527 0.880208 0.505090 0.063059
C52   C     C_R   0.219487 0.667211 0.425320 0.090409
C53   C     C_R   0.703482 0.221034 0.573715 0.087217
C54   C     C_R   0.781808 0.666704 0.576073 0.087101
C55   C     C_R   0.262842 0.260379 0.427900 0.083776
C56   C     C_R   0.755355 0.221481 0.452506 0.082396
C57   C     C_R   0.200226 0.097294 0.443419 -0.209895
C58   C     C_R   0.244777 0.771656 0.568603 0.082903
C59   C     C_R   0.281203 0.169358 0.580338 0.081953
C60   C     C_R   0.756351 0.766587 0.429121 0.085738
C61   C     C_R   0.257201 0.639819 0.413409 0.089758
C62   C     C_R   0.674707 0.266324 0.584449 0.082924
C63   C     C_R   0.743591 0.640311 0.587797 0.089042
C64   C     C_R   0.289308 0.315023 0.439544 0.077053
C65   C     C_R   0.801801 0.199336 0.461065 0.080229
C66   C     C_R   0.218860 0.826902 0.553873 0.074655
C67   C     C_R   0.241521 0.144563 0.589712 0.094040
C68   C     C_R   0.866690 0.771919 0.502715 -0.191862
C69   C     C_R   0.781577 0.822514 0.442777 0.070204
C70   C     C_R   0.302927 0.611661 0.488455 0.072624
C71   C     C_R   0.632283 0.295646 0.506193 0.064489
C72   C     C_R   0.698116 0.610462 0.513208 0.071848
C73   C     C_R   0.345771 0.314582 0.484024 0.059808
C74   C     C_R   0.816204 0.139917 0.487216 0.045893
C75   C     C_R   0.162960 0.826630 0.513918 0.055429
C76   C     C_R   0.197680 0.112604 0.515424 0.071178
C77   C     C_R   0.837604 0.824004 0.483784 0.054180
C78   C     C_3   0.168613 0.696007 0.348085 -0.425209
C79   C     C_R   0.267193 0.629998 0.576222 -0.234401
C80   C     C_3   0.176822 0.761097 0.334370 -0.248315
C81   C     C_3   0.127336 0.785429 0.250099 -0.941982
C82   C     C_3   0.750255 0.187425 0.652383 -0.430932
C83   C     C_3   0.805984 0.206921 0.677109 -0.238593
C84   C     C_3   0.850030 0.188366 0.771287 -0.956358
C85   C     C_3   0.832181 0.697666 0.652826 -0.423346
C86   C     C_3   0.823338 0.763207 0.663453 -0.248426
C87   C     C_3   0.871142 0.789331 0.749499 -0.944197
C88   C     C_3   0.201940 0.256127 0.375901 -0.417107
C89   C     C_3   0.180460 0.274232 0.431453 -0.249625
C90   C     C_R   0.637449 0.223054 0.413688 -0.231506
C91   C     C_3   0.121577 0.257339 0.384516 -0.912821
C92   C     C_3   0.738488 0.285812 0.426967 -0.430006
C93   C     C_3   0.762466 0.326903 0.508302 -0.256960
C94   C     C_3   0.747579 0.391187 0.480708 -0.914293
C95   C     C_3   0.305122 0.767849 0.613462 -0.423386
C96   C     C_3   0.321514 0.781174 0.549554 -0.244881
C97   C     C_3   0.379914 0.765428 0.590612 -0.914368
C98   C     C_3   0.329206 0.204197 0.656060 -0.419101
C99   C     C_3   0.318069 0.270367 0.657140 -0.252604
C100  C     C_3   0.365685 0.301778 0.737526 -0.957313
C101  C     C_R   0.735221 0.624927 0.426817 -0.228774
C102  C     C_3   0.695882 0.760953 0.382306 -0.423424
C103  C     C_3   0.677914 0.775096 0.444033 -0.242433
C104  C     C_3   0.619178 0.758854 0.400402 -0.916814
C105  C     C_3   0.248117 0.642983 0.322408 -0.446638
C106  C     C_3   0.217829 0.587709 0.266044 -0.228845
C107  C     C_3   0.210261 0.589430 0.176161 -0.969075
C108  C     C_3   0.687005 0.278791 0.676360 -0.425508
C109  C     C_3   0.739816 0.313893 0.736620 -0.259040
C110  C     C_3   0.755107 0.320531 0.831437 -0.922722
C111  C     C_3   0.751693 0.646540 0.677898 -0.447020
C112  C     C_R   0.454767 0.420025 0.256771 -0.148522
C113  C     C_R   0.348793 0.209201 0.501488 -0.224898
C114  C     C_3   0.782487 0.593335 0.737258 -0.229283
C115  C     C_3   0.789220 0.598216 0.826369 -0.960376
C116  C     C_3   0.259255 0.373792 0.412598 -0.437572
C117  C     C_3   0.270966 0.409331 0.493921 -0.252257
C118  C     C_3   0.237861 0.465653 0.466125 -0.915245
C119  C     C_3   0.836889 0.238512 0.445751 -0.422713
C120  C     C_3   0.816966 0.238482 0.347446 -0.251215
C121  C     C_3   0.848850 0.281961 0.330774 -0.913350
C122  C     C_3   0.248662 0.885811 0.574671 -0.433678
C123  C     C_3   0.234493 0.916934 0.489474 -0.255250
C124  C     C_R   0.737366 0.122708 0.485308 -0.226221
C125  C     C_3   0.272218 0.968928 0.510621 -0.914536
C126  C     C_3   0.245526 0.155740 0.675962 -0.449251
C127  C     C_3   0.278589 0.107544 0.745108 -0.244600
C128  C     C_3   0.277432 0.115192 0.827091 -0.928157
C129  C     C_3   0.750874 0.880387 0.421104 -0.430395
C130  C     C_3   0.763601 0.912005 0.505829 -0.237771
C131  C     C_3   0.721709 0.958611 0.484526 -0.969215
C132  C     C_R   0.159761 0.720304 0.511185 -0.228203
C133  C     C_R   0.239233 0.121192 0.435446 -0.234451
C134  C     C_R   0.842319 0.717742 0.490479 -0.228186
C135  C     C_R   0.229935 0.668039 0.511233 0.081348
C136  C     C_R   0.686973 0.205959 0.486356 0.077010
C137  C     C_R   0.772117 0.664810 0.490671 0.075052
C138  C     C_R   0.294570 0.209067 0.467889 0.064287
C139  C     C_R   0.725171 0.182523 0.469525 0.069644
C140  C     C_R   0.455288 0.581363 0.258248 -0.126936
C141  C     C_R   0.212928 0.719120 0.538704 0.060180
C142  C     C_R   0.275075 0.162393 0.497866 0.080246
C143  C     C_R   0.788924 0.715196 0.461745 0.061622
C144  C     C_R   0.369483 0.613401 0.112726 0.131882
C145  C     C_R   0.614543 0.353150 0.856176 0.130066
C146  C     C_R   0.630639 0.612932 0.888857 0.130630
C147  C     C_R   0.369509 0.388515 0.109727 0.131387
C148  C     C_R   0.869837 0.127265 0.125990 0.127239
C149  C     C_R   0.096738 0.808375 0.792040 0.132161
C150  C     C_R   0.090725 0.201637 0.770695 0.132716
C151  C     C_R   0.541042 0.412920 0.735123 -0.136960
C152  C     C_R   0.903954 0.806065 0.210144 0.132206
C153  C     C_R   0.363491 0.647710 0.981580 -0.215436
C154  C     C_R   0.634207 0.328842 0.000140 -0.214257
C155  C     C_R   0.636684 0.647623 0.020517 -0.217616
C156  C     C_R   0.365412 0.351233 0.980906 -0.214194
C157  C     C_R   0.822723 0.114099 0.967088 -0.211817
C158  C     C_R   0.083479 0.731022 0.869384 -0.216407
C159  C     C_R   0.076431 0.282749 0.842661 -0.214754
C160  C     C_R   0.917269 0.727286 0.133785 -0.216535
C161  C     C_R   0.393839 0.626408 0.068175 -0.170108
C162  C     C_R   0.032935 0.107372 0.707316 -0.128364
C163  C     C_R   0.609459 0.365317 0.926312 -0.175781
C164  C     C_R   0.606091 0.627240 0.932807 -0.175057
C165  C     C_R   0.395026 0.372859 0.067837 -0.173936
C166  C     C_R   0.867147 0.102460 0.053062 -0.171130
C167  C     C_R   0.068023 0.784414 0.824110 -0.174913
C168  C     C_R   0.060128 0.228823 0.797058 -0.173450
C169  C     C_R   0.932419 0.781767 0.177713 -0.175300
C170  C     C_R   0.313844 0.618225 0.066808 -0.256901
C171  C     C_R   0.639409 0.302083 0.855283 -0.280251
C172  C     C_R   0.686485 0.615422 0.936267 -0.255907
C173  C     C_R   0.964368 0.896824 0.283837 -0.132668
C174  C     C_R   0.313554 0.385945 0.060870 -0.257507
C175  C     C_R   0.830121 0.164859 0.113063 -0.276752
C176  C     C_R   0.139116 0.776207 0.801489 -0.256395
C177  C     C_R   0.135432 0.231644 0.784672 -0.258228
C178  C     C_R   0.862405 0.773190 0.202897 -0.256025
C179  C     C_R   0.282695 0.640444 0.980254 0.081339
C180  C     C_R   0.665327 0.265473 0.929112 0.085979
C181  C     C_R   0.717879 0.637171 0.023722 0.080156
C182  C     C_R   0.283015 0.363146 0.973763 0.081753
C183  C     C_R   0.782716 0.170180 0.029960 0.082468
C184  C     C_R   0.956135 0.084874 0.260645 -0.136570
C185  C     C_R   0.156072 0.722950 0.848456 0.079277
C186  C     C_R   0.153070 0.285438 0.831765 0.079100
C187  C     C_R   0.845521 0.719046 0.156780 0.079292
C188  C     C_R   0.308599 0.657580 0.939036 0.191119
C189  C     C_R   0.664541 0.280837 0.003957 0.192698
C190  C     C_R   0.692024 0.655583 0.064634 0.191340
C191  C     C_R   0.309996 0.343515 0.935256 0.195770
C192  C     C_R   0.779902 0.147294 0.955103 0.192178
C193  C     C_R   0.128512 0.701405 0.884910 0.191873
C194  C     C_R   0.124058 0.309702 0.864033 0.189974
C195  C     C_R   0.035737 0.897547 0.716529 -0.130578
C196  C     C_R   0.872641 0.697071 0.119655 0.191335
C197  C     C_R   0.227801 0.653299 0.938934 0.072988
C198  C     C_R   0.698280 0.219312 0.934970 0.076075
C199  C     C_R   0.773167 0.648880 0.066133 0.072212
C200  C     C_R   0.227297 0.352436 0.928735 0.071956
C201  C     C_R   0.738954 0.199892 0.019966 0.075694
C202  C     C_R   0.203333 0.694375 0.868723 0.070941
C203  C     C_R   0.202450 0.311484 0.857046 0.076880
C204  C     C_R   0.798270 0.690305 0.137004 0.071057
C205  C     C_R   0.645740 0.578634 0.577235 -0.152478
C206  C     C_R   0.303609 0.602296 0.565064 -0.212273
C207  C     C_R   0.367717 0.397157 0.422009 -0.129641
C208  C     C_R   0.354462 0.578291 0.423235 -0.155087
C209  C     C_R   0.627230 0.393243 0.575843 -0.153571
C210  C     C_R   0.145656 0.078522 0.577056 -0.169855
C211  C     C_R   0.860923 0.905463 0.422907 -0.132295
C212  C     C_R   0.859728 0.091604 0.423125 -0.119525
C213  C     C_R   0.139213 0.906554 0.576449 -0.131505
C214  C     C_R   0.694264 0.194502 0.860139 -0.220202
C215  C     C_R   0.197520 0.629249 0.968548 -0.213120
C216  C     C_R   0.196276 0.378570 0.955630 -0.213264
H1    H     H_    0.518648 0.578136 0.764515 0.084703
H2    H     H_    0.295468 0.609433 0.101505 0.114537
H3    H     H_    0.808186 0.255430 0.671742 0.176703
H4    H     H_    0.750037 0.190403 0.712399 0.200440
H5    H     H_    0.744922 0.139356 0.637182 0.177074
H6    H     H_    0.876682 0.766287 0.807645 0.264057
H7    H     H_    0.908077 0.785102 0.750728 0.261774
H8    H     H_    0.864128 0.836940 0.754191 0.247595
H9    H     H_    0.818193 0.788696 0.608011 0.209139
H10   H     H_    0.786716 0.769383 0.662476 0.180927
H11   H     H_    0.847912 0.674224 0.715901 0.190715
H12   H     H_    0.865515 0.693855 0.644508 0.189531
H13   H     H_    0.294343 0.397208 0.093611 0.114164
H14   H     H_    0.097259 0.279427 0.319126 0.259425
H15   H     H_    0.116290 0.208682 0.374538 0.263945
H16   H     H_    0.107085 0.271484 0.425729 0.250898
H17   H     H_    0.203356 0.252305 0.496790 0.200755
H18   H     H_    0.184501 0.322594 0.443503 0.199572
H19   H     H_    0.182862 0.282424 0.314278 0.168784
H20   H     H_    0.188127 0.210807 0.349689 0.201587
H21   H     H_    0.763345 0.405942 0.441720 0.260646
H22   H     H_    0.703407 0.396284 0.440176 0.263535
H23   H     H_    0.765123 0.419731 0.540807 0.247502
H24   H     H_    0.705042 0.605190 0.902197 0.115172
H25   H     H_    0.747155 0.314661 0.548588 0.203308
H26   H     H_    0.806720 0.323075 0.550627 0.186314
H27   H     H_    0.749825 0.302332 0.382828 0.193626
H28   H     H_    0.694399 0.289636 0.385777 0.194688
H29   H     H_    0.406434 0.791103 0.652957 0.259068
H30   H     H_    0.386243 0.717427 0.605195 0.265295
H31   H     H_    0.390733 0.776122 0.543365 0.251225
H32   H     H_    0.296260 0.755462 0.487083 0.199008
H33   H     H_    0.316177 0.828701 0.532639 0.202358
H34   H     H_    0.326819 0.797156 0.672815 0.167693
H35   H     H_    0.160703 0.794765 0.776414 0.117057
H36   H     H_    0.319911 0.723696 0.642401 0.200774
H37   H     H_    0.374700 0.281929 0.800004 0.258817
H38   H     H_    0.401497 0.298434 0.735347 0.267157
H39   H     H_    0.356262 0.349245 0.736965 0.248935
H40   H     H_    0.310780 0.291589 0.597334 0.210434
H41   H     H_    0.282007 0.277463 0.657460 0.178233
H42   H     H_    0.343190 0.185105 0.721164 0.189571
H43   H     H_    0.364441 0.198956 0.653043 0.192716
H44   H     H_    0.593557 0.783980 0.338058 0.259241
H45   H     H_    0.612752 0.710730 0.385225 0.264688
H46   H     H_    0.835674 0.186691 0.170662 0.132206
H47   H     H_    0.607282 0.769867 0.446271 0.251905
H48   H     H_    0.702240 0.750223 0.506669 0.199310
H49   H     H_    0.683250 0.822790 0.461134 0.204329
H50   H     H_    0.674493 0.788844 0.322235 0.167920
H51   H     H_    0.681921 0.716089 0.354053 0.198766
H52   H     H_    0.186862 0.628950 0.138693 0.269894
H53   H     H_    0.249597 0.590915 0.185142 0.253929
H54   H     H_    0.188280 0.549222 0.136956 0.248675
H55   H     H_    0.238937 0.546592 0.300861 0.184819
H56   H     H_    0.177787 0.585035 0.254541 0.190482
H57   H     H_    0.841198 0.791934 0.228657 0.117681
H58   H     H_    0.224475 0.681903 0.284709 0.199820
H59   H     H_    0.285452 0.652742 0.327453 0.185586
H60   H     H_    0.722298 0.340411 0.832689 0.260900
H61   H     H_    0.765067 0.276834 0.864008 0.277431
H62   H     H_    0.790952 0.349558 0.870051 0.247942
H63   H     H_    0.773281 0.291313 0.740992 0.217574
H64   H     H_    0.737800 0.358073 0.709146 0.185402
H65   H     H_    0.652876 0.299674 0.672565 0.174804
H66   H     H_    0.688786 0.236481 0.707636 0.180255
H67   H     H_    0.812327 0.638779 0.862459 0.269642
H68   H     H_    0.158932 0.210512 0.765043 0.118301
H69   H     H_    0.749622 0.599896 0.816371 0.255060
H70   H     H_    0.811161 0.559189 0.867466 0.249011
H71   H     H_    0.762131 0.551002 0.704165 0.188117
H72   H     H_    0.822822 0.591061 0.749943 0.188318
H73   H     H_    0.774487 0.686905 0.713788 0.200820
H74   H     H_    0.713845 0.655582 0.671352 0.186170
H75   H     H_    0.247925 0.494609 0.428649 0.260998
H76   H     H_    0.194469 0.454786 0.424042 0.256049
H77   H     H_    0.246666 0.489892 0.526090 0.260089
H78   H     H_    0.261418 0.382203 0.533737 0.186569
H79   H     H_    0.588277 0.404113 0.925370 0.119144
H80   H     H_    0.313896 0.421836 0.537147 0.208453
H81   H     H_    0.269664 0.400584 0.373874 0.183346
H82   H     H_    0.215538 0.367979 0.367039 0.194016
H83   H     H_    0.844498 0.327607 0.348547 0.261576
H84   H     H_    0.891839 0.269897 0.370672 0.265760
H85   H     H_    0.833662 0.280734 0.259388 0.251425
H86   H     H_    0.821066 0.193775 0.326954 0.191567
H87   H     H_    0.774021 0.250318 0.304700 0.186914
H88   H     H_    0.838721 0.284280 0.469411 0.193166
H89   H     H_    0.879112 0.223607 0.486338 0.193005
H90   H     H_    0.436566 0.622449 0.100883 0.111420
H91   H     H_    0.270312 0.001298 0.554755 0.270592
H92   H     H_    0.313989 0.953239 0.543774 0.254651
H93   H     H_    0.260437 0.991144 0.448087 0.255389
H94   H     H_    0.237206 0.885405 0.445286 0.187034
H95   H     H_    0.192894 0.933656 0.452749 0.203774
H96   H     H_    0.239080 0.915171 0.612676 0.179726
H97   H     H_    0.292480 0.880826 0.618463 0.197173
H98   H     H_    0.292943 0.159638 0.857428 0.269319
H99   H     H_    0.236066 0.109883 0.809230 0.254201
H100  H     H_    0.302938 0.081169 0.876771 0.251082
H101  H     H_    0.438071 0.374782 0.102974 0.111604
H102  H     H_    0.264133 0.062584 0.716614 0.186295
H103  H     H_    0.320863 0.109482 0.766728 0.189027
H104  H     H_    0.264471 0.198852 0.706181 0.191916
H105  H     H_    0.205832 0.162107 0.664006 0.182143
H106  H     H_    0.716982 0.989417 0.433516 0.270781
H107  H     H_    0.682505 0.937151 0.459121 0.264026
H108  H     H_    0.734272 0.984056 0.545674 0.250130
H109  H     H_    0.764648 0.879751 0.552386 0.188905
H110  H     H_    0.803475 0.933804 0.539967 0.198464
H111  H     H_    0.760637 0.910092 0.384045 0.177926
H112  H     H_    0.480652 0.424531 0.234006 0.085376
H113  H     H_    0.563130 0.625053 0.898850 0.112315
H114  H     H_    0.707200 0.873875 0.375901 0.201036
H115  H     H_    0.034329 0.807227 0.816282 0.113192
H116  H     H_    0.897658 0.072325 0.062645 0.117609
H117  H     H_    0.965573 0.805167 0.184049 0.113201
H118  H     H_    0.024621 0.207821 0.785522 0.112842
H119  H     H_    0.383517 0.659739 0.949926 0.119509
H120  H     H_    0.632358 0.340162 0.056104 0.121951
H121  H     H_    0.616631 0.660702 0.051804 0.119923
H122  H     H_    0.386257 0.337209 0.951361 0.124165
H123  H     H_    0.820772 0.095282 0.910596 0.125656
H124  H     H_    0.481378 0.578179 0.235712 0.084555
H125  H     H_    0.061692 0.714314 0.895859 0.122650
H126  H     H_    0.053388 0.301658 0.865551 0.122297
H127  H     H_    0.938730 0.710308 0.106792 0.122908
H128  H     H_    0.659949 0.202523 0.793598 0.132847
H129  H     H_    0.211718 0.592519 0.013761 0.140914
H130  H     H_    0.211262 0.414788 0.002865 0.130071
H131  H     H_    0.788320 0.587047 0.990473 0.141265
H132  H     H_    0.209153 0.733107 0.764940 0.137530
H133  H     H_    0.760872 0.191047 0.155999 0.128717
H134  H     H_    0.793198 0.730000 0.241611 0.138504
H135  H     H_    0.513737 0.411489 0.755339 0.088492
H136  H     H_    0.209850 0.270082 0.755880 0.130205
H137  H     H_    0.677917 0.569576 0.644245 0.120054
H138  H     H_    0.338996 0.387200 0.352491 0.094145
H139  H     H_    0.322288 0.568637 0.356147 0.120693
H140  H     H_    0.656906 0.387767 0.644516 0.118428
H141  H     H_    0.178303 0.068964 0.643489 0.123947
H142  H     H_    0.828167 0.900358 0.354304 0.085691
H143  H     H_    0.825750 0.091877 0.354650 0.085785
H144  H     H_    0.171951 0.901936 0.645008 0.085035
H145  H     H_    0.586482 0.581552 0.363086 0.084840
H146  H     H_    0.002452 0.118400 0.717998 0.090656
H147  H     H_    0.431408 0.383577 0.637915 0.103886
H148  H     H_    0.414165 0.582418 0.637614 0.084694
H149  H     H_    0.555573 0.375989 0.359860 0.092109
H150  H     H_    0.086572 0.082733 0.363336 0.085227
H151  H     H_    0.922737 0.893564 0.637199 0.098670
H152  H     H_    0.915357 0.091233 0.636792 0.100644
H153  H     H_    0.077810 0.894891 0.361870 0.096331
H154  H     H_    0.340438 0.581148 0.236789 0.082384
H155  H     H_    0.657764 0.408938 0.764333 0.103741
H156  H     H_    0.659715 0.581704 0.764000 0.083734
H157  H     H_    0.993233 0.888008 0.268779 0.086211
H158  H     H_    0.339645 0.421137 0.232992 0.082170
H159  H     H_    0.841210 0.087268 0.239555 0.094498
H160  H     H_    0.149165 0.886562 0.734284 0.088818
H161  H     H_    0.142505 0.122087 0.711902 0.092283
H162  H     H_    0.850637 0.885564 0.264897 0.088414
H163  H     H_    0.334816 0.576918 0.620013 0.129057
H164  H     H_    0.574642 0.283571 0.363607 0.126674
H165  H     H_    0.667126 0.571604 0.383437 0.125940
H166  H     H_    0.417144 0.261974 0.540606 0.138313
H167  H     H_    0.794006 0.055874 0.512690 0.154912
H168  H     H_    0.981602 0.083907 0.236675 0.092185
H169  H     H_    0.092550 0.774177 0.471846 0.143612
H170  H     H_    0.169970 0.069400 0.389828 0.130904
H171  H     H_    0.908967 0.773400 0.529217 0.143962
H172  H     H_    0.713360 0.093262 0.496088 0.140365
H173  H     H_    0.136194 0.679942 0.491178 0.135382
H174  H     H_    0.236646 0.114050 0.374380 0.132817
H175  H     H_    0.866525 0.678209 0.512618 0.135068
H176  H     H_    0.272956 0.628379 0.640402 0.134164
H177  H     H_    0.623412 0.207759 0.347463 0.133121
H178  H     H_    0.729976 0.621216 0.363127 0.133147
H179  H     H_    0.007125 0.889157 0.732307 0.086339
H180  H     H_    0.372331 0.169497 0.529578 0.132509
H181  H     H_    0.730356 0.139217 0.812071 0.128992
H182  H     H_    0.126093 0.633872 0.965640 0.132489
H183  H     H_    0.122199 0.378574 0.944750 0.129521
H184  H     H_    0.874364 0.628401 0.038546 0.134331
H185  H     H_    0.298829 0.699611 0.824834 0.127811
H186  H     H_    0.695541 0.260182 0.140159 0.125028
H187  H     H_    0.702445 0.698130 0.179861 0.128070
H188  H     H_    0.301585 0.299181 0.822797 0.141591
H189  H     H_    0.119236 0.760584 0.190961 0.263682
H190  H     H_    0.641138 0.293863 0.798605 0.130612
H191  H     H_    0.091999 0.782014 0.253632 0.261621
H192  H     H_    0.134045 0.832697 0.242914 0.247004
H193  H     H_    0.184413 0.788246 0.390738 0.208960
H194  H     H_    0.211855 0.766661 0.330619 0.180637
H195  H     H_    0.152408 0.670549 0.285793 0.189720
H196  H     H_    0.135761 0.692738 0.357672 0.191499
H197  H     H_    0.844731 0.210337 0.820394 0.268362
H198  H     H_    0.849206 0.139663 0.777866 0.263722
H199  H     H_    0.889652 0.201419 0.786037 0.250310
H200  H     H_    0.814877 0.186286 0.631938 0.216088
N1    N     N_R   0.532910 0.558440 0.665240 -0.038414
N2    N     N_R   0.402970 0.441090 0.454460 -0.038928
N3    N     N_R   0.402970 0.558910 0.454460 -0.038874
N4    N     N_R   0.597030 0.441090 0.545540 -0.039813
N5    N     N_R   0.097030 0.058910 0.545540 -0.037579
N6    N     N_R   0.902970 0.941090 0.454460 -0.037254
N7    N     N_R   0.902970 0.058910 0.454460 -0.039479
N8    N     N_R   0.097030 0.941090 0.545540 -0.036199
N9    N     N_R   0.566200 0.559270 0.454460 -0.037479
N10   N     N_R   0.433800 0.440730 0.545540 -0.036594
N11   N     N_R   0.433800 0.559270 0.545540 -0.037477
N12   N     N_R   0.467090 0.441560 0.334760 -0.036221
N13   N     N_R   0.566200 0.440730 0.454460 -0.039727
N14   N     N_R   0.066200 0.059270 0.454460 -0.036237
N15   N     N_R   0.933800 0.940730 0.545540 -0.035862
N16   N     N_R   0.933800 0.059270 0.545540 -0.036698
N17   N     N_R   0.066200 0.940730 0.454460 -0.035235
N18   N     N_R   0.421050 0.559750 0.334770 -0.039501
N19   N     N_R   0.578950 0.440250 0.665230 -0.035701
N20   N     N_R   0.578950 0.559750 0.665230 -0.039671
N21   N     N_R   0.421050 0.440250 0.334770 -0.038170
N22   N     N_R   0.921050 0.059750 0.334770 -0.040121
N23   N     N_R   0.467090 0.558440 0.334760 -0.037930
N24   N     N_R   0.078950 0.940250 0.665230 -0.040465
N25   N     N_R   0.078950 0.059750 0.665230 -0.040888
N26   N     N_R   0.921050 0.940250 0.334770 -0.039680
N27   N     N_R   0.532910 0.441560 0.665240 -0.034559
N28   N     N_R   0.032910 0.058440 0.665240 -0.039525
N29   N     N_R   0.967090 0.941560 0.334760 -0.038293
N30   N     N_R   0.967090 0.058440 0.334760 -0.038274
N31   N     N_R   0.032910 0.941560 0.665240 -0.038609
N32   N     N_R   0.597030 0.558910 0.545540 -0.038925
Ni1   Ni    Ni4+2 0.483090 0.500000 0.604440 0.207730
Ni2   Ni    Ni4+2 0.516910 0.500000 0.395560 0.207080
Ni3   Ni    Ni4+2 0.983090 0.000000 0.604440 0.211596
Ni4   Ni    Ni4+2 0.016910 0.000000 0.395560 0.208699
Ni5   Ni    Ni4+2 0.586780 0.500000 0.604440 0.209350
Ni6   Ni    Ni4+2 0.413220 0.500000 0.395560 0.206725
Ni7   Ni    Ni4+2 0.086780 0.000000 0.604440 0.211607
Ni8   Ni    Ni4+2 0.913220 0.000000 0.395560 0.211567

loop_
_geom_bond_atom_site_label_1
_geom_bond_atom_site_label_2
_ccdc_geom_bond_type
C12   H185  S    
C61   C70   A    
C159  C194  A    
C15   H187  S    
C126  C127  S    
N17   Ni4   S    
C25   H153  S    
C118  H77   S    
C78   H196  S    
C114  C115  S    
C53   C136  A    
C39   C150  S    
N6    N15   A    
C105  H58   S    
C57   C76   A    
C35   C124  A    
C31   C42   A    
C210  H141  S    
C8    C214  A    
C93   H26   S    
C175  H46   S    
C97   H29   S    
C133  H174  S    
C144  C161  A    
C184  N30   A    
C62   C108  S    
C164  H113  S    
N21   Ni6   S    
C108  C109  S    
N15   Ni3   S    
C55   C88   S    
C2    C90   A    
C212  H143  S    
C7    C203  A    
C134  C143  A    
C14   C189  A    
C112  H112  S    
N28   Ni3   S    
C101  H178  S    
C66   C122  S    
C134  H175  S    
C211  H142  S    
C4    C12   A    
C61   C105  S    
C29   H158  S    
C160  C196  A    
C21   C48   A    
C98   H42   S    
N18   Ni6   S    
C166  H116  S    
C57   C133  A    
C96   H33   S    
C100  H38   S    
C158  C167  A    
C158  C193  A    
C91   H14   S    
C183  C201  A    
N22   Ni8   S    
C101  C137  A    
N25   N28   A    
C179  C188  A    
N19   Ni5   S    
C187  C204  A    
C177  C186  A    
C153  C161  A    
C53   C82   S    
C87   H7    S    
C185  C202  A    
C17   C43   A    
C205  H137  S    
C18   C44   A    
C31   N24   A    
C130  H109  S    
C181  C190  A    
N24   Ni7   S    
C150  C168  A    
C85   H12   S    
N1    N20   A    
C151  N27   A    
C7    H136  S    
C47   C71   S    
C8    H181  S    
C22   C49   A    
C154  C189  A    
C19   N11   A    
C199  C204  A    
C17   N9    A    
C118  H75   S    
C156  H122  S    
C2    C71   A    
C162  H146  S    
C109  H64   S    
C175  C183  A    
C68   C77   A    
C18   H147  S    
C161  H90   S    
C154  H120  S    
C83   H200  S    
C132  H173  S    
C95   H36   S    
C97   H31   S    
C13   C72   A    
C11   H184  S    
C111  H73   S    
C52   C61   A    
C125  H92   S    
C130  C131  S    
C158  H125  S    
C206  H163  S    
C34   C146  S    
C58   C141  A    
C114  H72   S    
C115  H69   S    
C68   C134  A    
C123  H94   S    
C9    C193  A    
C26   N18   A    
C208  H139  S    
C63   C111  S    
C42   C195  A    
C195  N31   A    
C20   C47   A    
C3    C11   A    
C94   H23   S    
C88   C89   S    
C69   C129  S    
C98   C99   S    
C54   C63   A    
C173  H157  S    
N9    N32   A    
N7    N16   A    
C24   H166  S    
C37   C144  S    
C17   H145  S    
C48   C76   S    
C124  C139  A    
C69   C77   A    
N29   Ni4   S    
C174  C182  A    
C147  C174  A    
C85   C86   S    
C9    C215  A    
C133  C142  A    
C151  H135  S    
C180  C189  A    
C184  H168  S    
C60   C143  A    
C46   C132  A    
C78   C80   S    
C127  H102  S    
C207  N2    A    
C121  H84   S    
C40   C152  S    
C89   H17   S    
N20   Ni5   S    
C147  C165  A    
C59   C67   A    
C172  C181  A    
C64   C73   A    
C208  N3    A    
C80   H194  S    
C119  H88   S    
C89   C91   S    
C120  H87   S    
C131  H108  S    
N30   Ni4   S    
C16   H188  S    
C110  H61   S    
C103  H49   S    
C50   C212  A    
C106  H55   S    
N27   Ni1   S    
C107  H54   S    
C162  N28   A    
C112  N12   A    
C60   C102  S    
C129  H114  S    
C95   H34   S    
C173  N29   A    
C46   C75   A    
C1    C34   A    
C10   H183  S    
C33   C40   A    
C180  C198  A    
C59   C142  A    
C21   N14   A    
C145  C163  A    
C115  H67   S    
N32   Ni5   S    
C213  N8    A    
C146  C164  A    
C44   C207  A    
C65   C74   A    
C91   H15   S    
C4    H132  S    
C58   C95   S    
C99   H40   S    
C16   C191  A    
C167  H115  S    
C83   H3    S    
C94   H21   S    
C83   C84   S    
C103  H48   S    
N24   N31   A    
C197  C202  A    
C39   C162  A    
C29   N21   A    
C150  C177  A    
C172  H24   S    
C178  H57   S    
C116  H81   S    
C45   C208  A    
C102  H51   S    
C47   C209  A    
C78   H195  S    
C30   H159  S    
C181  C199  A    
C38   C151  A    
N13   Ni2   S    
N3    N11   A    
C120  C121  S    
C129  C130  S    
C132  C141  A    
C88   H19   S    
C28   H156  S    
C186  C194  A    
C27   N19   A    
N10   Ni1   S    
C163  H79   S    
C19   C45   A    
C128  H99   S    
N2    Ni6   S    
C170  C179  A    
C19   H148  S    
C41   C184  A    
C93   H25   S    
C117  C118  S    
C10   C216  A    
C41   C148  S    
C60   C69   A    
C200  C216  A    
C84   H199  S    
C216  H130  S    
C62   C71   A    
C18   N10   A    
C102  C103  S    
N6    Ni8   S    
C131  H106  S    
C209  H140  S    
C156  C191  A    
C135  C141  S    
C107  H52   S    
C86   H9    S    
C123  H95   S    
C108  H65   S    
C98   H43   S    
C68   H171  S    
C26   H154  S    
C35   C74   A    
N14   Ni4   S    
C64   C116  S    
N8    Ni7   S    
C187  C196  A    
C148  C166  A    
N12   Ni2   S    
C20   N13   A    
C149  C167  A    
N11   Ni1   S    
C183  C192  A    
C113  H180  S    
C176  C185  A    
C35   H167  S    
C28   N20   A    
C93   C94   S    
C10   C194  A    
C92   H27   S    
C24   C73   A    
C123  C125  S    
C54   C137  A    
C107  H53   S    
C99   H41   S    
C27   C38   A    
C144  C170  A    
C90   H177  S    
C104  H44   S    
C32   C39   A    
C42   C149  S    
C130  H110  S    
C127  H103  S    
N3    Ni6   S    
C37   C140  A    
C36   C112  A    
C5    H133  S    
C160  C169  A    
C85   H11   S    
C81   H192  S    
C119  H89   S    
C14   H186  S    
C207  H138  S    
C28   C34   A    
C118  H76   S    
C136  C139  S    
C52   C78   S    
C120  H86   S    
C109  H63   S    
C157  H123  S    
C209  N4    A    
C20   H149  S    
C105  H59   S    
C182  C200  A    
C11   C196  A    
C22   H151  S    
C138  C142  S    
C67   C126  S    
C97   H30   S    
C56   C139  A    
C86   C87   S    
C23   C50   A    
C205  N32   A    
C27   H155  S    
C125  H91   S    
C96   C97   S    
C6    C204  A    
C155  C190  A    
C177  H68   S    
C4    C202  A    
C126  H105  S    
C46   H169  S    
C122  H96   S    
C21   H150  S    
C65   C119  S    
N1    Ni1   S    
N4    N13   A    
N25   Ni7   S    
C23   H152  S    
C111  H74   S    
C5    C14   A    
C178  C187  A    
C7    C16   A    
C182  C191  A    
C100  H37   S    
C155  H121  S    
N4    Ni5   S    
C122  H97   S    
C45   C70   S    
C6    H134  S    
C119  C120  S    
C26   C37   A    
C33   N26   A    
C153  C188  A    
C79   C135  A    
C105  C106  S    
C117  H78   S    
C149  C176  A    
C13   H165  S    
C87   H8    S    
C50   C74   S    
C157  C192  A    
C109  C110  S    
C126  H104  S    
C152  C169  A    
C30   N22   A    
N5    Ni7   S    
C40   C173  A    
C156  C165  A    
C128  H98   S    
C66   C75   A    
C92   C93   S    
C121  H83   S    
C111  C114  S    
N16   Ni3   S    
C44   C73   S    
C8    C192  A    
C168  H118  S    
C82   H4    S    
C63   C72   A    
C82   C83   S    
C103  C104  S    
C84   H198  S    
C113  C138  A    
C1    H1    S    
C23   N16   A    
N22   N30   A    
C96   H32   S    
C131  H107  S    
N8    N17   A    
C110  H62   S    
C165  H101  S    
C145  C171  A    
C106  H56   S    
C43   C72   S    
C146  C172  A    
C43   C205  A    
C195  H179  S    
C95   C96   S    
C176  H35   S    
C82   H5    S    
C116  C117  S    
C213  H144  S    
C29   C36   A    
C55   C138  A    
C51   C75   S    
C33   H162  S    
C211  N6    A    
C114  H71   S    
N19   N27   A    
C115  H70   S    
C56   C65   A    
C12   C188  A    
N23   Ni2   S    
C159  C168  A    
C36   C147  S    
C6    C15   A    
N12   N21   A    
C58   C66   A    
C49   C77   S    
C186  C203  A    
C3    C199  A    
C9    H182  S    
C104  H47   S    
C2    H164  S    
C100  H39   S    
N18   N23   A    
C197  C215  A    
C51   C213  A    
C137  C143  S    
C116  H82   S    
C24   C113  A    
N26   Ni8   S    
C129  H111  S    
C171  H190  S    
C81   H189  S    
C32   H161  S    
C94   H22   S    
C169  H117  S    
C88   H20   S    
C214  H128  S    
C31   H160  S    
C148  C175  A    
C117  H80   S    
C140  N23   A    
C87   H6    S    
C154  C163  A    
C140  H124  S    
C212  N7    A    
C5    C201  A    
C179  C197  A    
N5    N14   A    
C128  H100  S    
C121  H85   S    
C89   H18   S    
C25   C51   A    
C38   C145  S    
C90   C136  A    
C53   C62   A    
C99   C100  S    
N2    N10   A    
C84   H197  S    
C55   C64   A    
C49   C211  A    
C198  C201  A    
C22   N15   A    
C80   H193  S    
C30   C41   A    
C159  H126  S    
C106  C107  S    
C79   H176  S    
C32   N25   A    
C110  H60   S    
C15   C190  A    
C48   C210  A    
C102  H50   S    
C86   H10   S    
C25   N17   A    
C171  C180  A    
C13   C101  A    
C108  H66   S    
C124  H172  S    
C3    H131  S    
C59   C98   S    
C160  H127  S    
C185  C193  A    
C80   C81   S    
C210  N5    A    
C157  C166  A    
C54   C85   S    
N9    Ni2   S    
C155  C164  A    
C70   C206  A    
C79   C206  A    
C91   H16   S    
N26   N29   A    
C1    N1    A    
C153  H119  S    
C92   H28   S    
C200  C203  A    
C215  H129  S    
C152  C178  A    
C174  H13   S    
N31   Ni3   S    
N7    Ni8   S    
C57   H170  S    
C56   C92   S    
C104  H45   S    
C52   C135  A    
C67   C76   A    
C122  C123  S    
C81   H191  S    
C125  H93   S    
C127  C128  S    
C170  H2    S    
C198  C214  A    
