data_mof_unit_28118.cif
_audit_creation_date              2013-03-05T16:23:16-0500
_audit_creation_method            fapswitch 2.2
_symmetry_space_group_name_H-M    P1
_symmetry_Int_Tables_number       1
_space_group_crystal_system       triclinic
_cell_length_a                    27.621911
_cell_length_b                    10.530102
_cell_length_c                    9.827541
_cell_angle_alpha                 88.737115
_cell_angle_beta                  90.469208
_cell_angle_gamma                 89.722301
_cell_volume                      2857.62742617

loop_
_atom_site_label
_atom_site_type_symbol
_atom_site_description
_atom_site_fract_x
_atom_site_fract_y
_atom_site_fract_z
_atom_type_partial_charge
O1    O     O_R   0.500000 0.313960 0.616610 -0.618805
O2    O     O_R   0.500000 0.686040 0.383390 -0.618786
O3    O     O_R   0.500020 0.313950 0.383350 -0.618610
O4    O     O_R   0.499980 0.686050 0.616650 -0.618595
C1    C     C_R   0.501244 0.258029 0.501428 0.906193
C2    C     C_R   0.498759 0.741972 0.498573 0.906211
O5    O     O_R   0.428750 0.500030 0.616610 -0.600167
O6    O     O_R   0.571250 0.499970 0.383390 -0.600158
O7    O     O_R   0.428770 0.500020 0.383360 -0.612014
O8    O     O_R   0.571230 0.499980 0.616640 -0.612014
C3    C     C_R   0.406394 0.502228 0.499244 0.941281
C4    C     C_R   0.593605 0.497782 0.500756 0.941261
Zn1   Zn    Zn3+2 0.499990 0.500010 0.655740 0.954988
Zn2   Zn    Zn3+2 0.500010 0.499990 0.344260 0.954989
C5    C     C_R   0.177711 0.453267 0.382568 0.571416
C6    C     C_R   0.822272 0.547497 0.617339 0.571332
O9    O     O_2   0.204202 0.381965 0.298524 -0.479247
O10   O     O_2   0.795746 0.618478 0.701588 -0.479253
N1    N     N_R   0.201295 0.525544 0.475685 -0.352390
N2    N     N_R   0.798713 0.475061 0.524310 -0.352381
C7    C     C_R   0.177132 0.600150 0.564301 0.530364
C8    C     C_R   0.822904 0.400581 0.435642 0.530261
C9    C     C_R   0.279964 0.627058 0.427800 0.219816
C10   C     C_R   0.720083 0.373285 0.572194 0.219818
C11   C     C_R   0.330955 0.623882 0.440011 0.117948
C12   C     C_R   0.669090 0.376317 0.559980 0.117883
C13   C     C_R   0.326176 0.410319 0.543603 0.188891
C14   C     C_R   0.673785 0.589904 0.456410 0.188939
C15   C     C_R   0.276136 0.417162 0.537195 -0.144459
C16   C     C_R   0.723825 0.583208 0.462836 -0.144643
C17   C     C_R   0.253003 0.523689 0.479801 0.202969
C18   C     C_R   0.747003 0.476748 0.520222 0.203038
C19   C     C_R   0.101187 0.523513 0.473916 -0.099961
C20   C     C_R   0.898821 0.477682 0.525768 -0.099920
C21   C     C_R   0.126560 0.453361 0.375855 -0.151435
C22   C     C_R   0.873428 0.547824 0.623802 -0.151437
C23   C     C_R   0.099867 0.392794 0.272013 0.328538
C24   C     C_R   0.900112 0.608831 0.727366 0.328498
C25   C     C_R   0.126734 0.601651 0.564185 0.005005
C26   C     C_R   0.873300 0.399358 0.435614 0.005004
C27   C     C_R   0.353861 0.513323 0.496157 -0.146775
C28   C     C_R   0.646142 0.486816 0.503839 -0.146733
H1    H     H_    0.254789 0.338091 0.574978 0.194923
H2    H     H_    0.745139 0.662346 0.425062 0.194880
C29   C     C_R   0.974247 0.420232 0.412390 0.093438
C30   C     C_R   0.025761 0.581201 0.587163 0.093468
C31   C     C_R   0.975794 0.559439 0.610336 -0.020486
C32   C     C_R   0.024201 0.442063 0.389182 -0.020451
C33   C     C_R   0.949742 0.486701 0.515794 0.042977
C34   C     C_R   0.050260 0.514687 0.483786 0.043020
C35   C     C_R   0.948556 0.326053 0.342717 -0.216885
C36   C     C_R   0.051488 0.675313 0.656855 -0.216836
C37   C     C_R   0.898626 0.319164 0.349853 -0.123998
C38   C     C_R   0.101430 0.681967 0.649875 -0.123928
O11   O     O_2   0.798019 0.328971 0.347012 -0.538135
O12   O     O_2   0.202042 0.671610 0.653013 -0.538038
C39   C     C_R   0.048907 0.400347 0.271211 0.095649
C40   C     C_R   0.951071 0.601328 0.728215 0.095775
H3    H     H_    0.879997 0.250636 0.287890 0.196933
H4    H     H_    0.120083 0.750408 0.711893 0.196900
H5    H     H_    0.966652 0.256576 0.281810 0.175517
H6    H     H_    0.033415 0.744901 0.717674 0.175485
C41   C     C_3   0.511603 0.034042 0.626222 0.200626
C42   C     C_3   0.488401 0.965963 0.373786 0.200684
C43   C     C_3   0.543767 0.951277 0.535551 -0.230495
C44   C     C_3   0.456236 0.048727 0.464460 -0.230595
H7    H     H_    0.579363 0.909418 0.565254 0.199401
H8    H     H_    0.420639 0.090593 0.434776 0.199342
C45   C     C_3   0.498229 0.876736 0.496126 -0.090365
C46   C     C_3   0.501775 0.123267 0.503882 -0.090390
C47   C     C_3   0.466568 0.958184 0.587160 0.171388
C48   C     C_3   0.533436 0.041819 0.412852 0.171417
C49   C     C_3   0.503144 0.384950 0.051874 -0.158878
C50   C     C_3   0.496856 0.615048 0.948125 -0.158862
C51   C     C_3   0.538950 0.449823 0.954562 0.231468
C52   C     C_3   0.461050 0.550175 0.045436 0.231448
H9    H     H_    0.505177 0.288237 0.098509 0.138133
H10   H     H_    0.494824 0.711761 0.901490 0.138138
N3    N     N_3   0.499960 0.500030 0.863290 -0.098047
N4    N     N_3   0.500040 0.499970 0.136710 -0.098043
C53   C     C_3   0.464141 0.436588 0.953107 0.185153
C54   C     C_3   0.535859 0.563410 0.046892 0.185145
Br1   Br    Br    0.354954 0.254835 0.611255 -0.571025
Br2   Br    Br    0.644950 0.745311 0.388753 -0.571210
C55   C     C_3   0.525931 0.067677 0.770771 -0.876292
H11   H     H_    0.527397 0.979957 0.835423 0.239800
H12   H     H_    0.562289 0.111466 0.770205 0.237221
H13   H     H_    0.499119 0.134072 0.813650 0.253420
C56   C     C_3   0.474077 0.932339 0.229231 -0.876309
H14   H     H_    0.472619 0.020063 0.164583 0.239805
H15   H     H_    0.500888 0.865936 0.186359 0.253420
H16   H     H_    0.437717 0.888565 0.229779 0.237222
C57   C     C_3   0.428453 0.911972 0.687457 -0.828003
H17   H     H_    0.410048 0.994843 0.732359 0.273057
H18   H     H_    0.401365 0.853013 0.634969 0.239322
H19   H     H_    0.445818 0.854489 0.770171 0.235675
C58   C     C_3   0.571557 0.088037 0.312576 -0.827962
H20   H     H_    0.589940 0.005168 0.267603 0.273093
H21   H     H_    0.554203 0.145604 0.229912 0.235672
H22   H     H_    0.598663 0.146910 0.365112 0.239314
C59   C     C_3   0.584946 0.390483 0.901570 -0.845716
H23   H     H_    0.605068 0.342988 0.986769 0.228216
H24   H     H_    0.575150 0.319643 0.825050 0.250194
H25   H     H_    0.608248 0.464772 0.854965 0.268795
C60   C     C_3   0.415057 0.609527 0.098423 -0.845710
H26   H     H_    0.394932 0.657007 0.013217 0.228228
H27   H     H_    0.391755 0.535252 0.145053 0.268821
H28   H     H_    0.424859 0.680385 0.174915 0.250182
C61   C     C_3   0.421733 0.361506 0.898441 -0.759236
H29   H     H_    0.403639 0.310585 0.983841 0.225275
H30   H     H_    0.395190 0.427032 0.848472 0.273048
H31   H     H_    0.434814 0.291373 0.824663 0.264818
C62   C     C_3   0.578265 0.638497 0.101551 -0.759252
H32   H     H_    0.596361 0.689407 0.016148 0.225277
H33   H     H_    0.565182 0.708642 0.175313 0.264852
H34   H     H_    0.604808 0.572979 0.151536 0.273044
Br3   Br    Br    0.130356 0.307227 0.121605 -0.409871
Br4   Br    Br    0.869637 0.695294 0.877247 -0.409787
C63   C     C_3   0.640406 0.260617 0.605023 -0.905310
H35   H     H_    0.653455 0.175888 0.550829 0.257686
H36   H     H_    0.645384 0.243184 0.715909 0.251513
H37   H     H_    0.601168 0.269048 0.583529 0.227978
C64   C     C_3   0.359680 0.739505 0.394958 -0.905389
H38   H     H_    0.346667 0.824268 0.449154 0.257656
H39   H     H_    0.398915 0.730971 0.416436 0.228048
H40   H     H_    0.354700 0.756956 0.284076 0.251499
C65   C     C_3   0.745312 0.260998 0.641687 -0.768959
H41   H     H_    0.730521 0.245614 0.745364 0.239237
H42   H     H_    0.739780 0.174257 0.581461 0.256899
H43   H     H_    0.784807 0.274617 0.654618 0.231331
C66   C     C_3   0.254782 0.739400 0.358262 -0.769155
H44   H     H_    0.269564 0.754661 0.254557 0.239263
H45   H     H_    0.215278 0.725932 0.345386 0.231282
H46   H     H_    0.260369 0.826159 0.418416 0.256887
C67   C     C_3   0.023197 0.387748 0.135241 -0.844187
H47   H     H_    0.021037 0.286490 0.106712 0.260785
H48   H     H_    0.986660 0.431593 0.134331 0.240707
H49   H     H_    0.043339 0.440603 0.055014 0.261900
C68   C     C_3   0.976755 0.614157 0.864203 -0.844101
H50   H     H_    0.013269 0.570170 0.865287 0.240675
H51   H     H_    0.978960 0.715482 0.892477 0.260755
H52   H     H_    0.956573 0.561561 0.944556 0.261868

loop_
_geom_bond_atom_site_label_1
_geom_bond_atom_site_label_2
_geom_bond_distance
_ccdc_geom_bond_type
C40   C68   1.516895 S    
C67   H49   1.109862 S    
C44   H8    1.109827 S    
C41   C43   1.543564 S    
C59   H23   1.109671 S    
C13   C15   1.384571 A    
C68   H51   1.110293 S    
C35   H5    1.078898 S    
C66   H46   1.109772 S    
N1    C17   1.428542 S    
C10   C18   1.410764 A    
C58   H20   1.109513 S    
C37   H3    1.083585 S    
C64   H38   1.109297 S    
C31   C33   1.411914 A    
C38   H4    1.083589 S    
C55   H11   1.109911 S    
O5    C3    1.303553 A    
C60   H27   1.109016 S    
C52   C60   1.514343 S    
C50   C52   1.533823 S    
O1    C1    1.288099 A    
N1    C7    1.362238 A    
C10   C12   1.412791 A    
C61   H30   1.108636 S    
C68   H52   1.109965 S    
C64   H39   1.105250 S    
C25   C38   1.395809 A    
C14   Br2   1.919688 S    
C29   C35   1.408806 A    
C30   C36   1.408870 A    
Zn1   N3    2.039717 S    
C5    O9    1.346577 S    
C49   C53   1.533759 S    
O4    Zn1   1.988002 S    
C45   C47   1.529744 S    
C4    C28   1.455208 S    
C19   C21   1.415282 A    
C24   C40   1.409373 A    
C43   H7    1.109815 S    
C10   C65   1.516150 S    
Zn2   N4    2.039718 S    
C56   H15   1.108116 S    
C67   H47   1.110221 S    
C2    C45   1.418748 S    
C6    N2    1.366353 A    
C62   H34   1.108634 S    
C55   H12   1.107105 S    
C57   H18   1.106200 S    
C15   H1    1.083313 S    
C49   C51   1.533831 S    
C16   H2    1.083305 S    
O2    C2    1.288115 A    
C42   C56   1.521312 S    
C50   C54   1.533749 S    
C5    C21   1.413863 A    
C58   H21   1.107397 S    
C36   C38   1.383794 A    
C48   C58   1.522366 S    
C63   H36   1.108433 S    
C60   H28   1.103846 S    
C32   C39   1.426631 A    
C12   C63   1.516371 S    
N4    C54   1.482908 S    
C61   H31   1.107686 S    
C11   C27   1.420900 A    
N3    C53   1.482906 S    
C64   H40   1.108424 S    
C29   C32   1.419398 A    
O3    C1    1.289771 A    
C19   C34   1.414210 A    
C35   C37   1.383676 A    
C9    C17   1.410723 A    
C5    N1    1.366310 A    
O7    Zn2   2.008035 S    
C65   H42   1.109796 S    
C1    C46   1.418730 S    
O7    C3    1.300796 A    
C13   C27   1.403645 A    
C44   C47   1.544526 S    
C7    C25   1.392099 A    
C41   C46   1.531130 S    
C29   C33   1.420825 A    
O6    C4    1.303541 A    
C8    C26   1.392030 A    
C9    C66   1.516208 S    
C57   H17   1.109512 S    
C19   C25   1.410481 A    
C42   C45   1.531145 S    
C56   H16   1.107099 S    
C11   C64   1.516347 S    
O3    Zn2   1.988005 S    
O8    C4    1.300788 A    
O4    C2    1.289762 A    
C41   C47   1.532360 S    
C57   H19   1.107397 S    
C50   N3    1.487958 S    
C20   C26   1.410603 A    
O1    Zn1   2.004810 S    
C66   H44   1.109726 S    
C58   H22   1.106221 S    
C12   C28   1.420889 A    
C62   H32   1.109644 S    
N2    C18   1.428589 S    
C55   H13   1.108118 S    
C67   H48   1.107661 S    
C30   C34   1.420789 A    
C30   C31   1.419585 A    
C20   C33   1.414254 A    
O6    Zn2   2.001916 S    
C14   C28   1.403633 A    
C21   C23   1.418718 A    
C6    O10   1.346454 S    
C52   N4    1.483812 S    
C54   C62   1.517620 S    
N2    C8    1.362163 A    
C66   H45   1.107621 S    
O8    Zn1   2.008038 S    
C52   C53   1.519655 S    
C7    O12   1.350501 S    
C63   H35   1.109305 S    
C51   C54   1.519659 S    
C8    O11   1.350524 S    
C47   C57   1.522371 S    
C59   H25   1.109021 S    
C43   C48   1.544518 S    
C60   H26   1.109670 S    
C53   C61   1.517633 S    
C22   C24   1.418783 A    
C65   H43   1.107652 S    
C14   C16   1.384526 A    
C15   C17   1.394266 A    
C36   H6    1.078914 S    
C61   H29   1.109645 S    
C6    C22   1.413958 A    
C31   C40   1.426711 A    
C16   C18   1.394245 A    
C68   H50   1.107689 S    
C44   C46   1.537331 S    
C43   C45   1.537331 S    
C32   C34   1.411753 A    
C63   H37   1.105293 S    
C49   N4    1.487973 S    
C3    C27   1.455235 S    
C20   C22   1.415310 A    
C9    C11   1.412747 A    
O2    Zn2   2.004808 S    
C23   C39   1.409426 A    
C13   Br1   1.919715 S    
C24   Br4   1.944000 S    
O5    Zn1   2.001910 S    
C23   Br3   1.943639 S    
C59   H24   1.103862 S    
C26   C37   1.395765 A    
C50   H10   1.108502 S    
C51   C59   1.514372 S    
C49   H9    1.108503 S    
C39   C67   1.516802 S    
C46   C48   1.529726 S    
C56   H14   1.109911 S    
C51   N3    1.483807 S    
C41   C55   1.521314 S    
C65   H41   1.109723 S    
C42   C48   1.532363 S    
C42   C44   1.543581 S    
C62   H33   1.107679 S    
