data_mof_unit_9397.cif
_audit_creation_date              2012-10-26T21:02:56-0400
_audit_creation_method            fapswitch 2.2
_symmetry_space_group_name_H-M    P1
_symmetry_Int_Tables_number       1
_space_group_crystal_system       triclinic
_cell_length_a                    12.328205
_cell_length_b                    13.17338
_cell_length_c                    23.469331
_cell_angle_alpha                 77.84164
_cell_angle_beta                  100.999386
_cell_angle_gamma                 116.601716
_cell_volume                      3311.2267566

loop_
_atom_site_label
_atom_site_type_symbol
_atom_type_description
_atom_site_fract_x
_atom_site_fract_y
_atom_site_fract_z
_atom_type_partial_charge
C1    C     C_R   0.854891 0.286569 0.505144 0.525294
C2    C     C_R   0.963873 0.580090 0.867166 0.404978
C3    C     C_R   0.115163 0.580865 0.759690 -0.074565
C4    C     C_R   0.999048 0.499039 0.608766 0.534527
C5    C     C_R   0.109760 0.573074 0.700867 -0.169074
C6    C     C_R   0.000768 0.501474 0.671068 0.006188
C7    C     C_R   0.896376 0.434802 0.701461 0.223258
C8    C     C_R   0.902306 0.445969 0.759989 0.019441
C9    C     C_R   0.011386 0.517768 0.789291 0.190469
C10   C     C_R   0.899430 0.458488 0.233586 -0.070178
C11   C     C_R   0.898348 0.458534 0.292815 -0.175947
C12   C     C_R   0.137141 0.407009 0.053997 -0.054613
C13   C     C_R   0.007955 0.509424 0.328503 0.000882
C14   C     C_R   0.120306 0.563671 0.303552 0.223465
C15   C     C_R   0.119802 0.561351 0.244295 0.014474
C16   C     C_R   0.145085 0.713390 0.491408 0.539658
C17   C     C_R   0.010107 0.509647 0.209103 0.184112
C18   C     C_R   0.276666 0.020949 0.421189 -0.120908
C19   C     C_R   0.228131 0.834526 0.479224 -0.002040
C20   C     C_R   0.814744 0.085334 0.544101 -0.126117
C21   C     C_R   0.735668 0.970491 0.555858 -0.129593
C22   C     C_R   0.612607 0.932711 0.535067 -0.115508
C23   C     C_R   0.145397 0.413297 0.994745 0.237155
C24   C     C_R   0.566445 0.009308 0.499765 0.034420
C25   C     C_R   0.650293 0.123552 0.482181 0.025032
C26   C     C_R   0.440074 0.975997 0.480770 0.031419
C27   C     C_R   0.401087 0.052948 0.440319 0.050956
C28   C     C_R   0.002615 0.503147 0.391138 0.533004
C29   C     C_R   0.486806 0.159830 0.418268 -0.133523
C30   C     C_R   0.609641 0.194026 0.438134 -0.119887
C31   C     C_R   0.350838 0.868597 0.501129 -0.131513
C32   C     C_R   0.190500 0.911771 0.440234 -0.129533
C33   C     C_R   0.772944 0.163471 0.508658 -0.001255
C34   C     C_R   0.083293 0.467468 0.951161 0.019116
C35   C     C_R   0.345063 0.327116 0.592469 -0.138188
C36   C     C_R   0.760677 0.646360 0.421417 0.054626
C37   C     C_R   0.664678 0.678570 0.404320 -0.146990
C38   C     C_R   0.560595 0.623360 0.433737 -0.124049
C39   C     C_R   0.551405 0.534771 0.480976 -0.007094
C40   C     C_R   0.957092 0.570425 0.107016 0.409857
C41   C     C_R   0.652402 0.504983 0.496924 0.175809
C42   C     C_R   0.446659 0.474982 0.513129 -0.010658
C43   C     C_R   0.445452 0.387070 0.560132 0.029775
C44   C     C_R   0.544603 0.359623 0.574852 -0.145231
C45   C     C_R   0.022550 0.522761 0.968998 -0.061206
C46   C     C_R   0.645713 0.417719 0.544132 -0.072198
C47   C     C_R   0.342282 0.498136 0.501036 0.052883
C48   C     C_R   0.245779 0.354279 0.578431 0.051532
C49   C     C_R   0.069343 0.456267 0.131338 0.401994
C50   C     C_R   0.075223 0.459973 0.071744 -0.018731
C51   C     C_R   0.019325 0.519483 0.029246 -0.041048
C52   C     C_R   0.959167 0.574961 0.046938 0.040242
C53   C     C_R   0.963711 0.580559 0.926755 0.035191
C54   C     C_R   0.905104 0.636477 0.944925 -0.112430
C55   C     C_R   0.903021 0.633862 0.004366 -0.113713
C56   C     C_R   0.075350 0.465069 0.890556 0.404216
Cu1   Cu    Cu3+1 0.098270 0.475410 0.513370 0.940737
Cu2   Cu    Cu3+1 0.901730 0.524590 0.486630 0.924530
H1    H     H_    0.183194 0.363184 0.086258 0.194189
H2    H     H_    0.769236 0.910791 0.582843 0.134525
H3    H     H_    0.672144 0.275301 0.417158 0.151157
H4    H     H_    0.167783 0.308311 0.603119 0.128941
H5    H     H_    0.544453 0.292664 0.610823 0.152453
H6    H     H_    0.343513 0.259771 0.628417 0.109795
H7    H     H_    0.335049 0.563163 0.466078 0.131383
H8    H     H_    0.841139 0.689816 0.398376 0.132335
H9    H     H_    0.489128 0.651785 0.418683 0.132009
H10   H     H_    0.670999 0.746612 0.368162 0.123639
H11   H     H_    0.717329 0.391711 0.559102 0.191194
H12   H     H_    0.811812 0.417019 0.311088 0.130512
H13   H     H_    0.859870 0.681827 0.913267 0.172136
H14   H     H_    0.856556 0.677498 0.016801 0.172745
H15   H     H_    0.199914 0.635933 0.782348 0.140339
H16   H     H_    0.190552 0.623782 0.678337 0.132175
H17   H     H_    0.823070 0.395181 0.783578 0.156613
H18   H     H_    0.814223 0.418131 0.206696 0.152990
H19   H     H_    0.217724 0.646082 0.368666 0.329459
H20   H     H_    0.270153 0.424871 0.952563 0.358572
H21   H     H_    0.808503 0.330556 0.644278 0.314404
H22   H     H_    0.205166 0.602801 0.225003 0.161938
H23   H     H_    0.095621 0.886287 0.422682 0.128438
H24   H     H_    0.458836 0.217438 0.385431 0.122563
H25   H     H_    0.246478 0.079247 0.390195 0.124469
H26   H     H_    0.374162 0.808526 0.533733 0.120399
H27   H     H_    0.908420 0.113465 0.564043 0.133463
H28   H     H_    0.556893 0.842497 0.546347 0.108648
N1    N     N_R   0.011415 0.511441 0.147824 -0.394878
N2    N     N_R   0.018096 0.522179 0.850420 -0.404418
N3    N     N_R   0.246280 0.438190 0.533650 -0.235253
N4    N     N_R   0.754320 0.561190 0.466710 -0.238083
O1    O     O_R   0.972510 0.318130 0.516820 -0.499739
O2    O     O_R   0.082990 0.479280 0.429170 -0.485465
O3    O     O_R   0.917010 0.520800 0.406580 -0.511365
O4    O     O_2   0.902366 0.625514 0.124545 -0.490115
O5    O     O_3   0.231403 0.622142 0.334458 -0.705799
O6    O     O_3   0.216650 0.367239 0.981621 -0.641771
O7    O     O_3   0.789617 0.354855 0.676846 -0.713590
O8    O     O_2   0.120613 0.397555 0.172519 -0.494458
O9    O     O_2   0.120173 0.403184 0.871569 -0.459252
O10   O     O_2   0.909409 0.636196 0.826154 -0.489599
O11   O     O_R   0.806530 0.359650 0.494230 -0.535291
O12   O     O_R   0.082990 0.479200 0.593420 -0.498587
O13   O     O_R   0.917010 0.520720 0.570830 -0.499625
O14   O     O_R   0.193470 0.640350 0.505770 -0.515773
O15   O     O_R   0.027490 0.681870 0.483180 -0.501872

loop_
_geom_bond_atom_site_label_1
_geom_bond_atom_site_label_2
_ccdc_geom_bond_type
C4    O13   A    
C34   C56   A    
Cu1   O2    S    
C27   C29   A    
C49   N1    A    
C19   C31   A    
C11   H12   S    
C1    C33   S    
C7    C8    A    
C39   C41   A    
C53   C54   A    
C32   H23   S    
C12   C23   A    
C26   C27   A    
C29   C30   A    
Cu1   N3    S    
C40   N1    A    
C36   C37   A    
Cu2   O3    S    
C24   C26   A    
C9    N2    S    
C38   C39   A    
C36   H8    S    
C56   N2    A    
C19   C32   A    
C10   C17   A    
C37   H10   S    
C23   O6    S    
C5    H16   S    
C46   H11   S    
C49   O8    S    
C12   H1    S    
C10   H18   S    
C16   O14   A    
C54   H13   S    
H20   O6    S    
C8    C9    A    
C4    O12   A    
C41   C46   A    
C13   C28   S    
C2    N2    A    
C35   H6    S    
C35   C43   A    
C55   H14   S    
C52   C55   A    
C41   N4    A    
C2    O10   S    
C26   C31   A    
C1    O1    A    
C13   C14   A    
C47   N3    A    
C35   C48   A    
C44   C46   A    
C50   C51   A    
C39   C42   A    
C44   H5    S    
C51   C52   A    
C24   C25   A    
C21   H2    S    
C4    C6    S    
Cu2   O11   S    
C40   C52   A    
H19   O5    S    
C8    H17   S    
C31   H26   S    
C28   O3    A    
C43   C44   A    
C37   C38   A    
C3    C9    A    
C48   H4    S    
C15   H22   S    
C23   C34   A    
C20   H27   S    
C18   H25   S    
C28   O2    A    
C34   C45   A    
C38   H9    S    
Cu2   N4    S    
Cu1   O12   S    
C16   O15   A    
Cu1   O1    S    
C20   C33   A    
C48   N3    A    
C22   C24   A    
C18   C32   A    
C42   C43   A    
C1    O11   A    
C14   O5    S    
C36   N4    A    
C25   C30   A    
C15   C17   A    
Cu1   O14   S    
C54   C55   A    
C7    O7    S    
C17   N1    S    
H21   O7    S    
C18   C27   A    
C40   O4    S    
C3    C5    A    
C2    C53   A    
C12   C50   A    
C6    C7    A    
Cu2   O15   S    
C29   H24   S    
C11   C13   A    
Cu1   Cu2   S    
C5    C6    A    
C16   C19   S    
C42   C47   A    
C22   H28   S    
C3    H15   S    
C10   C11   A    
C45   C53   A    
C20   C21   A    
C49   C50   A    
C30   H3    S    
C45   C51   A    
C14   C15   A    
Cu2   O13   S    
C56   O9    S    
C21   C22   A    
C47   H7    S    
C25   C33   A    
