data_mof_unit_49630.cif
_audit_creation_date              2012-12-10T18:43:45-0500
_audit_creation_method            fapswitch 2.2
_symmetry_space_group_name_H-M    P1
_symmetry_Int_Tables_number       1
_space_group_crystal_system       triclinic
_cell_length_a                    10.858909
_cell_length_b                    10.744935
_cell_length_c                    9.831345
_cell_angle_alpha                 90.775604
_cell_angle_beta                  104.025421
_cell_angle_gamma                 90.617958
_cell_volume                      1112.68825834

loop_
_atom_site_label
_atom_site_type_symbol
_atom_type_description
_atom_site_fract_x
_atom_site_fract_y
_atom_site_fract_z
_atom_type_partial_charge
C1    C     C_R   0.501002 0.259829 0.499214 0.930033
C2    C     C_R   0.499494 0.740093 0.501129 0.918633
C3    C     C_R   0.259365 0.502395 0.441636 0.936805
C4    C     C_R   0.740880 0.501209 0.558413 0.952392
C5    C     C_R   0.582488 0.577208 0.096709 0.549883
C6    C     C_R   0.416001 0.424799 0.902698 0.547685
C7    C     C_R   0.581102 0.575973 0.950129 -0.314178
C8    C     C_R   0.417021 0.425914 0.049063 -0.340963
C9    C     C_2   0.123485 0.508081 0.407967 -0.376379
C10   C     C_2   0.877120 0.509628 0.591754 -0.380486
C11   C     C_2   0.067547 0.526041 0.512529 -0.178122
C12   C     C_2   0.932943 0.514789 0.485717 -0.154813
C13   C     C_R   0.534388 0.060740 0.388535 0.472038
C14   C     C_R   0.462185 0.938603 0.610952 0.480376
C15   C     C_R   0.534086 0.932892 0.393707 -0.379168
C16   C     C_R   0.463347 0.066784 0.606738 -0.382565
C17   C     C_R   0.498255 0.872501 0.502926 -0.181654
C18   C     C_R   0.499517 0.127255 0.497111 -0.183693
H1    H     H_    0.931120 0.514121 0.700485 0.146505
H2    H     H_    0.069413 0.493613 0.300208 0.147658
N1    N     N_R   0.499970 0.499970 0.857200 -0.118870
N2    N     N_R   0.500030 0.500030 0.142800 -0.114819
O1    O     O_R   0.499990 0.316750 0.614620 -0.588443
O2    O     O_R   0.500010 0.683250 0.385380 -0.595547
O3    O     O_R   0.499990 0.316780 0.385290 -0.590760
O4    O     O_R   0.500010 0.683220 0.614710 -0.573364
O5    O     O_R   0.317810 0.500000 0.571850 -0.575157
O6    O     O_R   0.682190 0.500000 0.428150 -0.566599
O7    O     O_R   0.317810 0.500030 0.342520 -0.637928
O8    O     O_R   0.682190 0.499970 0.657480 -0.635886
Zn1   Zn    Zn3+2 0.500000 0.499980 0.653120 0.995301
Zn2   Zn    Zn3+2 0.500000 0.500020 0.346880 0.993691
H3    H     H_    0.879358 0.508040 0.376811 0.212725
H4    H     H_    0.121315 0.541804 0.620308 0.198051
O9    O     O_3   0.662242 0.654034 0.197506 -0.581958
C19   C     C_3   0.749296 0.727000 0.145531 0.028795
H5    H     H_    0.697935 0.794253 0.067363 0.160815
H6    H     H_    0.811615 0.666490 0.099109 0.135992
C20   C     C_3   0.834578 0.802053 0.264975 -0.801537
H7    H     H_    0.886272 0.739341 0.347314 0.260508
H8    H     H_    0.905010 0.856648 0.224365 0.205099
H9    H     H_    0.777872 0.867575 0.312030 0.262124
O10   O     O_3   0.337142 0.348006 0.801742 -0.578227
C21   C     C_3   0.236053 0.291253 0.846064 0.034026
H10   H     H_    0.180824 0.361517 0.889852 0.138537
H11   H     H_    0.272777 0.218466 0.924217 0.126294
C22   C     C_3   0.146374 0.227691 0.720674 -0.817821
H12   H     H_    0.199083 0.161794 0.668669 0.238811
H13   H     H_    0.070971 0.175722 0.755715 0.206935
H14   H     H_    0.101202 0.297889 0.643579 0.271078
H15   H     H_    0.643486 0.634839 0.907979 0.161540
H16   H     H_    0.353397 0.367652 0.090038 0.147692
O11   O     O_3   0.588036 0.119877 0.291910 -0.590350
C23   C     C_3   0.509573 0.102331 0.155393 0.108579
H17   H     H_    0.420615 0.155457 0.144856 0.128011
H18   H     H_    0.484358 0.002790 0.128787 0.128583
C24   C     C_3   0.579806 0.149522 0.049537 -0.773080
H19   H     H_    0.663732 0.090789 0.051409 0.246075
H20   H     H_    0.515980 0.145115 0.942753 0.212781
H21   H     H_    0.612361 0.247226 0.075100 0.255560
O12   O     O_3   0.440998 0.877980 0.727148 -0.591226
C25   C     C_3   0.316637 0.899168 0.741436 0.088498
H22   H     H_    0.245460 0.897693 0.638244 0.128531
H23   H     H_    0.313333 0.989792 0.796097 0.140475
C26   C     C_3   0.280344 0.796962 0.830668 -0.814972
H24   H     H_    0.182964 0.812476 0.843921 0.197482
H25   H     H_    0.282948 0.704748 0.779044 0.262599
H26   H     H_    0.347776 0.797311 0.935637 0.248246
H27   H     H_    0.566208 0.880727 0.314280 0.210747
H28   H     H_    0.438771 0.118930 0.691070 0.202377

loop_
_geom_bond_atom_site_label_1
_geom_bond_atom_site_label_2
_ccdc_geom_bond_type
C8    N2    A    
C11   C12   S    
O2    Zn2   S    
C15   C17   A    
C25   H22   S    
C3    C9    S    
C14   C16   A    
O7    Zn2   S    
N1    Zn1   S    
C8    H16   S    
C9    H2    S    
C25   H23   S    
C22   H12   S    
C21   C22   S    
C10   H1    S    
O10   C21   S    
C26   H26   S    
O3    Zn2   S    
C3    O5    A    
C1    C18   S    
C7    H15   S    
O4    Zn1   S    
C2    O4    A    
C16   C18   A    
C7    N1    A    
O11   C23   S    
C6    N1    A    
C2    C17   S    
C1    O3    A    
C9    C11   D    
C14   C17   A    
C3    O7    A    
C24   H19   S    
O12   C25   S    
C10   C12   D    
C13   C18   A    
C5    O9    S    
C19   H6    S    
C19   H5    S    
C4    O6    A    
C21   H11   S    
C1    O1    A    
C22   H14   S    
C13   O11   S    
C6    O10   S    
C13   C15   A    
C2    O2    A    
O8    Zn1   S    
C15   H27   S    
C23   H18   S    
C24   H20   S    
C4    C10   S    
O6    Zn2   S    
N2    Zn2   S    
C16   H28   S    
C21   H10   S    
C20   H8    S    
C22   H13   S    
C26   H24   S    
C20   H7    S    
C5    C7    A    
C20   H9    S    
C24   H21   S    
C6    C8    A    
C25   C26   S    
C12   H3    S    
C23   H17   S    
C14   O12   S    
O5    Zn1   S    
C19   C20   S    
C11   H4    S    
C4    O8    A    
C5    N2    A    
O9    C19   S    
C26   H25   S    
C23   C24   S    
O1    Zn1   S    
