data_mof_unit_20571.cif
_audit_creation_date              2013-03-05T15:54:45-0500
_audit_creation_method            fapswitch 2.2
_symmetry_space_group_name_H-M    P1
_symmetry_Int_Tables_number       1
_space_group_crystal_system       triclinic
_cell_length_a                    12.312811
_cell_length_b                    13.146361
_cell_length_c                    15.05406
_cell_angle_alpha                 77.455948
_cell_angle_beta                  101.304257
_cell_angle_gamma                 116.434563
_cell_volume                      2116.1149449

loop_
_atom_site_label
_atom_site_type_symbol
_atom_site_description
_atom_site_fract_x
_atom_site_fract_y
_atom_site_fract_z
_atom_type_partial_charge
O1    O     O_R   0.972510 0.318130 0.526570 -0.530374
O2    O     O_R   0.806530 0.359650 0.490890 -0.614668
C1    C     C_R   0.854600 0.285781 0.508200 0.842502
O3    O     O_R   0.082980 0.479210 0.647590 -0.528043
O4    O     O_R   0.917000 0.520730 0.611900 -0.610221
C2    C     C_R   0.997089 0.495940 0.671421 0.866781
Cu1   Cu    Cu3+1 0.098270 0.475420 0.521130 1.025188
Cu2   Cu    Cu3+1 0.901730 0.524580 0.478870 0.950106
O5    O     O_R   0.193470 0.640350 0.509110 -0.588190
O6    O     O_R   0.027490 0.681870 0.473430 -0.588287
O7    O     O_R   0.083000 0.479270 0.388100 -0.587603
O8    O     O_R   0.917020 0.520790 0.352410 -0.598262
C3    C     C_R   0.144789 0.713649 0.488138 0.807293
C4    C     C_R   0.000575 0.500450 0.328946 0.794411
C5    C     C_R   0.949921 0.563931 0.165717 -0.176798
C6    C     C_R   0.000319 0.499720 0.232465 -0.086691
C7    C     C_R   0.048217 0.433160 0.207202 -0.223170
C8    C     C_R   0.044867 0.429149 0.115098 0.133023
C9    C     C_R   0.995397 0.494672 0.047353 0.043632
C10   C     C_R   0.947549 0.562986 0.072624 0.011188
C11   C     C_R   0.089144 0.359572 0.089946 -0.204406
C12   C     C_R   0.085620 0.354995 0.997992 -0.103345
C13   C     C_R   0.039765 0.421832 0.929184 0.018925
C14   C     C_R   0.993600 0.491477 0.954384 0.021562
C15   C     C_R   0.944773 0.557303 0.886834 0.040387
C16   C     C_R   0.897720 0.624831 0.912062 -0.160695
C17   C     C_R   0.898470 0.628000 0.004162 0.376619
C18   C     C_R   0.037472 0.419557 0.835865 0.308254
C19   C     C_R   0.992259 0.489199 0.768853 -0.163248
C20   C     C_R   0.944548 0.555696 0.794753 -0.206396
H1    H     H_    0.913912 0.615208 0.187156 0.197096
H2    H     H_    0.085780 0.382577 0.259346 0.161351
H3    H     H_    0.126005 0.308041 0.141539 0.153274
H4    H     H_    0.119395 0.298905 0.981608 0.211009
H5    H     H_    0.909323 0.608399 0.742904 0.181357
H6    H     H_    0.860169 0.675414 0.859987 0.197866
C21   C     C_R   0.266761 0.031883 0.409821 -0.138213
H7    H     H_    0.088259 0.893647 0.405299 0.161071
H8    H     H_    0.446867 0.227805 0.350899 0.149245
H9    H     H_    0.234425 0.092725 0.366827 0.144068
C22   C     C_R   0.225769 0.836181 0.478456 -0.066825
C23   C     C_R   0.810661 0.079919 0.573100 0.297998
C24   C     C_R   0.726385 0.979786 0.618328 -0.221222
C25   C     C_R   0.602252 0.954992 0.604875 0.262928
C26   C     C_R   0.558070 0.021184 0.531916 -0.015734
C27   C     C_R   0.643454 0.127133 0.490239 0.013334
C28   C     C_R   0.432449 0.985456 0.497789 0.132029
C29   C     C_R   0.391549 0.064192 0.438438 0.164954
C30   C     C_R   0.476261 0.169714 0.401223 -0.221424
C31   C     C_R   0.599818 0.196114 0.420839 -0.133119
C32   C     C_R   0.348900 0.870219 0.511865 -0.171130
C33   C     C_R   0.183668 0.918391 0.431206 -0.140083
C34   C     C_R   0.770394 0.161697 0.518667 -0.206823
H10   H     H_    0.380246 0.804647 0.543468 0.178729
H11   H     H_    0.758647 0.923375 0.668070 0.223799
H12   H     H_    0.660136 0.270501 0.379381 0.173472
C35   C     C_R   0.332217 0.308554 0.632681 0.253927
H13   H     H_    0.155000 0.293498 0.646252 0.224312
N1    N     N_R   0.246280 0.438190 0.553160 -0.224095
C36   C     C_R   0.759501 0.647000 0.377009 0.103119
C37   C     C_R   0.662776 0.678885 0.351149 -0.221767
C38   C     C_R   0.559283 0.622707 0.397605 -0.171535
C39   C     C_R   0.550961 0.533118 0.471126 0.024748
C40   C     C_R   0.652292 0.503441 0.494714 0.228726
C41   C     C_R   0.446023 0.471573 0.521267 -0.098114
C42   C     C_R   0.441548 0.377328 0.590989 -0.087085
C43   C     C_R   0.546581 0.355522 0.617470 0.290557
C44   C     C_R   0.647063 0.416262 0.568563 -0.249805
C45   C     C_R   0.344512 0.499859 0.505048 0.042845
C46   C     C_R   0.238291 0.344356 0.614727 0.122592
N2    N     N_R   0.754320 0.561190 0.447410 -0.203710
H14   H     H_    0.341326 0.570625 0.454577 0.128886
H15   H     H_    0.839535 0.691218 0.340743 0.132328
H16   H     H_    0.487050 0.650538 0.373831 0.138224
H17   H     H_    0.667942 0.747327 0.294793 0.169959
H18   H     H_    0.721801 0.394361 0.593507 0.231321
N3    N     N_R   0.936475 0.098465 0.585644 0.139244
O9    O     O_R   0.983723 0.061904 0.663971 -0.276773
O10   O     O_R   0.995673 0.129833 0.514527 -0.367476
N4    N     N_R   0.526036 0.870965 0.671413 0.128213
O11   O     O_R   0.448245 0.892140 0.702999 -0.257603
O12   O     O_R   0.545913 0.781179 0.709997 -0.326237
N5    N     N_R   0.559162 0.280408 0.699820 0.164973
O13   O     O_R   0.608431 0.210902 0.700017 -0.303007
O14   O     O_R   0.543381 0.296908 0.777622 -0.280813
N6    N     N_R   0.309032 0.197006 0.684735 0.176992
O15   O     O_R   0.323330 0.121666 0.650317 -0.275427
O16   O     O_R   0.251948 0.163457 0.757180 -0.224833
N7    N     N_R   0.076165 0.343578 0.809174 0.112241
O17   O     O_R   0.997530 0.258839 0.766742 -0.320771
O18   O     O_R   0.190712 0.362077 0.823536 -0.323103
Cl1   Cl    Cl    0.837072 0.715025 0.030017 -0.559535

loop_
_geom_bond_atom_site_label_1
_geom_bond_atom_site_label_2
_geom_bond_distance
_ccdc_geom_bond_type
C39   C41   1.442269 A    
C43   N5    1.437054 S    
C8    C11   1.397351 A    
C9    C10   1.416234 A    
C35   C42   1.422900 A    
C3    C22   1.461245 S    
Cu1   Cu2   2.699802 S    
N3    O9    1.301412 A    
C37   H17   1.082584 S    
Cu1   O7    1.966039 S    
C16   C17   1.394231 A    
C38   C39   1.411878 A    
C20   H5    1.085034 S    
C40   C44   1.400891 A    
C18   C19   1.413592 A    
C21   H9    1.083899 S    
C23   C34   1.416238 A    
O4    C2    1.301695 A    
O7    C4    1.300040 A    
N6    O16   1.301343 A    
H7    C33   1.083150 S    
C5    C6    1.400293 A    
C36   H15   1.081717 S    
C35   N6    1.435907 S    
C8    C9    1.412484 A    
C40   N2    1.388657 A    
O5    C3    1.302079 A    
C28   C29   1.417507 A    
C6    C7    1.396462 A    
C13   C14   1.415660 A    
C18   N7    1.434995 S    
C35   C46   1.392434 A    
N7    O18   1.301154 A    
C22   C33   1.401085 A    
N3    O10   1.301553 A    
C42   C43   1.411359 A    
C11   C12   1.389986 A    
O3    Cu1   1.962702 S    
Cu1   N1    2.034799 S    
C26   C28   1.422471 A    
C5    C10   1.398648 A    
C12   H4    1.081543 S    
C43   C44   1.390150 A    
C25   N4    1.438453 S    
C14   C15   1.409131 A    
O3    C2    1.298318 A    
C21   C33   1.392074 A    
N6    O15   1.301683 A    
H13   C46   1.080026 S    
C28   C32   1.398810 A    
C36   N2    1.357563 A    
C15   C16   1.399501 A    
C26   C27   1.419210 A    
C31   H12   1.080448 S    
C36   C37   1.391925 A    
O1    C1    1.307299 A    
C45   H14   1.076140 S    
C24   C25   1.395387 A    
C19   C20   1.398746 A    
N5    O13   1.301787 A    
Cu2   O8    1.962702 S    
C7    C8    1.390804 A    
C17   Cl1   1.763720 S    
C13   C18   1.406120 A    
C21   C29   1.402035 A    
N1    C45   1.363851 A    
C16   H6    1.084317 S    
C29   C30   1.389040 A    
N5    O14   1.301414 A    
O8    C4    1.297348 A    
C30   C31   1.385783 A    
C4    C6    1.453921 S    
C23   C24   1.394514 A    
C25   C26   1.425327 A    
C24   H11   1.083033 S    
C15   C20   1.390374 A    
Cu1   O5    1.938508 S    
Cu2   N2    2.022878 S    
H8    C30   1.084165 S    
O1    Cu1   1.950781 S    
O2    Cu2   1.938510 S    
N4    O11   1.301720 A    
O6    C3    1.298887 A    
O4    Cu2   1.966041 S    
C5    H1    1.082533 S    
C10   C17   1.411018 A    
C44   H18   1.060279 S    
C27   C31   1.415897 A    
C32   H10   1.079127 S    
C9    C14   1.404846 A    
C1    C34   1.485714 S    
C41   C45   1.419453 A    
C27   C34   1.422136 A    
N4    O12   1.301606 A    
O2    C1    1.304850 A    
C37   C38   1.394785 A    
N1    C46   1.349627 A    
C39   C40   1.426368 A    
C2    C19   1.461417 S    
C11   H3    1.084049 S    
C23   N3    1.436641 S    
Cu2   O6    1.950780 S    
C41   C42   1.427155 A    
C7    H2    1.084920 S    
C12   C13   1.407432 A    
C38   H16   1.077510 S    
N7    O17   1.301075 A    
C22   C32   1.395174 A    
