data_mof_unit_16987.cif
_audit_creation_date              2012-12-10T17:51:27-0500
_audit_creation_method            fapswitch 2.2
_symmetry_space_group_name_H-M    P1
_symmetry_Int_Tables_number       1
_space_group_crystal_system       triclinic
_cell_length_a                    14.859591
_cell_length_b                    15.003626
_cell_length_c                    17.328131
_cell_angle_alpha                 108.50555
_cell_angle_beta                  73.384726
_cell_angle_gamma                 116.05969
_cell_volume                      3242.02895735

loop_
_atom_site_label
_atom_site_type_symbol
_atom_type_description
_atom_site_fract_x
_atom_site_fract_y
_atom_site_fract_z
_atom_type_partial_charge
C1    C     C_R   0.118527 0.687582 0.514137 0.818203
C2    C     C_R   0.881474 0.312385 0.485488 0.806392
C3    C     C_R   0.185227 0.795735 0.526795 -0.069742
C4    C     C_R   0.814820 0.204221 0.470827 -0.083854
C5    C     C_R   0.215477 0.971500 0.597803 -0.000155
C6    C     C_R   0.784526 0.029827 0.395358 -0.001998
C7    C     C_R   0.148820 0.870126 0.577368 -0.218898
C8    C     C_R   0.851259 0.130704 0.418187 -0.225677
C9    C     C_R   0.287890 0.822982 0.492694 -0.235265
C10   C     C_R   0.711952 0.176446 0.504277 -0.198846
C11   C     C_R   0.358715 0.922929 0.513576 0.074394
C12   C     C_R   0.641040 0.077426 0.480244 0.079607
C13   C     C_R   0.321222 0.998470 0.565939 0.075947
C14   C     C_R   0.678604 0.002570 0.426541 0.068716
C15   C     C_R   0.465585 0.949165 0.484662 0.067965
C16   C     C_R   0.534078 0.051397 0.507904 0.079535
C17   C     C_R   0.493191 0.124935 0.556234 -0.183060
C18   C     C_R   0.506467 0.876151 0.434630 -0.205969
C19   C     C_R   0.389806 0.099245 0.583567 -0.179660
C20   C     C_R   0.609888 0.902141 0.406996 -0.167772
C21   C     C_R   0.300842 0.341604 0.349211 -0.290997
C22   C     C_R   0.699189 0.658487 0.650559 -0.291685
C23   C     C_R   0.988495 0.502040 0.652190 0.814101
C24   C     C_R   0.011494 0.497935 0.347807 0.807059
C25   C     C_R   0.212666 0.361876 0.378751 0.062545
C26   C     C_R   0.787343 0.638219 0.621150 0.062453
C27   C     C_R   0.287969 0.492091 0.489835 0.107456
C28   C     C_R   0.712348 0.508061 0.509881 0.109533
C29   C     C_R   0.373156 0.463577 0.469188 -0.066619
C30   C     C_R   0.627065 0.536471 0.530487 -0.072725
C31   C     C_R   0.382397 0.394659 0.392735 0.150417
C32   C     C_R   0.617690 0.605300 0.606993 0.152731
C33   C     C_R   0.453137 0.506363 0.517670 0.094280
C34   C     C_R   0.546921 0.493280 0.482141 0.085431
C35   C     C_R   0.558276 0.440449 0.398778 -0.192860
C36   C     C_R   0.441620 0.558752 0.601185 -0.191502
C37   C     C_R   0.475688 0.385558 0.357521 -0.172462
C38   C     C_R   0.524230 0.613917 0.642366 -0.174617
C39   C     C_R   0.979739 0.498269 0.737289 -0.025677
C40   C     C_R   0.020159 0.501516 0.262675 -0.027090
C41   C     C_R   0.041500 0.461508 0.755507 -0.157336
C42   C     C_R   0.958481 0.538335 0.244410 -0.157909
C43   C     C_R   0.033774 0.457064 0.835879 -0.148015
C44   C     C_R   0.966063 0.542490 0.163983 -0.149773
C45   C     C_R   0.965160 0.490801 0.899510 0.185627
C46   C     C_R   0.034492 0.508466 0.100361 0.185183
C47   C     C_R   0.901288 0.524717 0.881244 -0.158639
C48   C     C_R   0.098292 0.474499 0.118667 -0.159033
C49   C     C_R   0.908706 0.528855 0.800481 -0.194908
C50   C     C_R   0.090986 0.470607 0.199475 -0.196733
C51   C     C_2   0.958967 0.491514 0.985459 -0.218905
C52   C     C_2   0.040651 0.507623 0.014392 -0.217653
Cu1   Cu    Cu3+1 0.916740 0.524770 0.521640 0.972750
Cu2   Cu    Cu3+1 0.083260 0.475230 0.478360 0.975486
H1    H     H_    0.095476 0.435416 0.707665 0.170914
H2    H     H_    0.904684 0.564691 0.292256 0.176795
H3    H     H_    0.538448 0.204505 0.574003 0.185752
H4    H     H_    0.461252 0.796908 0.415022 0.181265
H5    H     H_    0.486602 0.340240 0.295564 0.144533
H6    H     H_    0.513214 0.659028 0.704397 0.144711
H7    H     H_    0.850135 0.678937 0.654904 0.132793
H8    H     H_    0.149817 0.321159 0.345058 0.132099
H9    H     H_    0.306091 0.286274 0.291752 0.146749
H10   H     H_    0.693839 0.713778 0.708026 0.146374
H11   H     H_    0.631086 0.441518 0.363508 0.162588
H12   H     H_    0.368715 0.557356 0.636598 0.158053
H13   H     H_    0.140031 0.442766 0.212251 0.155597
H14   H     H_    0.859588 0.556633 0.787736 0.155284
H15   H     H_    0.113626 0.517934 0.973885 0.148608
H16   H     H_    0.886001 0.481213 0.025981 0.148003
H17   H     H_    0.847169 0.549862 0.929743 0.130795
H18   H     H_    0.152274 0.449139 0.070170 0.130950
H19   H     H_    0.918986 0.573250 0.152106 0.131567
H20   H     H_    0.080914 0.426336 0.847703 0.130463
H21   H     H_    0.364655 0.160463 0.618245 0.187342
H22   H     H_    0.635005 0.841318 0.370841 0.187981
H23   H     H_    0.689899 0.234754 0.549254 0.169737
H24   H     H_    0.309895 0.763233 0.450391 0.171427
H25   H     H_    0.931409 0.152823 0.391712 0.174962
H26   H     H_    0.068801 0.848449 0.604217 0.173441
N1    N     N_R   0.208390 0.438070 0.445820 -0.220223
N2    N     N_R   0.791610 0.561930 0.554180 -0.219926
O1    O     O_R   0.020090 0.662480 0.528530 -0.591593
O2    O     O_R   0.979910 0.337520 0.471470 -0.589762
O3    O     O_R   0.160710 0.620650 0.491980 -0.570842
O4    O     O_R   0.839290 0.379350 0.508020 -0.572578
O5    O     O_R   0.921540 0.523360 0.633990 -0.605160
O6    O     O_R   0.078460 0.476640 0.366010 -0.605719
O7    O     O_R   0.062170 0.481520 0.597440 -0.544354
O8    O     O_R   0.937830 0.518480 0.402560 -0.542120
C53   C     C_2   0.701425 0.405786 0.457265 0.868214
O9    O     O_2   0.632926 0.331221 0.479951 -0.635900
O10   O     O_R   0.762132 0.393555 0.379765 -0.767287
H27   H     H_    0.744830 0.319456 0.350079 0.324562
C54   C     C_2   0.298654 0.593795 0.543582 0.856723
O11   O     O_2   0.241043 0.603307 0.609011 -0.598968
O12   O     O_R   0.382098 0.678984 0.522367 -0.792798
H28   H     H_    0.385729 0.743815 0.565809 0.334732
C55   C     C_2   0.171796 0.044892 0.656330 0.815578
O13   O     O_2   0.092712 0.043996 0.647268 -0.580773
O14   O     O_R   0.217875 0.111452 0.723983 -0.773133
H29   H     H_    0.179992 0.156579 0.759699 0.335146
C56   C     C_2   0.828363 0.957470 0.335159 0.815952
O15   O     O_2   0.907118 0.957128 0.343692 -0.580419
O16   O     O_R   0.782833 0.893384 0.266629 -0.773400
H30   H     H_    0.820782 0.848766 0.229812 0.335485

loop_
_geom_bond_atom_site_label_1
_geom_bond_atom_site_label_2
_ccdc_geom_bond_type
C15   C18   A    
Cu2   O6    S    
O10   H27   S    
C49   H14   S    
C29   C33   A    
C27   C29   A    
C27   C54   S    
C54   O11   D    
C4    C8    A    
Cu2   O2    S    
O12   H28   S    
C39   C41   A    
Cu1   Cu2   S    
C21   C31   A    
O14   H29   S    
C22   C32   A    
C35   C37   A    
C26   H7    S    
C3    C7    A    
C36   H12   S    
C53   O10   S    
C45   C51   S    
C15   C16   A    
C46   C52   S    
C33   C36   A    
Cu1   O5    S    
C20   H22   S    
C34   C35   A    
C41   H1    S    
C52   H15   S    
C42   H2    S    
C11   C15   A    
C18   H4    S    
C2    O2    A    
C5    C55   S    
C16   C17   A    
C8    H25   S    
C23   O7    A    
Cu1   O4    S    
C51   H16   S    
C32   C38   A    
C50   H13   S    
C5    C13   A    
C9    H24   S    
C43   H20   S    
C40   C42   A    
C26   N2    A    
C23   O5    A    
C25   N1    A    
C41   C43   A    
C42   C44   A    
C48   H18   S    
C12   C16   A    
C10   H23   S    
C44   C46   A    
C45   C47   A    
C1    O3    A    
C46   C48   A    
C30   C34   A    
C28   N2    A    
C51   C52   D    
C14   C20   A    
C27   N1    A    
Cu2   O7    S    
C47   C49   A    
C53   O9    D    
C5    C7    A    
C13   C19   A    
C17   C19   A    
C6    C8    A    
C31   C37   A    
Cu1   N2    S    
C1    C3    S    
C2    C4    S    
C3    C9    A    
C6    C14   A    
C24   O6    A    
C55   O13   D    
C33   C34   A    
C56   O16   S    
C6    C56   S    
C48   C50   A    
C43   C45   A    
C47   H17   S    
C37   H5    S    
C10   C12   A    
C38   H6    S    
C55   O14   S    
C12   C14   A    
C9    C11   A    
C4    C10   A    
Cu1   O8    S    
C21   C25   A    
C39   C49   A    
C24   O8    A    
Cu2   O3    S    
C54   O12   S    
C1    O1    A    
O16   H30   S    
Cu1   O1    S    
C36   C38   A    
C28   C30   A    
C29   C31   A    
C30   C32   A    
C11   C13   A    
C23   C39   S    
C19   H21   S    
C24   C40   S    
C2    O4    A    
C28   C53   S    
C18   C20   A    
C25   H8    S    
C44   H19   S    
C21   H9    S    
C22   H10   S    
C40   C50   A    
C22   C26   A    
C56   O15   D    
C35   H11   S    
Cu2   N1    S    
C17   H3    S    
C7    H26   S    
