data_mof_unit_9262.cif
_audit_creation_date              2012-12-10T18:45:11-0500
_audit_creation_method            fapswitch 2.2
_symmetry_space_group_name_H-M    P1
_symmetry_Int_Tables_number       1
_space_group_crystal_system       triclinic
_cell_length_a                    10.7181
_cell_length_b                    9.891269
_cell_length_c                    10.714864
_cell_angle_alpha                 92.273992
_cell_angle_beta                  91.826901
_cell_angle_gamma                 90.20835
_cell_volume                      1134.45769677

loop_
_atom_site_label
_atom_site_type_symbol
_atom_type_description
_atom_site_fract_x
_atom_site_fract_y
_atom_site_fract_z
_atom_type_partial_charge
C1    C     C_R   0.260013 0.499759 0.500271 0.881095
C2    C     C_R   0.494563 0.503971 0.740539 0.892275
C3    C     C_R   0.644404 0.706494 0.137448 -0.216329
C4    C     C_R   0.537661 0.762656 0.906311 -0.202107
C5    C     C_R   0.655356 0.836226 0.093761 0.201631
C6    C     C_R   0.594872 0.866618 0.980771 0.198016
C7    C     C_R   0.532954 0.628314 0.947543 0.071979
C8    C     C_R   0.569741 0.607853 0.071376 0.064417
C9    C     C_R   0.522428 0.493721 0.128711 -0.088551
C10   C     C_R   0.487625 0.513713 0.874764 -0.111905
C11   C     C_R   0.463006 0.388856 0.059377 -0.149356
C12   C     C_R   0.739898 0.499911 0.499322 0.878555
C13   C     C_R   0.449424 0.397112 0.932336 -0.167532
C14   C     C_R   0.064047 0.378870 0.520084 -0.177019
C15   C     C_R   0.936151 0.378946 0.519687 -0.150977
C16   C     C_R   0.872335 0.499309 0.498222 -0.028040
C17   C     C_R   0.127392 0.499429 0.500301 -0.034050
C18   C     C_R   0.935672 0.619142 0.476567 -0.156947
C19   C     C_R   0.063358 0.619698 0.479759 -0.145235
C20   C     C_R   0.585659 0.076345 0.570371 -0.055637
C21   C     C_R   0.416768 0.069433 0.426642 -0.094339
C22   C     C_R   0.587038 0.933454 0.570085 0.194438
C23   C     C_R   0.417186 0.926420 0.424962 0.205077
C24   C     C_R   0.509323 0.497575 0.260921 0.881103
H1    H     H_    0.689245 0.685377 0.226506 0.172228
H2    H     H_    0.111210 0.713937 0.465657 0.188895
H3    H     H_    0.489750 0.792164 0.821878 0.201519
H4    H     H_    0.112866 0.285269 0.536912 0.169495
H5    H     H_    0.887747 0.285424 0.536783 0.173586
H6    H     H_    0.654732 0.134413 0.625625 0.173304
H7    H     H_    0.351139 0.121971 0.367211 0.159973
H8    H     H_    0.424939 0.301701 0.103490 0.184987
H9    H     H_    0.407111 0.312686 0.878858 0.188484
H10   H     H_    0.887077 0.712205 0.457350 0.189473
I1    I     I_    0.752499 0.982770 0.210239 -0.308714
I2    I     I_    0.582451 0.067686 0.921817 -0.364837
I3    I     I_    0.737814 0.850218 0.673343 -0.331784
I4    I     I_    0.292983 0.830653 0.291636 -0.331329
N1    N     N_R   0.500000 0.857200 0.500000 -0.123979
N2    N     N_R   0.500000 0.142810 0.500000 -0.110929
O1    O     O_R   0.316770 0.614620 0.499990 -0.605805
O2    O     O_R   0.683230 0.614620 0.500010 -0.606812
O3    O     O_R   0.316800 0.385290 0.500000 -0.632384
O4    O     O_R   0.683200 0.385290 0.500000 -0.622113
O5    O     O_R   0.500010 0.614690 0.316770 -0.594685
O6    O     O_R   0.499990 0.614690 0.683230 -0.619654
O7    O     O_R   0.500040 0.385360 0.316770 -0.611913
O8    O     O_R   0.499960 0.385360 0.683230 -0.606712
Zn1   Zn    Zn3+2 0.500000 0.653120 0.500000 0.998147
Zn2   Zn    Zn3+2 0.500000 0.346880 0.500000 0.980997

loop_
_geom_bond_atom_site_label_1
_geom_bond_atom_site_label_2
_ccdc_geom_bond_type
C7    C10   A    
C9    C24   S    
C13   H9    S    
C22   I3    S    
C23   I4    S    
C21   H7    S    
C1    C17   S    
C14   C17   A    
O5    Zn1   S    
C14   H4    S    
O8    Zn2   S    
C7    C8    A    
C12   O4    A    
C20   H6    S    
C2    O6    A    
C11   C13   A    
O6    Zn1   S    
C21   N2    A    
C18   H10   S    
C4    C7    A    
C23   N1    A    
C24   O5    A    
C5    I1    S    
O1    Zn1   S    
N1    Zn1   S    
C6    I2    S    
C11   H8    S    
C15   H5    S    
O7    Zn2   S    
C9    C11   A    
C21   C23   A    
C5    C6    A    
C20   N2    A    
N2    Zn2   S    
C3    C8    A    
C4    C6    A    
C22   N1    A    
O2    Zn1   S    
C15   C16   A    
C2    C10   S    
O3    Zn2   S    
C12   C16   S    
C3    H1    S    
C4    H3    S    
C16   C18   A    
C18   C19   A    
O4    Zn2   S    
C19   H2    S    
C14   C15   A    
C17   C19   A    
C12   O2    A    
C2    O8    A    
C24   O7    A    
C1    O3    A    
C1    O1    A    
C20   C22   A    
C8    C9    A    
C3    C5    A    
C10   C13   A    
