data_mof_unit_30897.cif
_audit_creation_date              2012-12-10T18:51:35-0500
_audit_creation_method            fapswitch 2.2
_symmetry_space_group_name_H-M    P1
_symmetry_Int_Tables_number       1
_space_group_crystal_system       triclinic
_cell_length_a                    10.622651
_cell_length_b                    10.065594
_cell_length_c                    10.481706
_cell_angle_alpha                 88.915455
_cell_angle_beta                  93.117038
_cell_angle_gamma                 91.637944
_cell_volume                      1118.45370616

loop_
_atom_site_label
_atom_site_type_symbol
_atom_type_description
_atom_site_fract_x
_atom_site_fract_y
_atom_site_fract_z
_atom_type_partial_charge
C1    C     C_R   0.872181 0.503558 0.504465 0.002853
C2    C     C_3   0.513803 0.375437 0.045130 -0.148098
C3    C     C_3   0.402784 0.420236 0.955020 -0.175656
C4    C     C_3   0.593900 0.579610 0.044964 -0.173547
C5    C     C_3   0.497913 0.498962 0.877459 0.047077
C6    C     C_3   0.498917 0.500914 0.122578 0.049575
C7    C     C_R   0.579766 0.072340 0.582159 0.144873
C8    C     C_R   0.419256 0.927562 0.417717 0.177094
C9    C     C_R   0.415611 0.070635 0.421633 0.168238
C10   C     C_R   0.589996 0.931328 0.570763 0.150847
C11   C     C_R   0.065658 0.402741 0.572490 -0.203108
C12   C     C_R   0.127785 0.497825 0.498829 0.009949
C13   C     C_R   0.934490 0.600573 0.433171 -0.204456
C14   C     C_R   0.936698 0.404936 0.574552 -0.198823
C15   C     C_R   0.063257 0.597293 0.429826 -0.195939
C16   C     C_3   0.642677 0.139439 0.698650 -0.343238
C17   C     C_3   0.560266 0.121396 0.813042 -0.853199
C18   C     C_3   0.347295 0.857144 0.308235 -0.356092
C19   C     C_3   0.415451 0.876020 0.183724 -0.904004
C20   C     C_3   0.307602 0.140447 0.349817 -0.359250
C21   C     C_3   0.186988 0.126689 0.422985 -0.870258
C22   C     C_3   0.717212 0.873891 0.610568 -0.317031
C23   C     C_R   0.260644 0.498753 0.499047 0.841129
C24   C     C_3   0.720980 0.799049 0.739187 -0.760539
C25   C     C_R   0.739319 0.501402 0.501895 0.839933
C26   C     C_R   0.499519 0.500708 0.257946 0.847174
C27   C     C_R   0.499149 0.499249 0.742054 0.846105
C28   C     C_3   0.387801 0.545304 0.035359 -0.193112
C29   C     C_3   0.608891 0.454395 0.964866 -0.192298
C30   C     C_3   0.482706 0.624366 0.955077 -0.145507
H1    H     H_    0.325424 0.355227 0.913657 0.126610
H2    H     H_    0.112246 0.671270 0.373086 0.126492
H3    H     H_    0.606776 0.171934 0.896685 0.237853
H4    H     H_    0.465567 0.162903 0.792145 0.275455
H5    H     H_    0.547816 0.014554 0.838301 0.240982
H6    H     H_    0.736265 0.101274 0.728292 0.170089
H7    H     H_    0.663921 0.244717 0.680034 0.246342
H8    H     H_    0.510182 0.832137 0.192899 0.281215
H9    H     H_    0.359180 0.826980 0.104825 0.244661
H10   H     H_    0.428527 0.982528 0.157528 0.239445
H11   H     H_    0.333666 0.751271 0.326774 0.257748
H12   H     H_    0.671298 0.644726 0.086096 0.127896
H13   H     H_    0.249381 0.890964 0.293959 0.173869
H14   H     H_    0.206415 0.153652 0.524386 0.270775
H15   H     H_    0.114448 0.193149 0.378983 0.254445
H16   H     H_    0.148147 0.023339 0.421221 0.235606
H17   H     H_    0.329495 0.245311 0.332736 0.261345
H18   H     H_    0.288822 0.103857 0.251685 0.179171
H19   H     H_    0.801264 0.837374 0.801565 0.210766
H20   H     H_    0.633487 0.811868 0.789782 0.247240
H21   H     H_    0.735090 0.691622 0.726102 0.252503
H22   H     H_    0.753205 0.818221 0.532316 0.214596
H23   H     H_    0.298027 0.582065 0.069034 0.125022
H24   H     H_    0.792732 0.952039 0.613732 0.139176
H25   H     H_    0.698565 0.417272 0.931259 0.123548
H26   H     H_    0.468253 0.726066 0.915303 0.137418
H27   H     H_    0.526039 0.273980 0.086583 0.139624
H28   H     H_    0.116742 0.329241 0.629726 0.138167
H29   H     H_    0.883559 0.676003 0.378124 0.134229
H30   H     H_    0.887520 0.330982 0.631213 0.126967
N1    N     N_R   0.500000 0.857200 0.500000 -0.134676
N2    N     N_R   0.500000 0.142800 0.500000 -0.138893
O1    O     O_R   0.316770 0.614620 0.499990 -0.637711
O2    O     O_R   0.683230 0.385380 0.500010 -0.632154
O3    O     O_R   0.683230 0.614620 0.500010 -0.628630
O4    O     O_R   0.316770 0.385380 0.499990 -0.623086
O5    O     O_R   0.499970 0.614650 0.313950 -0.627762
O6    O     O_R   0.500030 0.385350 0.686050 -0.626023
O7    O     O_R   0.500030 0.614650 0.686050 -0.608973
O8    O     O_R   0.499970 0.385350 0.313950 -0.644754
Zn1   Zn    Zn3+2 0.500000 0.653120 0.500000 0.921508
Zn2   Zn    Zn3+2 0.500000 0.346880 0.500000 0.911205

loop_
_geom_bond_atom_site_label_1
_geom_bond_atom_site_label_2
_ccdc_geom_bond_type
C7    C10   A    
C1    C25   S    
C28   H23   S    
C7    N2    A    
C13   H29   S    
C19   H8    S    
C16   C17   S    
C8    C18   S    
C21   H14   S    
C14   H30   S    
C16   H7    S    
C9    C20   S    
C21   H15   S    
C4    C29   S    
C27   O7    A    
C12   C15   A    
C8    N1    A    
O6    Zn2   S    
N1    Zn1   S    
C24   H21   S    
C23   O1    A    
C2    C3    S    
C2    H27   S    
N2    Zn2   S    
C15   H2    S    
C22   H24   S    
C20   H18   S    
C18   H13   S    
C10   C22   S    
C3    H1    S    
O4    Zn2   S    
C12   C23   S    
C6    C26   S    
C17   H3    S    
C2    C29   S    
C16   H6    S    
C19   H9    S    
C22   C24   S    
C28   C30   S    
C7    C16   S    
C11   C14   A    
C11   H28   S    
O1    Zn1   S    
C5    C30   S    
C22   H22   S    
O5    Zn1   S    
O2    Zn2   S    
C13   C15   A    
C24   H20   S    
C26   O8    A    
C4    H12   S    
C4    C30   S    
C10   N1    A    
C1    C13   A    
C19   H10   S    
C26   O5    A    
C9    N2    A    
C20   H17   S    
C5    C29   S    
C25   O3    A    
C20   C21   S    
C23   O4    A    
C4    C6    S    
C21   H16   S    
C17   H4    S    
C18   H11   S    
C24   H19   S    
O7    Zn1   S    
C18   C19   S    
C3    C28   S    
O8    Zn2   S    
C1    C14   A    
C17   H5    S    
C27   O6    A    
C5    C27   S    
C29   H25   S    
C30   H26   S    
C6    C28   S    
C2    C6    S    
C11   C12   A    
O3    Zn1   S    
C8    C9    A    
C3    C5    S    
C25   O2    A    
