data_mof_unit_18604.cif
_audit_creation_date              2012-12-10T17:33:53-0500
_audit_creation_method            fapswitch 2.2
_symmetry_space_group_name_H-M    P1
_symmetry_Int_Tables_number       1
_space_group_crystal_system       triclinic
_cell_length_a                    10.665545
_cell_length_b                    11.966613
_cell_length_c                    12.812189
_cell_angle_alpha                 93.958274
_cell_angle_beta                  90.216762
_cell_angle_gamma                 85.575725
_cell_volume                      1626.46170794

loop_
_atom_site_label
_atom_site_type_symbol
_atom_type_description
_atom_site_fract_x
_atom_site_fract_y
_atom_site_fract_z
_atom_type_partial_charge
C1    C     C_R   0.494188 0.523022 0.700624 0.875412
C2    C     C_3   0.120997 0.499649 0.493094 0.091647
C3    C     C_3   0.064814 0.532145 0.384610 -0.069625
C4    C     C_3   0.066204 0.580423 0.584493 -0.426058
C5    C     C_R   0.502714 0.462292 0.188269 -0.042400
C6    C     C_R   0.482490 0.538642 0.812476 -0.106979
C7    C     C_R   0.390563 0.627803 0.971631 -0.225795
C8    C     C_R   0.403006 0.626781 0.862961 0.077676
C9    C     C_R   0.545327 0.455441 0.868326 -0.319015
C10   C     C_R   0.529093 0.455597 0.974433 0.189630
C11   C     C_R   0.452019 0.542894 0.026367 0.150288
C12   C     C_R   0.742227 0.498565 0.498312 0.837582
C13   C     C_R   0.438879 0.545137 0.133254 -0.275313
C14   C     C_R   0.574982 0.372667 0.137093 -0.225476
C15   C     C_R   0.588812 0.369616 0.029513 -0.209158
C16   C     C_R   0.385424 0.954811 0.400045 -0.338663
C17   C     C_R   0.396193 0.838455 0.409799 0.023636
C18   C     C_R   0.548627 0.858097 0.543755 -0.064816
C19   C     C_R   0.541320 0.975611 0.536610 0.097263
C20   C     C_R   0.458480 0.024413 0.463673 0.092757
C21   C     C_R   0.451181 0.141883 0.456468 -0.055102
C22   C     C_R   0.603791 0.161646 0.590294 0.003074
C23   C     C_R   0.501373 0.477251 0.299570 0.865207
C24   C     C_R   0.614433 0.045258 0.600182 -0.338571
C25   C     C_R   0.257656 0.499638 0.495577 0.837680
C26   C     C_3   0.942567 0.373233 0.513249 -0.033793
C27   C     C_3   0.084961 0.378630 0.510768 -0.452162
C28   C     C_3   0.920210 0.541154 0.394067 -0.431984
C29   C     C_3   0.921784 0.578577 0.589308 -0.100199
C30   C     C_3   0.878453 0.495210 0.498124 0.089047
H1    H     H_    0.090729 0.667758 0.574590 0.164731
H2    H     H_    0.882967 0.630662 0.393539 0.182982
H3    H     H_    0.381588 0.613006 0.174303 0.143471
H4    H     H_    0.624327 0.308301 0.180444 0.160665
H5    H     H_    0.332623 0.693217 0.014788 0.136917
H6    H     H_    0.647365 0.301753 0.989844 0.134426
H7    H     H_    0.606137 0.389005 0.828501 0.155481
H8    H     H_    0.387937 0.181007 0.401011 0.121745
H9    H     H_    0.919105 0.353623 0.594101 0.123205
H10   H     H_    0.660038 0.215391 0.639427 0.119758
H11   H     H_    0.320884 0.989841 0.343204 0.142681
H12   H     H_    0.679023 0.010192 0.656960 0.138886
H13   H     H_    0.340440 0.784922 0.360305 0.125696
H14   H     H_    0.611756 0.818945 0.599296 0.120243
H15   H     H_    0.124808 0.350698 0.586136 0.173596
H16   H     H_    0.127683 0.319340 0.447439 0.179824
H17   H     H_    0.878640 0.499337 0.323977 0.137854
H18   H     H_    0.093029 0.461676 0.326077 0.134580
H19   H     H_    0.881008 0.664626 0.574236 0.163570
H20   H     H_    0.110497 0.555240 0.659015 0.164036
N1    N     N_R   0.523380 0.207800 0.519350 -0.097668
N2    N     N_R   0.476620 0.792180 0.480650 -0.097598
O1    O     O_R   0.506240 0.421700 0.658830 -0.614733
O2    O     O_R   0.491240 0.609310 0.646410 -0.631827
O3    O     O_R   0.692710 0.406190 0.506230 -0.635312
O4    O     O_R   0.677700 0.593810 0.493810 -0.626394
O5    O     O_R   0.508760 0.390690 0.353590 -0.624460
O6    O     O_R   0.493760 0.578300 0.341170 -0.625224
O7    O     O_R   0.322300 0.406190 0.506190 -0.625640
O8    O     O_R   0.307290 0.593810 0.493770 -0.638490
Zn1   Zn    Zn3+2 0.510020 0.374730 0.508290 0.924629
Zn2   Zn    Zn3+2 0.489980 0.625270 0.491710 0.919819
C31   C     C_3   0.902573 0.266718 0.446534 -0.373881
C32   C     C_3   0.883924 0.277998 0.328973 -0.318797
C33   C     C_3   0.862220 0.164726 0.272174 -0.916213
H21   H     H_    0.945246 0.104130 0.281030 0.259225
H22   H     H_    0.777573 0.130213 0.303968 0.269659
H23   H     H_    0.847237 0.175652 0.187548 0.246372
H24   H     H_    0.799500 0.335458 0.316115 0.224598
H25   H     H_    0.968139 0.310315 0.294695 0.212534
H26   H     H_    0.974569 0.196048 0.457396 0.186496
H27   H     H_    0.816055 0.236638 0.479078 0.219328
C34   C     C_3   0.112263 0.639006 0.340059 -0.409923
C35   C     C_3   0.059104 0.660370 0.230635 -0.361413
C36   C     C_3   0.106673 0.766525 0.190182 -0.914194
H28   H     H_    0.074538 0.841151 0.242377 0.262962
H29   H     H_    0.210910 0.759862 0.186338 0.246801
H30   H     H_    0.069174 0.778320 0.110373 0.251737
H31   H     H_    0.088358 0.587609 0.175071 0.219297
H32   H     H_    0.954819 0.670567 0.232080 0.230986
H33   H     H_    0.088711 0.713686 0.394893 0.215115
H34   H     H_    0.215605 0.627489 0.330048 0.215883
C37   C     C_3   0.330904 0.714974 0.800315 -0.369697
C38   C     C_3   0.233507 0.795477 0.861261 -0.391372
C39   C     C_3   0.163260 0.874660 0.788605 -0.895707
H35   H     H_    0.229990 0.927004 0.751723 0.268941
H36   H     H_    0.113605 0.826225 0.726333 0.250624
H37   H     H_    0.092707 0.930956 0.834254 0.250042
H38   H     H_    0.164090 0.746608 0.899271 0.225294
H39   H     H_    0.281447 0.847318 0.922240 0.227337
H40   H     H_    0.399995 0.766536 0.765314 0.222098
H41   H     H_    0.280127 0.670402 0.736082 0.203333
C40   C     C_3   0.876286 0.554465 0.700432 -0.423725
C41   C     C_3   0.888145 0.655478 0.779689 -0.355856
C42   C     C_3   0.840847 0.631837 0.887666 -0.873347
H42   H     H_    0.739291 0.617423 0.884317 0.271748
H43   H     H_    0.894395 0.556864 0.916619 0.257712
H44   H     H_    0.853768 0.705151 0.943589 0.247939
H45   H     H_    0.988002 0.674900 0.786617 0.231643
H46   H     H_    0.832452 0.730431 0.752678 0.215882
H47   H     H_    0.776064 0.535359 0.697929 0.200327
H48   H     H_    0.931682 0.480358 0.729247 0.202972

loop_
_geom_bond_atom_site_label_1
_geom_bond_atom_site_label_2
_ccdc_geom_bond_type
O6    Zn2   S    
C23   O6    A    
C28   H17   S    
C40   C41   S    
C8    C37   S    
C24   H12   S    
C34   C35   S    
C15   H6    S    
C19   C20   A    
N1    Zn1   S    
C36   H28   S    
C6    C9    A    
C42   H44   S    
C18   N2    A    
C7    C8    A    
C29   H19   S    
C39   H35   S    
C7    C11   A    
C37   H41   S    
C26   C27   S    
C3    C28   S    
C10   C15   A    
C26   H9    S    
C3    H18   S    
O8    Zn2   S    
C18   C19   A    
C1    O1    A    
O1    Zn1   S    
C21   H8    S    
C42   H42   S    
C16   C17   A    
C33   H22   S    
C2    C27   S    
C25   O8    A    
C32   H25   S    
C9    C10   A    
C5    C13   A    
C4    C29   S    
C27   H15   S    
C35   H32   S    
C38   H39   S    
C17   N2    A    
C34   H33   S    
C39   H36   S    
O7    Zn1   S    
C35   C36   S    
C1    C6    S    
C12   O3    A    
C28   H2    S    
C38   C39   S    
C40   H47   S    
C6    C8    A    
O2    Zn2   S    
C4    H20   S    
C2    C4    S    
C26   C31   S    
C17   H13   S    
C13   H3    S    
C29   C30   S    
C18   H14   S    
C37   C38   S    
C5    C23   S    
C41   H46   S    
C16   C20   A    
C33   H23   S    
C22   H10   S    
C9    H7    S    
C32   H24   S    
C20   C21   A    
C36   H29   S    
C5    C14   A    
C12   O4    A    
C1    O2    A    
C27   H16   S    
C31   H26   S    
C26   C30   S    
C35   H31   S    
C22   C24   A    
C38   H38   S    
C34   H34   S    
C21   N1    A    
C39   H37   S    
C23   O5    A    
C12   C30   S    
C7    H5    S    
C40   H48   S    
C14   H4    S    
C42   H43   S    
O5    Zn1   S    
C37   H40   S    
C32   C33   S    
C28   C30   S    
C19   C24   A    
N2    Zn2   S    
C29   C40   S    
C11   C13   A    
C41   H45   S    
O3    Zn1   S    
C2    C3    S    
C2    C25   S    
O4    Zn2   S    
C41   C42   S    
C3    C34   S    
C36   H30   S    
C4    H1    S    
C10   C11   A    
C31   C32   S    
C31   H27   S    
C33   H21   S    
C14   C15   A    
C25   O7    A    
C16   H11   S    
C22   N1    A    
