data_mof_unit_54846.cif
_audit_creation_date              2013-03-05T16:02:23-0500
_audit_creation_method            fapswitch 2.2
_symmetry_space_group_name_H-M    P1
_symmetry_Int_Tables_number       1
_space_group_crystal_system       triclinic
_cell_length_a                    14.989015
_cell_length_b                    14.105462
_cell_length_c                    10.888929
_cell_angle_alpha                 90.308856
_cell_angle_beta                  87.734147
_cell_angle_gamma                 90.000552
_cell_volume                      2300.37990047

loop_
_atom_site_label
_atom_site_type_symbol
_atom_site_description
_atom_site_fract_x
_atom_site_fract_y
_atom_site_fract_z
_atom_type_partial_charge
O1    O     O_R   0.367860 0.580280 0.500020 -0.621563
O2    O     O_R   0.367860 0.419720 0.500020 -0.632585
C1    C     C_R   0.327373 0.500057 0.501390 0.871142
O3    O     O_R   0.500000 0.580270 0.314790 -0.604824
O4    O     O_R   0.500000 0.419730 0.314790 -0.628280
C2    C     C_R   0.498452 0.499819 0.256623 0.889977
Zn1   Zn    Zn3+2 0.500020 0.607200 0.499990 0.935941
Zn2   Zn    Zn3+2 0.500020 0.392800 0.499990 0.932812
O5    O     O_R   0.632160 0.580270 0.499960 -0.627453
O6    O     O_R   0.632160 0.419730 0.499960 -0.622009
O7    O     O_R   0.500030 0.580270 0.685200 -0.630493
O8    O     O_R   0.500030 0.419730 0.685200 -0.612807
C3    C     C_R   0.673321 0.500348 0.503190 0.898058
C4    C     C_R   0.481756 0.500249 0.739708 0.893611
C5    C     C_3   0.434273 0.595273 0.080293 0.204027
C6    C     C_3   0.431052 0.406349 0.079976 0.161697
C7    C     C_3   0.430337 0.598993 0.931932 0.213591
C8    C     C_3   0.422833 0.407165 0.931920 0.253938
H1    H     H_    0.608025 0.558559 0.868829 0.188477
H2    H     H_    0.608650 0.438024 0.862108 0.185561
C9    C     C_3   0.587407 0.496148 0.050071 0.366063
C10   C     C_3   0.488606 0.499510 0.118806 -0.014692
C11   C     C_3   0.474761 0.500904 0.877354 -0.018619
C12   C     C_3   0.573794 0.497526 0.910975 -0.457129
C13   C     C_R   0.819688 0.491936 0.394423 -0.004894
C14   C     C_R   0.770054 0.503287 0.505519 -0.113143
C15   C     C_R   0.812475 0.526107 0.614877 0.136705
C16   C     C_R   0.905889 0.520803 0.615694 0.107629
C17   C     C_R   0.955462 0.514046 0.502600 -0.088056
C18   C     C_R   0.911883 0.509327 0.389769 0.081199
C19   C     C_R   0.950643 0.522625 0.726924 -0.249646
C20   C     C_R   0.043391 0.516601 0.727874 0.090336
C21   C     C_R   0.092554 0.510730 0.615709 0.142837
C22   C     C_R   0.048655 0.511509 0.502617 -0.005181
C23   C     C_R   0.098474 0.508495 0.389704 0.081774
C24   C     C_R   0.056012 0.513585 0.277344 0.059661
C25   C     C_R   0.962185 0.518528 0.276666 0.188635
C26   C     C_R   0.185222 0.504601 0.613875 -0.269857
C27   C     C_R   0.232743 0.500789 0.502374 -0.065015
C28   C     C_R   0.190993 0.503721 0.391484 -0.228033
H3    H     H_    0.913971 0.525524 0.814448 0.159448
H4    H     H_    0.221255 0.503709 0.698200 0.158276
H5    H     H_    0.231440 0.503861 0.307225 0.174134
C29   C     C_R   0.571241 0.799539 0.448205 0.284130
C30   C     C_R   0.571064 0.199696 0.448485 0.293426
N1    N     N_R   0.500070 0.750030 0.500050 -0.104686
N2    N     N_R   0.500070 0.249970 0.500050 -0.104812
C31   C     C_R   0.429625 0.798357 0.554984 -0.133915
C32   C     C_R   0.429333 0.201973 0.554163 -0.136213
C33   C     C_R   0.428250 0.898939 0.559183 0.020650
C34   C     C_R   0.428100 0.101358 0.558813 0.020401
C35   C     C_R   0.502376 0.949454 0.511061 0.052624
C36   C     C_R   0.502327 0.050371 0.511069 0.050987
C37   C     C_R   0.575947 0.899328 0.459642 0.024263
C38   C     C_R   0.575848 0.100032 0.459836 0.026362
C39   C     C_R   0.354934 0.950312 0.609827 -0.197083
C40   C     C_R   0.354824 0.050402 0.609537 -0.197905
C41   C     C_R   0.651880 0.048645 0.418629 -0.215469
C42   C     C_R   0.651925 0.950410 0.418536 -0.216684
H6    H     H_    0.373799 0.758635 0.594270 0.143086
H7    H     H_    0.373029 0.241889 0.592206 0.145271
H8    H     H_    0.297236 0.913145 0.648447 0.139245
H9    H     H_    0.297049 0.087877 0.647942 0.137963
H10   H     H_    0.712339 0.083462 0.385326 0.159650
H11   H     H_    0.712417 0.915366 0.385264 0.159373
N3    N     N_3   0.477375 0.681389 0.131915 -0.411176
H12   H     H_    0.434380 0.739729 0.137375 0.174314
H13   H     H_    0.533608 0.706764 0.085828 0.193000
N4    N     N_3   0.472191 0.317980 0.127525 -0.427042
H14   H     H_    0.424414 0.265537 0.147048 0.179756
H15   H     H_    0.520125 0.283908 0.073003 0.194132
N5    N     N_3   0.087895 0.516921 0.842446 -0.475942
H16   H     H_    0.109270 0.447651 0.858257 0.176103
H17   H     H_    0.043122 0.534700 0.914739 0.173915
N6    N     N_3   0.109248 0.511751 0.164592 -0.487680
H18   H     H_    0.105911 0.577730 0.121941 0.188531
H19   H     H_    0.085061 0.458866 0.107121 0.193251
C43   C     C_3   0.917745 0.541475 0.157631 -0.915259
H20   H     H_    0.961064 0.584287 0.094902 0.218629
H21   H     H_    0.899116 0.475204 0.109524 0.249850
H22   H     H_    0.858250 0.586917 0.175933 0.254721
C44   C     C_3   0.641793 0.750068 0.370126 -0.866251
H23   H     H_    0.618621 0.681221 0.341371 0.288438
H24   H     H_    0.654996 0.788725 0.282685 0.201679
H25   H     H_    0.704396 0.743159 0.420577 0.235668
C45   C     C_3   0.641149 0.248166 0.370428 -0.901661
H26   H     H_    0.617554 0.316971 0.343198 0.290757
H27   H     H_    0.703829 0.254498 0.420873 0.231392
H28   H     H_    0.653735 0.209243 0.282487 0.208099
N7    N     N_3   0.343326 0.593868 0.140848 -0.450628
H29   H     H_    0.295132 0.559699 0.091197 0.211684
H30   H     H_    0.316445 0.661762 0.153046 0.175807
N8    N     N_3   0.341373 0.409417 0.141139 -0.495387
H31   H     H_    0.303645 0.350512 0.116057 0.172536
H32   H     H_    0.346360 0.404726 0.236303 0.214735
N9    N     N_3   0.337317 0.605179 0.893202 -0.494215
H33   H     H_    0.335063 0.603691 0.797335 0.188063
H34   H     H_    0.308221 0.669256 0.922794 0.190093
N10   N     N_3   0.328622 0.410304 0.894305 -0.478058
H35   H     H_    0.298215 0.343656 0.902244 0.178744
H36   H     H_    0.287550 0.454344 0.947977 0.210312
C46   C     C_3   0.474360 0.693393 0.880273 -0.876623
H37   H     H_    0.547946 0.695028 0.879393 0.232778
H38   H     H_    0.452946 0.711401 0.787265 0.261596
H39   H     H_    0.448640 0.756213 0.932009 0.207796
C47   C     C_3   0.458247 0.310851 0.874868 -0.851170
H40   H     H_    0.531812 0.304970 0.868237 0.233311
H41   H     H_    0.430211 0.249302 0.926452 0.202023
H42   H     H_    0.431670 0.297107 0.783144 0.261840
C48   C     C_3   0.650433 0.580892 0.082067 -0.905949
H43   H     H_    0.722415 0.564198 0.069026 0.242919
H44   H     H_    0.646537 0.642576 0.020774 0.215894
H45   H     H_    0.639933 0.603500 0.177568 0.233300
C49   C     C_3   0.644019 0.405801 0.077150 -0.884622
H46   H     H_    0.631793 0.381990 0.171310 0.242522
H47   H     H_    0.635012 0.346377 0.012707 0.212993
H48   H     H_    0.717102 0.416342 0.064209 0.242023
N11   N     N_3   0.777819 0.455769 0.288367 -0.471764
H49   H     H_    0.720135 0.494847 0.275605 0.192302
H50   H     H_    0.760581 0.385390 0.305249 0.198740
C50   C     C_3   0.759546 0.556219 0.729312 -0.959661
H51   H     H_    0.791391 0.618473 0.772498 0.244157
H52   H     H_    0.692019 0.580385 0.708037 0.261289
H53   H     H_    0.755710 0.496715 0.795543 0.241478

loop_
_geom_bond_atom_site_label_1
_geom_bond_atom_site_label_2
_geom_bond_distance
_ccdc_geom_bond_type
N3    H13   1.029005 S    
N8    H31   1.046193 S    
C23   C24   1.403447 A    
N6    H18   1.044425 S    
C13   N11   1.427820 S    
C9    C48   1.569794 S    
C15   C50   1.509521 S    
N2    C32   1.372819 A    
Zn1   O7    2.054218 S    
C6    N8    1.476882 S    
C7    C11   1.634243 S    
C16   C17   1.415667 A    
C5    C10   1.642212 S    
C26   H4    1.083658 S    
C29   C44   1.500209 S    
O4    C2    1.298767 A    
Zn2   O6    2.016728 S    
O7    C4    1.302188 A    
C43   H21   1.110162 S    
C47   H40   1.105261 S    
C2    C10   1.513689 S    
C39   C40   1.411830 A    
C46   H39   1.108430 S    
C5    C7    1.620027 S    
C22   C23   1.413477 A    
N4    H15   1.030959 S    
O5    C3    1.286438 A    
C48   H43   1.107823 S    
C50   H53   1.109568 S    
N11   H49   1.039744 S    
C28   H5    1.079531 S    
H2    C12   1.110744 S    
C29   N1    1.378779 A    
C32   C34   1.420496 A    
N9    H34   1.047240 S    
C33   C35   1.405266 A    
C11   C12   1.543672 S    
C40   H9    1.083166 S    
C34   C40   1.408651 A    
C30   N2    1.378039 A    
N3    H12   1.045221 S    
C1    C27   1.418069 S    
N8    H32   1.044333 S    
C9    C10   1.633258 S    
N4    H14   1.046359 S    
O3    Zn1   2.050094 S    
C35   C37   1.405845 A    
C31   H6    1.082314 S    
N11   H50   1.041280 S    
C37   C42   1.406987 A    
C36   C38   1.404253 A    
C41   H10   1.081605 S    
N1    C31   1.372253 A    
C32   H7    1.081977 S    
C8    C11   1.636781 S    
Zn1   N1    2.014680 S    
N5    H17   1.043575 S    
C27   C28   1.382613 A    
C45   H26   1.079973 S    
N5    H16   1.045551 S    
C41   C42   1.385645 A    
C5    N3    1.493405 S    
C17   C22   1.397348 A    
O6    C3    1.294717 A    
C33   C39   1.408774 A    
C18   C25   1.424913 A    
O1    C1    1.283914 A    
C4    C11   1.498315 S    
C7    C46   1.582275 S    
C8    C47   1.574237 S    
C17   C18   1.415320 A    
C24   N6    1.437697 S    
N7    H30   1.044768 S    
N10   H35   1.047254 S    
Zn2   O8    2.050193 S    
N9    H33   1.045863 S    
C21   C22   1.419073 A    
C14   C15   1.407714 A    
C7    N9    1.475257 S    
C46   H38   1.105308 S    
N6    H19   1.045188 S    
C48   H45   1.091491 S    
C50   H51   1.110566 S    
O3    C2    1.297258 A    
N10   H36   1.036382 S    
O8    C4    1.302745 A    
C44   H24   1.110755 S    
C16   C19   1.407663 A    
C39   H8    1.083176 S    
C3    C14   1.451730 S    
C9    C12   1.536488 S    
C8    N10   1.486530 S    
C35   C36   1.423486 A    
C13   C18   1.402515 A    
Zn1   O5    2.016735 S    
C24   C25   1.408418 A    
C6    C10   1.634828 S    
C19   H3    1.081793 S    
O1    Zn1   2.016999 S    
H1    C12   1.095739 S    
C19   C20   1.393248 A    
O2    Zn2   2.017005 S    
C6    N4    1.494743 S    
C9    C49   1.566814 S    
C45   H28   1.110867 S    
O4    Zn2   2.054118 S    
C49   H47   1.101991 S    
C49   H46   1.089257 S    
C44   H25   1.110472 S    
C25   C43   1.517006 S    
C21   C26   1.391040 A    
C20   C21   1.403334 A    
C23   C28   1.389302 A    
C13   C14   1.403312 A    
Zn2   N2    2.014688 S    
C42   H11   1.081590 S    
C5    N7    1.490823 S    
C43   H20   1.105545 S    
C43   H22   1.109239 S    
N7    H29   1.036581 S    
C26   C27   1.383941 A    
C47   H41   1.110133 S    
C31   C33   1.419371 A    
C30   C45   1.492999 S    
C45   H27   1.110251 S    
C46   H37   1.102881 S    
C48   H44   1.102371 S    
C50   H52   1.101686 S    
C49   H48   1.109032 S    
C29   C37   1.414404 A    
C30   C38   1.413964 A    
C6    C8    1.621817 S    
C44   H23   1.080296 S    
C38   C41   1.407682 A    
C15   C16   1.402562 A    
O2    C1    1.285194 A    
C34   C36   1.405570 A    
C20   N5    1.437757 S    
C47   H42   1.105982 S    
