data_mof_unit_19848.cif
_audit_creation_date              2012-12-10T17:35:38-0500
_audit_creation_method            fapswitch 2.2
_symmetry_space_group_name_H-M    P1
_symmetry_Int_Tables_number       1
_space_group_crystal_system       triclinic
_cell_length_a                    10.736197
_cell_length_b                    12.338056
_cell_length_c                    13.118983
_cell_angle_alpha                 116.490677
_cell_angle_beta                  76.987221
_cell_angle_gamma                 101.696657
_cell_volume                      1504.93073669

loop_
_atom_site_label
_atom_site_type_symbol
_atom_type_description
_atom_site_fract_x
_atom_site_fract_y
_atom_site_fract_z
_atom_type_partial_charge
C1    C     C_R   0.511989 0.854839 0.285384 0.822147
C2    C     C_3   0.121463 0.997639 0.497608 0.036436
C3    C     C_3   0.042560 0.016978 0.617836 -0.311379
C4    C     C_3   0.066887 0.874806 0.404031 0.237270
C5    C     C_R   0.342558 0.271850 0.029316 -0.124271
C6    C     C_R   0.456727 0.227565 0.836490 -0.068858
C7    C     C_R   0.580994 0.814842 0.074802 0.325630
C8    C     C_R   0.591200 0.734086 0.958143 0.404764
C9    C     C_R   0.547244 0.611452 0.925723 -0.297919
C10   C     C_R   0.486980 0.565686 0.008233 0.023506
C11   C     C_R   0.456669 0.649638 0.124098 -0.051240
C12   C     C_R   0.739997 0.999868 0.499353 0.766663
C13   C     C_R   0.452868 0.438882 0.978148 0.068662
C14   C     C_R   0.374946 0.397883 0.060102 0.048935
C15   C     C_R   0.329323 0.483858 0.169771 0.345445
C16   C     C_R   0.367586 0.607423 0.199532 -0.174056
C17   C     C_R   0.497000 0.351464 0.868884 -0.224732
C18   C     C_R   0.382354 0.187480 0.918028 -0.150337
C19   C     C_R   0.514224 0.773368 0.160289 -0.237338
C20   C     C_R   0.710837 0.350516 0.331502 -0.235871
C21   C     C_R   0.324490 0.755258 0.646506 0.613384
C22   C     C_R   0.287748 0.656822 0.675855 -0.211768
C23   C     C_R   0.481591 0.144989 0.714008 0.813422
C24   C     C_R   0.353449 0.555272 0.619821 -0.233109
C25   C     C_R   0.458564 0.549989 0.532574 0.036911
C26   C     C_R   0.494071 0.653059 0.504078 0.252802
C27   C     C_R   0.530156 0.446520 0.473660 0.000364
C28   C     C_R   0.637026 0.448568 0.388542 0.155483
C29   C     C_R   0.670119 0.548594 0.361210 -0.228520
C30   C     C_R   0.600143 0.648004 0.417190 -0.156973
C31   C     C_R   0.501042 0.340450 0.495689 0.028968
C32   C     C_R   0.678429 0.250273 0.358392 0.132334
C33   C     C_R   0.259947 0.998996 0.498651 0.784935
C34   C     C_3   0.960914 0.106842 0.473575 -0.363661
C35   C     C_3   0.103662 0.103626 0.470301 -0.433157
C36   C     C_3   0.898582 0.013444 0.616648 -0.350343
C37   C     C_3   0.924244 0.878824 0.402520 -0.397073
C38   C     C_3   0.878041 0.999839 0.498103 0.069659
Cu1   Cu    Cu3+1 0.529690 0.098270 0.475420 0.968147
Cu2   Cu    Cu3+1 0.470310 0.901730 0.524580 1.014303
H1    H     H_    0.931197 0.195583 0.541780 0.192809
H2    H     H_    0.054429 0.945292 0.642910 0.267028
H3    H     H_    0.351925 0.091555 0.895248 0.211927
H4    H     H_    0.284027 0.237512 0.089753 0.199371
H5    H     H_    0.563646 0.377391 0.806552 0.156813
H6    H     H_    0.557889 0.554718 0.834344 0.177139
H7    H     H_    0.946803 0.100713 0.389534 0.192634
H8    H     H_    0.322557 0.669505 0.281622 0.235119
H9    H     H_    0.751680 0.550370 0.295685 0.167878
H10   H     H_    0.793598 0.351685 0.266889 0.173870
H11   H     H_    0.320051 0.482864 0.647541 0.145545
H12   H     H_    0.207376 0.659184 0.743415 0.184376
H13   H     H_    0.633669 0.719390 0.389663 0.192748
H14   H     H_    0.157139 0.091873 0.383467 0.195660
H15   H     H_    0.862412 0.098556 0.686428 0.162804
H16   H     H_    0.077754 0.106266 0.684289 0.159763
H17   H     H_    0.862348 0.800286 0.414769 0.209300
H18   H     H_    0.913544 0.870437 0.316750 0.139384
H19   H     H_    0.123343 0.862342 0.318039 0.096163
N1    N     N_R   0.574690 0.246280 0.438200 -0.192207
N2    N     N_R   0.426100 0.754320 0.561190 -0.232870
O1    O     O_R   0.537340 0.972510 0.318130 -0.521849
O2    O     O_R   0.487200 0.806530 0.359650 -0.614165
O3    O     O_R   0.707380 0.082980 0.479220 -0.591329
O4    O     O_R   0.657240 0.917000 0.520740 -0.601396
O5    O     O_R   0.512800 0.193470 0.640350 -0.599853
O6    O     O_R   0.462660 0.027490 0.681870 -0.533235
O7    O     O_R   0.342760 0.083000 0.479260 -0.604043
O8    O     O_R   0.292620 0.917020 0.520780 -0.496219
Cl1   Cl    Cl    0.078749 0.742916 0.424950 -0.572416
H20   H     H_    0.843270 0.935645 0.634793 0.229316
Cl2   Cl    Cl    0.224552 0.441813 0.274247 -0.591647
Cl3   Cl    Cl    0.655995 0.965794 0.108011 -0.562450
Cl4   Cl    Cl    0.663796 0.782759 0.848452 -0.540715
H21   H     H_    0.736276 0.175319 0.315634 0.167568
H22   H     H_    0.420838 0.330395 0.558133 0.121931
Cl5   Cl    Cl    0.234492 0.878851 0.725630 -0.619135
H23   H     H_    0.143148 0.192827 0.534153 0.194820

loop_
_geom_bond_atom_site_label_1
_geom_bond_atom_site_label_2
_ccdc_geom_bond_type
C2    C35   S    
C3    H2    S    
Cu1   O7    S    
C1    O1    A    
C16   H8    S    
C32   H21   S    
C4    Cl1   S    
C7    C8    A    
C7    Cl3   S    
C29   H9    S    
Cu1   O3    S    
C11   C19   A    
C29   C30   A    
Cu2   O2    S    
C23   O5    A    
C28   C29   A    
C26   N2    A    
C17   H5    S    
C12   O3    A    
C6    C23   S    
C15   C16   A    
C34   C35   S    
C11   C16   A    
C23   O6    A    
C6    C17   A    
C20   H10   S    
C8    C9    A    
Cu2   O6    S    
C9    C10   A    
C21   N2    A    
C37   H18   S    
C36   H20   S    
C33   O8    A    
C24   H11   S    
C9    H6    S    
C13   C14   A    
C35   H14   S    
C34   H1    S    
C1    O2    A    
C6    C18   A    
C30   H13   S    
C1    C19   S    
Cu2   O8    S    
C27   C31   A    
C24   C25   A    
Cu1   Cu2   S    
C5    C18   A    
C20   C28   A    
C25   C26   A    
Cu2   N2    S    
C31   N1    A    
C2    C4    S    
C37   C38   S    
C15   Cl2   S    
C3    H16   S    
C8    Cl4   S    
C5    C14   A    
C2    C33   S    
C5    H4    S    
C26   C30   A    
C7    C19   A    
Cu2   O4    S    
Cu1   O5    S    
C22   C24   A    
C32   N1    A    
C22   H12   S    
C20   C32   A    
Cu1   O1    S    
C34   C38   S    
C10   C13   A    
C25   C27   A    
C12   O4    A    
C35   H23   S    
C13   C17   A    
C36   C38   S    
C2    C3    S    
C36   H15   S    
C18   H3    S    
C31   H22   S    
C3    C36   S    
Cu1   N1    S    
C4    H19   S    
C12   C38   S    
C10   C11   A    
C4    C37   S    
C21   Cl5   S    
C27   C28   A    
C14   C15   A    
C34   H7    S    
C21   C22   A    
C37   H17   S    
C33   O7    A    
