data_mof_unit_57558.cif
_audit_creation_date              2012-12-10T16:47:15-0500
_audit_creation_method            fapswitch 2.2
_symmetry_space_group_name_H-M    P1
_symmetry_Int_Tables_number       1
_space_group_crystal_system       triclinic
_cell_length_a                    11.883128
_cell_length_b                    12.358863
_cell_length_c                    7.941002
_cell_angle_alpha                 90.31519
_cell_angle_beta                  94.405859
_cell_angle_gamma                 90.044584
_cell_volume                      1162.76628172

loop_
_atom_site_label
_atom_site_type_symbol
_atom_type_description
_atom_site_fract_x
_atom_site_fract_y
_atom_site_fract_z
_atom_type_partial_charge
C1    C     C_R   0.355166 0.850879 0.455791 0.950043
C2    C     C_2   0.729291 0.771968 0.567697 -0.373934
C3    C     C_2   0.725827 0.231719 0.567316 -0.380670
C4    C     C_2   0.273878 0.768460 0.432213 -0.374439
C5    C     C_2   0.770040 0.727339 0.432394 -0.375115
C6    C     C_2   0.225914 0.268686 0.567429 -0.377171
C7    C     C_2   0.230558 0.727089 0.567732 -0.377790
C8    C     C_2   0.774195 0.268256 0.432688 -0.379583
C9    C     C_3   0.652666 0.027370 0.004254 -0.147524
C10   C     C_3   0.746798 0.971736 0.111755 -0.871663
C11   C     C_3   0.347599 0.027619 0.996806 -0.145889
C12   C     C_R   0.645191 0.148760 0.544258 0.949267
C13   C     C_3   0.252609 0.973898 0.887342 -0.875264
C14   C     C_3   0.151469 0.531835 0.004912 -0.137556
C15   C     C_3   0.247588 0.478912 0.112451 -0.879792
C16   C     C_3   0.848414 0.468470 0.994988 -0.139897
C17   C     C_3   0.752524 0.521627 0.887155 -0.877096
C18   C     C_R   0.645629 0.851772 0.544008 0.949752
C19   C     C_R   0.354082 0.147913 0.455944 0.949167
C20   C     C_R   0.854811 0.351235 0.455741 0.946413
C21   C     C_R   0.146211 0.647725 0.544388 0.947630
C22   C     C_R   0.144942 0.351088 0.543914 0.951711
C23   C     C_R   0.854170 0.648016 0.455979 0.953163
C24   C     C_2   0.270934 0.228139 0.432529 -0.380149
H1    H     H_    0.740394 0.747258 0.303710 0.175770
H2    H     H_    0.732492 0.883133 0.109797 0.256436
H3    H     H_    0.828681 0.987516 0.057621 0.213962
H4    H     H_    0.664723 0.999442 0.877516 0.234329
H5    H     H_    0.664854 0.116446 0.011997 0.160746
H6    H     H_    0.246432 0.005125 0.757000 0.292835
H7    H     H_    0.264678 0.885089 0.888428 0.253238
H8    H     H_    0.170873 0.991474 0.940908 0.214645
H9    H     H_    0.335287 0.998018 0.122179 0.234115
H10   H     H_    0.336446 0.116843 0.993063 0.163292
H11   H     H_    0.253879 0.508969 0.243872 0.293328
H12   H     H_    0.249215 0.242487 0.695982 0.180073
H13   H     H_    0.236810 0.389830 0.109339 0.251453
H14   H     H_    0.328926 0.498102 0.058995 0.215548
H15   H     H_    0.164661 0.502474 0.878904 0.232332
H16   H     H_    0.160196 0.621299 0.011454 0.165193
H17   H     H_    0.763948 0.610677 0.888879 0.255373
H18   H     H_    0.745805 0.490815 0.756129 0.291615
H19   H     H_    0.671127 0.503384 0.941140 0.214609
H20   H     H_    0.839436 0.379024 0.988409 0.163466
H21   H     H_    0.835248 0.497777 0.121042 0.232631
H22   H     H_    0.257364 0.750464 0.696311 0.172722
H23   H     H_    0.754976 0.237437 0.305111 0.176380
H24   H     H_    0.246683 0.253170 0.304146 0.173502
H25   H     H_    0.758697 0.751761 0.696482 0.176113
H26   H     H_    0.745055 0.262524 0.694895 0.176770
H27   H     H_    0.248449 0.743445 0.303304 0.179936
H28   H     H_    0.754245 0.003203 0.242586 0.290716
N1    N     N_2   0.541470 0.000000 0.055820 -0.029427
N2    N     N_2   0.458530 0.000000 0.944180 -0.029423
N3    N     N_2   0.041470 0.500000 0.055820 -0.032367
N4    N     N_2   0.958530 0.500000 0.944180 -0.032175
O1    O     O_R   0.375700 0.885870 0.609240 -0.605880
O2    O     O_R   0.597720 0.114130 0.675960 -0.662728
O3    O     O_R   0.597720 0.885870 0.675960 -0.645555
O4    O     O_R   0.402280 0.114130 0.324040 -0.662587
O5    O     O_R   0.902280 0.385870 0.324040 -0.661575
O6    O     O_R   0.097720 0.614130 0.675960 -0.660383
O7    O     O_R   0.097720 0.385870 0.675960 -0.648182
O8    O     O_R   0.902280 0.614130 0.324040 -0.646642
O9    O     O_R   0.624300 0.114130 0.390760 -0.614182
O10   O     O_R   0.624300 0.885870 0.390760 -0.607152
O11   O     O_R   0.375700 0.114130 0.609240 -0.615139
O12   O     O_R   0.875700 0.385870 0.609240 -0.614428
O13   O     O_R   0.124300 0.614130 0.390760 -0.614038
O14   O     O_R   0.124300 0.385870 0.390760 -0.607192
O15   O     O_R   0.875700 0.614130 0.609240 -0.606843
O16   O     O_R   0.402280 0.885870 0.324040 -0.646699
Zn1   Zn    Zn3+2 0.482250 0.000000 0.690430 0.925112
Zn2   Zn    Zn3+2 0.517750 0.000000 0.309570 0.924570
Zn3   Zn    Zn3+2 0.982250 0.500000 0.690430 0.923968
Zn4   Zn    Zn3+2 0.017750 0.500000 0.309570 0.924201

loop_
_geom_bond_atom_site_label_1
_geom_bond_atom_site_label_2
_ccdc_geom_bond_type
C10   H3    S    
N3    N4    D    
C2    C18   S    
C13   H8    S    
N1    Zn2   S    
C10   H28   S    
C17   H19   S    
N1    N2    D    
O12   Zn3   S    
C8    C20   S    
C6    C22   S    
O13   Zn4   S    
O1    Zn1   S    
C20   O5    A    
C17   H18   S    
C15   H13   S    
C3    C12   S    
C14   H15   S    
C16   C17   S    
C19   O11   A    
O11   Zn1   S    
C9    C10   S    
C16   H20   S    
C9    H5    S    
C12   O2    A    
C10   H2    S    
C14   N3    S    
C22   O7    A    
N4    Zn3   S    
C4    C7    D    
C15   H11   S    
C3    H26   S    
C20   O12   A    
O5    Zn4   S    
C1    O16   A    
C4    H27   S    
C24   H24   S    
C7    H22   S    
C23   O15   A    
C13   H6    S    
C11   H9    S    
O16   Zn2   S    
C3    C8    D    
C7    C21   S    
O9    Zn2   S    
C21   O13   A    
C16   N4    S    
C15   H14   S    
C2    H25   S    
C1    O1    A    
N2    Zn1   S    
C5    C23   S    
C6    C24   D    
O8    Zn4   S    
C21   O6    A    
C11   N2    S    
C5    H1    S    
N3    Zn4   S    
C23   O8    A    
O14   Zn4   S    
O6    Zn3   S    
C2    C5    D    
C9    N1    S    
O3    Zn1   S    
C13   H7    S    
C11   H10   S    
C16   H21   S    
C19   O4    A    
C18   O10   A    
C12   O9    A    
C1    C4    S    
C19   C24   S    
C8    H23   S    
O15   Zn3   S    
C11   C13   S    
O7    Zn3   S    
O4    Zn2   S    
C6    H12   S    
C17   H17   S    
C14   H16   S    
C18   O3    A    
C9    H4    S    
C14   C15   S    
C22   O14   A    
O2    Zn1   S    
O10   Zn2   S    
