data_mof_unit_21859.cif
_audit_creation_date              2012-12-10T16:48:38-0500
_audit_creation_method            fapswitch 2.2
_symmetry_space_group_name_H-M    P1
_symmetry_Int_Tables_number       1
_space_group_crystal_system       triclinic
_cell_length_a                    7.738847
_cell_length_b                    8.674085
_cell_length_c                    10.778487
_cell_angle_alpha                 88.459813
_cell_angle_beta                  98.965565
_cell_angle_gamma                 93.447625
_cell_volume                      713.286089328

loop_
_atom_site_label
_atom_site_type_symbol
_atom_type_description
_atom_site_fract_x
_atom_site_fract_y
_atom_site_fract_z
_atom_type_partial_charge
C1    C     C_R   0.541053 0.794379 0.489525 0.899848
C2    C     C_2   0.421217 0.044789 0.487212 -0.033817
C3    C     C_3   0.683369 0.047334 0.284972 -0.750861
C4    C     C_3   0.210536 0.970551 0.629423 -0.726572
C5    C     C_R   0.453021 0.206211 0.496829 0.936666
C6    C     C_R   0.571675 0.488162 0.736013 0.941291
C7    C     C_R   0.426427 0.501361 0.264028 0.927154
C8    C     C_2   0.609368 0.464367 0.870195 -0.379408
C9    C     C_2   0.381498 0.485340 0.129929 -0.382164
C10   C     C_2   0.474203 0.442273 0.933001 -0.152341
C11   C     C_2   0.504127 0.439097 0.067213 -0.160145
C12   C     C_2   0.553474 0.956199 0.465381 -0.062783
H1    H     H_    0.633632 0.411030 0.114200 0.188378
H2    H     H_    0.655682 0.936238 0.234576 0.227653
H3    H     H_    0.182228 0.911068 0.436590 0.248060
H4    H     H_    0.070841 0.932030 0.627954 0.213546
H5    H     H_    0.234967 0.082579 0.678381 0.243853
H6    H     H_    0.293729 0.883787 0.682897 0.244259
H7    H     H_    0.338955 0.439465 0.886073 0.188195
H8    H     H_    0.252410 0.513532 0.082517 0.149263
H9    H     H_    0.744276 0.467507 0.917551 0.147790
H10   H     H_    0.986248 0.384608 0.408425 0.199024
H11   H     H_    0.013725 0.615337 0.591590 0.189193
H12   H     H_    0.820625 0.964166 0.451442 0.240635
H13   H     H_    0.804563 0.105299 0.258502 0.227388
H14   H     H_    0.573551 0.123934 0.255773 0.239287
N1    N     N_2   0.940600 0.458860 0.467170 -0.166882
N2    N     N_2   0.059400 0.541140 0.532830 -0.178394
N3    N     N_2   0.707355 0.019317 0.419367 -0.278772
N4    N     N_2   0.247615 0.987457 0.501870 -0.300318
O1    O     O_R   0.391630 0.738350 0.508060 -0.618359
O2    O     O_R   0.608370 0.261650 0.491940 -0.591506
O3    O     O_R   0.674540 0.711990 0.487010 -0.634128
O4    O     O_R   0.325460 0.288010 0.512990 -0.617056
O5    O     O_R   0.411370 0.508250 0.688780 -0.617807
O6    O     O_R   0.588630 0.491750 0.311220 -0.615583
O7    O     O_R   0.694270 0.481880 0.667740 -0.621186
O8    O     O_R   0.305730 0.518120 0.332260 -0.628968
Zn1   Zn    Zn3+2 0.311100 0.517600 0.514050 0.926138
Zn2   Zn    Zn3+2 0.688900 0.482400 0.485950 0.939427

loop_
_geom_bond_atom_site_label_1
_geom_bond_atom_site_label_2
_ccdc_geom_bond_type
C4    H4    S    
O5    Zn1   S    
C3    H2    S    
C12   N3    S    
C9    C11   D    
C7    O6    A    
C10   H7    S    
C9    H8    S    
C1    O1    A    
N1    Zn2   S    
C2    N4    S    
C5    O2    A    
C2    C12   D    
C5    O4    A    
C8    H9    S    
C6    O7    A    
C1    O3    A    
H11   N2    S    
C11   H1    S    
C3    N3    S    
C1    C12   S    
C4    H5    S    
C7    O8    A    
O1    Zn1   S    
O7    Zn2   S    
H10   N1    S    
O2    Zn2   S    
O8    Zn1   S    
C2    C5    S    
C10   C11   S    
O4    Zn1   S    
O3    Zn2   S    
C3    H13   S    
C6    O5    A    
H3    N4    S    
C8    C10   D    
N1    N2    D    
C7    C9    S    
H12   N3    S    
O6    Zn2   S    
C6    C8    S    
N2    Zn1   S    
C4    H6    S    
C3    H14   S    
C4    N4    S    
