data_mof_unit_5343.cif
_audit_creation_date              2012-12-11T14:37:53-0500
_audit_creation_method            fapswitch 2.2
_symmetry_space_group_name_H-M    P1
_symmetry_Int_Tables_number       1
_space_group_crystal_system       triclinic
_cell_length_a                    14.481718
_cell_length_b                    15.802768
_cell_length_c                    6.958876
_cell_angle_alpha                 89.809311
_cell_angle_beta                  80.501913
_cell_angle_gamma                 89.973054
_cell_volume                      1570.7065729

loop_
_atom_site_label
_atom_site_type_symbol
_atom_type_description
_atom_site_fract_x
_atom_site_fract_y
_atom_site_fract_z
_atom_type_partial_charge
O1    O     O_R   0.337080 0.165770 0.524980 -0.532519
O2    O     O_R   0.662920 0.834230 0.475020 -0.524317
O3    O     O_R   0.662920 0.665770 0.475020 -0.523942
O4    O     O_R   0.337080 0.334230 0.524980 -0.510022
O5    O     O_R   0.348340 0.341430 0.191390 -0.534528
O6    O     O_R   0.651660 0.658570 0.808610 -0.555547
O7    O     O_R   0.651660 0.841430 0.808610 -0.541428
O8    O     O_R   0.348340 0.158570 0.191390 -0.540174
O9    O     O_R   0.165780 0.339950 0.082750 -0.541538
O10   O     O_R   0.834220 0.660050 0.917250 -0.541234
O11   O     O_R   0.834220 0.839950 0.917250 -0.545873
O12   O     O_R   0.165780 0.160050 0.082750 -0.544049
C1    C     C_R   0.370099 0.364730 0.355413 0.585641
C2    C     C_R   0.629886 0.635311 0.644486 0.694824
C3    C     C_R   0.629811 0.864649 0.644195 0.649587
C4    C     C_R   0.370128 0.135288 0.355957 0.602064
H1    H     H_    0.470542 0.327255 0.837500 0.168312
H2    H     H_    0.385504 0.591076 0.567352 0.135130
H3    H     H_    0.417686 0.919983 0.924271 0.133456
H4    H     H_    0.499377 0.968508 0.523755 0.126990
O13   O     O_3   0.191540 0.250000 0.407620 -0.370504
O14   O     O_3   0.808460 0.750000 0.592380 -0.375390
V1    V     V_3+5 0.262540 0.250000 0.108780 1.440097
V2    V     V_3+5 0.737460 0.750000 0.891220 1.436389
O15   O     O_R   0.154530 0.164290 0.756910 -0.541604
O16   O     O_R   0.845470 0.835710 0.243090 -0.541350
O17   O     O_R   0.845470 0.664290 0.243090 -0.541871
O18   O     O_R   0.154530 0.335710 0.756910 -0.534768
C5    C     C_R   0.131702 0.133726 0.932804 0.666461
C6    C     C_R   0.867633 0.866819 0.067521 0.661530
C7    C     C_R   0.868833 0.634089 0.067370 0.666817
C8    C     C_R   0.133028 0.367303 0.931741 0.698748
V3    V     V_3+5 0.240320 0.250000 0.616280 1.427176
V4    V     V_3+5 0.759680 0.750000 0.383720 1.425630
O19   O     O_3   0.311330 0.250000 0.867310 -0.362493
O20   O     O_3   0.688670 0.750000 0.132690 -0.357344
C9    C     C_3   0.046253 0.492537 0.152884 -0.116102
C10   C     C_3   0.958238 0.510584 0.845500 -0.104844
C11   C     C_3   0.964607 0.984911 0.836883 -0.109331
C12   C     C_3   0.033845 0.016362 0.163721 -0.108573
C13   C     C_3   0.046695 0.573899 0.027935 -0.156897
C14   C     C_3   0.957511 0.429307 0.970879 -0.152417
C15   C     C_3   0.956930 0.070445 0.946408 -0.150372
C16   C     C_3   0.041636 0.930845 0.054088 -0.147548
H5    H     H_    0.083273 0.633656 0.052322 0.097826
H6    H     H_    0.920768 0.369581 0.946894 0.106752
H7    H     H_    0.922986 0.128421 0.900844 0.103238
H8    H     H_    0.075880 0.873017 0.099815 0.105382
C17   C     C_3   0.940519 0.564028 0.033321 0.000734
C18   C     C_3   0.063558 0.438964 0.965298 -0.020114
C19   C     C_3   0.060721 0.063215 0.967464 -0.002474
C20   C     C_3   0.937826 0.937983 0.033134 -0.001544
C21   C     C_3   0.939414 0.483531 0.158670 -0.132235
C22   C     C_3   0.065178 0.519611 0.840122 -0.135625
C23   C     C_3   0.069191 0.978531 0.857742 -0.144994
C24   C     C_3   0.929221 0.022792 0.142741 -0.143839
C25   C     C_2   0.443719 0.547881 0.559300 -0.355513
C26   C     C_2   0.529444 0.349450 0.733174 -0.231275
C27   C     C_2   0.529593 0.996595 0.385228 -0.347505
C28   C     C_2   0.404877 0.880774 0.054339 -0.258506
H9    H     H_    0.889408 0.469798 0.293785 0.101749
H10   H     H_    0.117294 0.534057 0.708365 0.098469
H11   H     H_    0.126681 0.962166 0.737617 0.100375
H12   H     H_    0.871401 0.040321 0.261306 0.093488
C29   C     C_2   0.446426 0.481265 0.679054 0.354768
C30   C     C_2   0.528452 0.423122 0.638201 0.333819
C31   C     C_2   0.510018 0.968580 0.213833 0.375756
C32   C     C_2   0.442337 0.897621 0.213907 0.373387
O21   O     O_3   0.609517 0.448329 0.517340 -0.579484
C33   C     C_3   0.603928 0.425450 0.323709 0.077954
H13   H     H_    0.545151 0.459091 0.272335 0.106264
H14   H     H_    0.593884 0.355849 0.311200 0.105254
C34   C     C_3   0.695206 0.450758 0.193494 -0.307584
H15   H     H_    0.713075 0.517036 0.225665 0.206357
H16   H     H_    0.751964 0.408373 0.225273 0.182275
C35   C     C_3   0.688122 0.444302 0.978001 -0.787336
H17   H     H_    0.674811 0.377862 0.939833 0.236934
H18   H     H_    0.754813 0.465350 0.888649 0.226444
H19   H     H_    0.630826 0.485422 0.943442 0.232860
O22   O     O_3   0.371991 0.459007 0.825457 -0.570342
C36   C     C_3   0.328814 0.528928 0.932056 0.087819
H20   H     H_    0.271177 0.503225 0.041916 0.139608
H21   H     H_    0.294071 0.572161 0.840214 0.100491
C37   C     C_3   0.396573 0.576257 0.042199 -0.338074
H22   H     H_    0.426337 0.531019 0.137730 0.187395
H23   H     H_    0.455060 0.604295 0.938439 0.185962
C38   C     C_3   0.347100 0.647318 0.166067 -0.818116
H24   H     H_    0.318400 0.694287 0.072819 0.239578
H25   H     H_    0.398309 0.679811 0.242683 0.268256
H26   H     H_    0.289371 0.621552 0.275649 0.210533
O23   O     O_3   0.427388 0.841702 0.369983 -0.577319
C39   C     C_3   0.336584 0.854026 0.476709 0.045240
H27   H     H_    0.281996 0.850612 0.381103 0.126779
H28   H     H_    0.332514 0.916790 0.550071 0.102220
C40   C     C_3   0.316412 0.784272 0.630873 -0.273538
H29   H     H_    0.311534 0.722720 0.557496 0.184909
H30   H     H_    0.374568 0.780497 0.716685 0.202745
C41   C     C_3   0.224712 0.799657 0.768620 -0.877333
H31   H     H_    0.230619 0.857373 0.856242 0.236022
H32   H     H_    0.209086 0.745003 0.869231 0.222895
H33   H     H_    0.166047 0.806882 0.685214 0.232057
O24   O     O_3   0.544199 0.008546 0.036495 -0.593050
C42   C     C_3   0.633379 0.046491 0.030677 0.126527
H34   H     H_    0.671597 0.040646 0.879149 0.118153
H35   H     H_    0.677589 0.013350 0.124413 0.109971
C43   C     C_3   0.623144 0.140885 0.080415 -0.303378
H36   H     H_    0.582741 0.172611 0.978048 0.197271
H37   H     H_    0.584340 0.149218 0.230563 0.187169
C44   C     C_3   0.718572 0.183402 0.066219 -0.865730
H38   H     H_    0.760742 0.151807 0.165148 0.230584
H39   H     H_    0.709175 0.250636 0.110122 0.234011
H40   H     H_    0.756702 0.180688 0.914203 0.229497
H41   H     H_    0.082893 0.484997 0.280063 0.105065
H42   H     H_    0.921947 0.518123 0.717829 0.108266
H43   H     H_    0.935923 0.971776 0.701544 0.106789
H44   H     H_    0.062513 0.029458 0.299102 0.106740

loop_
_geom_bond_atom_site_label_1
_geom_bond_atom_site_label_2
_ccdc_geom_bond_type
C38   H24   S    
O12   C5    A    
C34   H15   S    
C40   H29   S    
C37   C38   S    
C32   O23   S    
C36   H20   S    
C40   C41   S    
O1    V3    S    
C10   C17   S    
O12   V1    S    
V2    O20   S    
C37   H23   S    
C10   C14   S    
C44   H39   S    
C14   C21   S    
C10   H42   S    
C30   O21   S    
C9    H41   S    
C43   H36   S    
O7    V2    S    
C41   H31   S    
O11   V2    S    
O8    V1    S    
C14   H6    S    
O4    C1    A    
O9    C8    A    
C27   C31   D    
C21   H9    S    
O10   C7    A    
C26   C30   D    
C11   C23   S    
O11   C6    A    
C12   C24   S    
C10   C22   S    
C24   H12   S    
C33   H13   S    
O5    C1    A    
H1    C26   S    
C9    C21   S    
O2    V4    S    
O7    C3    A    
C11   C20   S    
O8    C4    A    
C29   O22   S    
C34   H16   S    
O21   C33   S    
C7    C17   S    
C13   C17   S    
C36   H21   S    
O16   V4    S    
O17   V4    S    
O15   C5    A    
O14   V4    S    
O17   C7    A    
C31   C32   S    
O18   C8    A    
C35   H17   S    
C44   H40   S    
C25   C29   D    
O23   C39   S    
O9    V1    S    
C11   C15   S    
C22   H10   S    
O3    V4    S    
O10   V2    S    
C39   C40   S    
C23   H11   S    
O6    C2    A    
H2    C25   S    
O5    V1    S    
O6    V2    S    
C33   C34   S    
C39   H28   S    
C42   H35   S    
O1    C4    A    
C18   C22   S    
C37   H22   S    
H4    C27   S    
O2    C3    A    
C8    C18   S    
O3    C2    A    
C14   C18   S    
O18   V3    S    
O16   C6    A    
C11   H43   S    
O13   V1    S    
C34   C35   S    
O14   V2    S    
C12   C19   S    
C36   C37   S    
C5    C19   S    
C6    C20   S    
O4    V3    S    
C35   H18   S    
O22   C36   S    
C16   C20   S    
C40   H30   S    
H3    C28   S    
C41   H33   S    
V1    O19   S    
C38   H25   S    
C44   H38   S    
C9    C18   S    
C16   C23   S    
C15   C19   S    
C12   H44   S    
C43   H37   S    
C17   C21   S    
C39   H27   S    
V3    O19   S    
V4    O20   S    
C42   C43   S    
C19   C23   S    
C9    C13   S    
O24   C42   S    
C41   H32   S    
C13   C22   S    
C16   H8    S    
C15   C24   S    
C12   C16   S    
C35   H19   S    
O13   V3    S    
C28   C32   D    
C29   C30   S    
C38   H26   S    
C42   H34   S    
C13   H5    S    
C33   H14   S    
C15   H7    S    
C20   C24   S    
C31   O24   S    
O15   V3    S    
C43   C44   S    
