data_mof_unit_38925.cif
_audit_creation_date              2012-12-10T17:50:41-0500
_audit_creation_method            fapswitch 2.2
_symmetry_space_group_name_H-M    P1
_symmetry_Int_Tables_number       1
_space_group_crystal_system       triclinic
_cell_length_a                    15.707698
_cell_length_b                    10.65347
_cell_length_c                    9.933635
_cell_angle_alpha                 89.817066
_cell_angle_beta                  90.052737
_cell_angle_gamma                 91.178934
_cell_volume                      1661.94831327

loop_
_atom_site_label
_atom_site_type_symbol
_atom_type_description
_atom_site_fract_x
_atom_site_fract_y
_atom_site_fract_z
_atom_type_partial_charge
C1    C     C_R   0.504621 0.260799 0.500333 0.946591
C2    C     C_R   0.714647 0.061907 0.687116 -0.196655
C3    C     C_R   0.712504 0.931654 0.685644 -0.253659
C4    C     C_R   0.338025 0.499638 0.499939 0.879438
C5    C     C_R   0.645135 0.867775 0.623739 -0.193024
C6    C     C_R   0.577457 0.933978 0.563957 0.034023
C7    C     C_R   0.579166 0.066017 0.565078 -0.034131
C8    C     C_R   0.511287 0.128376 0.500415 -0.084921
C9    C     C_R   0.446663 0.063575 0.432239 -0.232616
C10   C     C_R   0.445514 0.935366 0.431483 -0.192854
C11   C     C_R   0.508899 0.871637 0.499127 -0.054354
C12   C     C_3   0.082593 0.499711 0.500331 0.208685
C13   C     C_R   0.389244 0.335473 0.140118 -0.144521
C14   C     C_R   0.335016 0.253973 0.070258 -0.199347
C15   C     C_R   0.335117 0.253805 0.930955 -0.192122
C16   C     C_R   0.501726 0.739341 0.499749 0.846816
C17   C     C_R   0.389448 0.335136 0.860648 -0.141024
C18   C     C_R   0.445581 0.418756 0.927953 0.169428
C19   C     C_R   0.445537 0.418869 0.072410 0.168636
C20   C     C_R   0.552075 0.577681 0.071219 -0.108978
C21   C     C_R   0.552043 0.577671 0.928246 -0.096014
C22   C     C_R   0.661987 0.501989 0.500012 0.967179
C23   C     C_3   0.973549 0.590889 0.583729 -0.168354
C24   C     C_3   0.969823 0.388172 0.542718 -0.153203
C25   C     C_3   0.026400 0.410088 0.417096 -0.168558
C26   C     C_1   0.248970 0.499272 0.499914 -0.183580
C27   C     C_1   0.751035 0.502303 0.500159 -0.138058
C28   C     C_3   0.027826 0.477783 0.625964 -0.165103
C29   C     C_3   0.917367 0.501279 0.500479 0.206646
C30   C     C_3   0.030112 0.612798 0.458110 -0.162880
C31   C     C_3   0.972136 0.523191 0.374868 -0.163843
C32   C     C_1   0.173568 0.499235 0.500085 -0.086462
C33   C     C_1   0.826418 0.502047 0.500365 -0.078789
C34   C     C_R   0.649522 0.129244 0.626794 0.603674
F1    F     F_    0.658419 0.255448 0.626394 -0.686660
H1    H     H_    0.050209 0.336205 0.349025 0.131317
H2    H     H_    0.594583 0.641276 0.874483 0.143039
H3    H     H_    0.942916 0.296441 0.577300 0.137175
H4    H     H_    0.947178 0.541786 0.272283 0.134083
H5    H     H_    0.056945 0.704564 0.423529 0.131416
H6    H     H_    0.949711 0.664785 0.651763 0.129693
H7    H     H_    0.052801 0.459177 0.728538 0.134447
H8    H     H_    0.395740 0.112663 0.381972 0.134972
H9    H     H_    0.767901 0.111285 0.733597 0.159965
H10   H     H_    0.763812 0.879911 0.731005 0.160612
H11   H     H_    0.647643 0.766535 0.621498 0.149241
H12   H     H_    0.393914 0.885440 0.380756 0.148204
H13   H     H_    0.594657 0.641264 0.124582 0.147444
H14   H     H_    0.384950 0.330389 0.246798 0.195457
H15   H     H_    0.292517 0.190724 0.124753 0.142275
H16   H     H_    0.292685 0.190427 0.876818 0.146616
H17   H     H_    0.385405 0.329743 0.753950 0.195340
N1    N     N_R   0.499210 0.498800 0.142780 -0.122314
N2    N     N_R   0.499180 0.498720 0.857170 -0.117637
O1    O     O_R   0.500000 0.316780 0.614690 -0.598535
O2    O     O_R   0.499990 0.316750 0.385360 -0.643014
O3    O     O_R   0.376780 0.500000 0.614650 -0.635231
O4    O     O_R   0.376770 0.499980 0.385310 -0.635167
O5    O     O_R   0.500010 0.683250 0.614640 -0.624345
O6    O     O_R   0.500000 0.683220 0.385310 -0.617880
O7    O     O_R   0.623230 0.500020 0.614690 -0.570297
O8    O     O_R   0.623220 0.500000 0.385350 -0.623772
Zn1   Zn    Zn3+2 0.500010 0.500020 0.653130 0.970919
Zn2   Zn    Zn3+2 0.499990 0.499980 0.346870 0.944573

loop_
_geom_bond_atom_site_label_1
_geom_bond_atom_site_label_2
_ccdc_geom_bond_type
C4    O3    A    
C25   C31   S    
C4    C26   S    
O2    Zn2   S    
C26   C32   T    
C6    C7    A    
C15   H16   S    
C22   O8    A    
C1    C8    S    
C5    H11   S    
O5    Zn1   S    
C23   H6    S    
C12   C25   S    
O6    Zn2   S    
C10   C11   A    
C2    C34   A    
C17   C18   A    
C1    O1    A    
C30   H5    S    
C7    C8    A    
C29   C31   S    
C20   H13   S    
C13   C14   A    
C27   C33   T    
C22   O7    A    
C24   C29   S    
C30   C31   S    
C19   N1    A    
C14   H15   S    
C12   C28   S    
C13   H14   S    
C5    C6    A    
C23   C29   S    
C17   H17   S    
C28   H7    S    
N1    Zn2   S    
C1    O2    A    
C31   H4    S    
O3    Zn1   S    
C2    C3    A    
C22   C27   S    
O4    Zn2   S    
C21   N2    A    
C7    C34   A    
C9    H8    S    
C11   C16   S    
N2    Zn1   S    
C18   N2    A    
C25   H1    S    
C24   H3    S    
C23   C30   S    
C29   C33   S    
C6    C11   A    
C21   H2    S    
C24   C25   S    
C8    C9    A    
O7    Zn1   S    
C34   F1    S    
C9    C10   A    
C4    O4    A    
C10   H12   S    
C15   C17   A    
C13   C19   A    
C14   C15   A    
C18   C19   A    
O8    Zn2   S    
C12   C30   S    
C20   C21   A    
C23   C28   S    
C16   O6    A    
C3    H10   S    
C12   C32   S    
C24   C28   S    
C2    H9    S    
C20   N1    A    
C3    C5    A    
C16   O5    A    
O1    Zn1   S    
