data_mof_unit_21988.cif
_audit_creation_date              2012-12-10T20:25:38-0500
_audit_creation_method            fapswitch 2.2
_symmetry_space_group_name_H-M    P1
_symmetry_Int_Tables_number       1
_space_group_crystal_system       triclinic
_cell_length_a                    8.596509
_cell_length_b                    10.656244
_cell_length_c                    9.885032
_cell_angle_alpha                 89.958371
_cell_angle_beta                  98.10394
_cell_angle_gamma                 90.105089
_cell_volume                      896.48886585

loop_
_atom_site_label
_atom_site_type_symbol
_atom_type_description
_atom_site_fract_x
_atom_site_fract_y
_atom_site_fract_z
_atom_type_partial_charge
C1    C     C_R   0.489481 0.260337 0.498906 0.889661
C2    C     C_R   0.406921 0.933242 0.379171 -0.203835
C3    C     C_R   0.472575 0.871484 0.498913 -0.281787
C4    C     C_R   0.500265 0.936553 0.621580 0.201217
C5    C     C_3   0.638989 0.932927 0.731235 0.239190
C6    C     C_3   0.633578 0.075425 0.730714 -0.490455
C7    C     C_R   0.398724 0.424429 0.059237 0.262160
C8    C     C_R   0.609624 0.565367 0.085252 -0.126502
C9    C     C_R   0.609829 0.565151 0.941443 -0.077277
C10   C     C_R   0.397767 0.425383 0.916588 0.220974
C11   C     C_3   0.223089 0.434460 0.892483 -0.515076
C12   C     C_R   0.201344 0.499895 0.464335 0.949666
C13   C     C_3   0.224323 0.429603 0.045620 -0.507986
C14   C     C_R   0.496532 0.740026 0.499649 0.903080
C15   C     C_R   0.798389 0.500012 0.535268 0.965271
C16   C     C_2   0.036365 0.499680 0.444412 -0.381710
C17   C     C_2   0.962828 0.500046 0.553634 -0.386174
C18   C     C_R   0.495283 0.064176 0.620989 0.024782
C19   C     C_R   0.458729 0.129033 0.498343 -0.246363
C20   C     C_R   0.394441 0.063174 0.378787 0.432773
H1    H     H_    0.975804 0.499274 0.340023 0.177339
H2    H     H_    0.696570 0.619873 0.897886 0.157658
H3    H     H_    0.183624 0.527200 0.849438 0.214913
H4    H     H_    0.167147 0.351063 0.838168 0.209253
H5    H     H_    0.180463 0.517326 0.087854 0.217310
H6    H     H_    0.173239 0.341574 0.080799 0.215363
H7    H     H_    0.022766 0.500498 0.657167 0.173012
H8    H     H_    0.368602 0.881581 0.285972 0.198645
H9    H     H_    0.746021 0.891026 0.697889 0.081761
H10   H     H_    0.600850 0.116963 0.825958 0.234859
H11   H     H_    0.737274 0.119212 0.693631 0.163830
H12   H     H_    0.696006 0.620516 0.149884 0.148659
N1    N     N_R   0.498950 0.499140 0.142680 -0.115852
N2    N     N_R   0.498950 0.499180 0.857030 -0.113848
O1    O     O_R   0.500020 0.316790 0.614690 -0.611224
O2    O     O_R   0.500000 0.316760 0.385350 -0.602429
O3    O     O_R   0.271760 0.500010 0.587850 -0.613905
O4    O     O_R   0.271740 0.499970 0.358500 -0.640447
O5    O     O_R   0.500000 0.683240 0.614650 -0.585803
O6    O     O_R   0.499980 0.683210 0.385310 -0.622019
O7    O     O_R   0.728260 0.500030 0.641500 -0.633411
O8    O     O_R   0.728240 0.499990 0.412150 -0.616120
Zn1   Zn    Zn3+2 0.500010 0.500020 0.653130 0.961565
Zn2   Zn    Zn3+2 0.499990 0.499980 0.346870 0.949501
O9    O     O_3   0.326132 0.120991 0.260404 -0.754301
H13   H     H_    0.276397 0.199637 0.285933 0.331817
O10   O     O_3   0.598283 0.881510 0.851920 -0.726867
H14   H     H_    0.695707 0.883520 0.918921 0.329135

loop_
_geom_bond_atom_site_label_1
_geom_bond_atom_site_label_2
_ccdc_geom_bond_type
O3    Zn1   S    
C7    C10   A    
O5    Zn1   S    
O4    Zn2   S    
C16   H1    S    
C11   C13   S    
C15   O8    A    
C19   C20   A    
O6    Zn2   S    
C4    C18   A    
C2    C3    A    
C8    C9    A    
C10   N2    A    
O9    H13   S    
O7    Zn1   S    
C1    O1    A    
C5    C6    S    
C3    C14   S    
O8    Zn2   S    
C11   H3    S    
C6    H10   S    
C6    H11   S    
C5    H9    S    
C8    N1    A    
C12   O4    A    
C9    N2    A    
C6    C18   S    
C13   H6    S    
O2    Zn2   S    
C1    C19   S    
C10   C11   S    
C7    N1    A    
C14   O6    A    
C3    C4    A    
C5    O10   S    
C16   C17   D    
C12   C16   S    
C11   H4    S    
C7    C13   S    
O1    Zn1   S    
C15   O7    A    
C9    H2    S    
C20   O9    S    
C12   O3    A    
C15   C17   S    
C8    H12   S    
C18   C19   A    
C2    H8    S    
C14   O5    A    
N1    Zn2   S    
C2    C20   A    
N2    Zn1   S    
O10   H14   S    
C1    O2    A    
C4    C5    S    
C13   H5    S    
C17   H7    S    
