data_mof_unit_67958.cif
_audit_creation_date              2012-12-10T20:36:37-0500
_audit_creation_method            fapswitch 2.2
_symmetry_space_group_name_H-M    P1
_symmetry_Int_Tables_number       1
_space_group_crystal_system       triclinic
_cell_length_a                    10.558971
_cell_length_b                    10.716688
_cell_length_c                    9.921775
_cell_angle_alpha                 91.170012
_cell_angle_beta                  91.333833
_cell_angle_gamma                 88.280866
_cell_volume                      1121.69234194

loop_
_atom_site_label
_atom_site_type_symbol
_atom_type_description
_atom_site_fract_x
_atom_site_fract_y
_atom_site_fract_z
_atom_type_partial_charge
C1    C     C_R   0.518069 0.261227 0.499282 0.889110
C2    C     C_3   0.955481 0.527069 0.376187 -0.193092
C3    C     C_3   0.041292 0.410331 0.401180 -0.123436
C4    C     C_3   0.123555 0.490204 0.495319 -0.036611
C5    C     C_R   0.575411 0.063043 0.614087 -0.076960
C6    C     C_R   0.553852 0.129873 0.496312 -0.285664
C7    C     C_R   0.553399 0.061354 0.373636 0.540173
C8    C     C_R   0.530113 0.933503 0.375603 -0.294197
C9    C     C_R   0.508132 0.875604 0.499246 -0.179075
C10   C     C_R   0.528126 0.946541 0.617095 0.015934
C11   C     C_3   0.472713 0.970132 0.755346 0.263544
C12   C     C_R   0.258009 0.494576 0.498398 0.885162
C13   C     C_3   0.552352 0.086746 0.760839 0.260821
C14   C     C_R   0.460900 0.397937 0.068466 0.176043
C15   C     C_R   0.537687 0.599834 0.075412 -0.247189
C16   C     C_R   0.543411 0.598122 0.932345 0.523211
C17   C     C_R   0.458411 0.399089 0.925619 0.006525
C18   C     C_3   0.326726 0.351122 0.917593 -0.571871
C19   C     C_3   0.330303 0.347542 0.070495 0.259840
C20   C     C_R   0.496681 0.741382 0.500767 0.883044
C21   C     C_R   0.743029 0.499451 0.500881 0.855874
C22   C     C_3   0.047765 0.455691 0.618474 -0.229581
C23   C     C_3   0.961637 0.377125 0.524023 -0.268217
C24   C     C_3   0.878999 0.494939 0.500336 -0.030583
C25   C     C_3   0.965197 0.572426 0.591419 0.584321
C26   C     C_3   0.041233 0.607223 0.468749 -0.300542
H1    H     H_    0.923946 0.284009 0.544184 0.142312
H2    H     H_    0.498339 0.903561 0.835010 0.185663
H3    H     H_    0.499847 0.173194 0.790030 0.152995
H4    H     H_    0.559791 0.683424 0.132149 0.181552
H5    H     H_    0.257086 0.421340 0.878610 0.184025
H6    H     H_    0.319638 0.258185 0.867335 0.238991
H7    H     H_    0.259944 0.412177 0.119141 0.138737
H8    H     H_    0.088888 0.424887 0.716222 0.141438
H9    H     H_    0.077454 0.698913 0.442079 0.139364
H10   H     H_    0.916027 0.552553 0.276012 0.165387
H11   H     H_    0.081830 0.348245 0.321515 0.164011
H12   H     H_    0.526235 0.882017 0.280620 0.175587
N1    N     N_R   0.499140 0.499140 0.142800 -0.155107
N2    N     N_R   0.499140 0.499180 0.857150 -0.136313
O1    O     O_R   0.500020 0.316790 0.614690 -0.647796
O2    O     O_R   0.500000 0.316760 0.385350 -0.533969
O3    O     O_R   0.313960 0.499990 0.614650 -0.634262
O4    O     O_R   0.313940 0.499950 0.385310 -0.620459
O5    O     O_R   0.500000 0.683240 0.614650 -0.571325
O6    O     O_R   0.499980 0.683210 0.385310 -0.630131
O7    O     O_R   0.686060 0.500050 0.614690 -0.609442
O8    O     O_R   0.686040 0.500010 0.385350 -0.637744
Zn1   Zn    Zn3+2 0.500010 0.500020 0.653130 0.958194
Zn2   Zn    Zn3+2 0.499990 0.499980 0.346870 0.961724
O9    O     O_3   0.664241 0.065190 0.839094 -0.690835
C27   C     C_3   0.749288 0.163644 0.826454 0.089074
H13   H     H_    0.719616 0.243327 0.893269 0.141138
H14   H     H_    0.753938 0.197222 0.721153 0.145803
C28   C     C_3   0.881762 0.115286 0.869160 -0.360894
H15   H     H_    0.879310 0.079674 0.972841 0.224728
H16   H     H_    0.910948 0.036457 0.801135 0.212373
C29   C     C_3   0.980671 0.215508 0.865282 -0.967199
H17   H     H_    0.001781 0.234367 0.759287 0.263423
H18   H     H_    0.069718 0.181442 0.915825 0.292866
H19   H     H_    0.947159 0.302737 0.917294 0.260246
O10   O     O_3   0.578793 0.703013 0.868116 -0.665712
C30   C     C_3   0.711006 0.716225 0.880066 0.150376
H20   H     H_    0.737986 0.760171 0.785210 0.204333
H21   H     H_    0.765183 0.625188 0.885637 0.169534
C31   C     C_3   0.747074 0.806896 0.995838 -0.401059
H22   H     H_    0.805662 0.880710 0.955518 0.220926
H23   H     H_    0.660692 0.853372 0.037354 0.239682
C32   C     C_3   0.824758 0.743822 0.108522 -0.987132
H24   H     H_    0.769153 0.673661 0.159257 0.275020
H25   H     H_    0.855038 0.814429 0.185009 0.261582
H26   H     H_    0.910655 0.696674 0.067796 0.275153
O11   O     O_3   0.328228 0.226037 0.121606 -0.713320
H27   H     H_    0.390856 0.172292 0.072480 0.374317
O12   O     O_3   0.919494 0.653939 0.693220 -0.694238
C33   C     C_3   0.016995 0.728953 0.747653 0.042057
H28   H     H_    0.970565 0.812571 0.794709 0.163586
H29   H     H_    0.078081 0.764097 0.668491 0.117035
C34   C     C_3   0.097932 0.659951 0.854969 -0.399495
H30   H     H_    0.038744 0.594244 0.909217 0.226650
H31   H     H_    0.174378 0.605860 0.804034 0.225859
C35   C     C_3   0.161066 0.748450 0.956990 -0.925158
H32   H     H_    0.235547 0.801237 0.908199 0.279236
H33   H     H_    0.206959 0.693242 0.039184 0.260817
H34   H     H_    0.090575 0.815056 0.001922 0.269932
O13   O     O_3   0.570690 0.120036 0.253070 -0.617684
C36   C     C_3   0.695891 0.095139 0.210222 0.063951
H35   H     H_    0.702158 0.131740 0.107233 0.197228
H36   H     H_    0.717362 0.993319 0.203813 0.138278
C37   C     C_3   0.795741 0.158964 0.301137 -0.397116
H37   H     H_    0.774184 0.260942 0.308072 0.245457
H38   H     H_    0.794594 0.120409 0.404114 0.206796
C38   C     C_3   0.928766 0.136290 0.247828 -0.955752
H39   H     H_    0.943784 0.037564 0.214216 0.264742
H40   H     H_    0.998811 0.155589 0.329720 0.273135
H41   H     H_    0.945151 0.199425 0.163168 0.279853
O14   O     O_3   0.344179 0.013808 0.760787 -0.681015
C39   C     C_3   0.260035 0.947791 0.675730 0.084987
H42   H     H_    0.171565 0.939349 0.732096 0.156271
H43   H     H_    0.294991 0.851307 0.650681 0.137960
C40   C     C_3   0.225907 0.024607 0.550373 -0.321902
H44   H     H_    0.159547 0.103034 0.578082 0.211313
H45   H     H_    0.311327 0.066411 0.510518 0.242390
C41   C     C_3   0.165713 0.945139 0.438666 -0.979649
H46   H     H_    0.225433 0.860155 0.417982 0.261400
H47   H     H_    0.158550 0.998962 0.344426 0.290678
H48   H     H_    0.069294 0.918812 0.467597 0.257956

loop_
_geom_bond_atom_site_label_1
_geom_bond_atom_site_label_2
_ccdc_geom_bond_type
C31   H23   S    
C28   H15   S    
C30   H21   S    
C38   H39   S    
O11   H27   S    
C3    C23   S    
C33   C34   S    
C36   H35   S    
C41   H47   S    
O14   C39   S    
C7    C8    A    
O7    Zn1   S    
C40   H44   S    
C16   O10   S    
C37   C38   S    
C13   H3    S    
C33   H29   S    
C12   O3    A    
C5    C6    A    
C7    O13   S    
O4    Zn2   S    
N2    Zn1   S    
C18   C19   S    
C32   H25   S    
C14   N1    A    
C13   O9    S    
C8    C9    A    
C22   C25   S    
C23   C24   S    
C23   H1    S    
C4    C12   S    
C9    C10   A    
C5    C13   S    
C20   O5    A    
C36   C37   S    
C27   C28   S    
C21   O8    A    
C29   H19   S    
O8    Zn2   S    
C31   H22   S    
C30   C31   S    
C40   H45   S    
C14   C17   A    
C8    H12   S    
O1    Zn1   S    
C41   H46   S    
C27   H14   S    
C22   H8    S    
C1    C6    S    
C19   O11   S    
C24   C25   S    
C19   H7    S    
C34   H31   S    
O13   C36   S    
O3    Zn1   S    
C25   C26   S    
O9    C27   S    
C25   O12   S    
C17   N2    A    
C32   H26   S    
O12   C33   S    
O10   C30   S    
C4    C22   S    
C26   H9    S    
C9    C20   S    
C37   H38   S    
O5    Zn1   S    
C17   C18   S    
C2    C26   S    
C33   H28   S    
C15   N1    A    
O2    Zn2   S    
C1    O1    A    
C16   N2    A    
C39   H42   S    
C38   H41   S    
C39   H43   S    
C28   H16   S    
C2    C24   S    
C34   H30   S    
C28   C29   S    
C18   H6    S    
C3    C4    S    
C35   H34   S    
C27   H13   S    
C15   H4    S    
C2    H10   S    
C14   C19   S    
C34   C35   S    
C4    C26   S    
C6    C7    A    
C40   C41   S    
C39   C40   S    
O6    Zn2   S    
C35   H33   S    
C11   O14   S    
C36   H36   S    
C2    C3    S    
C29   H17   S    
C5    C10   A    
C12   O4    A    
C11   C13   S    
C37   H37   S    
C11   H2    S    
C32   H24   S    
C10   C11   S    
C30   H20   S    
C31   C32   S    
C1    O2    A    
N1    Zn2   S    
C3    H11   S    
C38   H40   S    
C35   H32   S    
C21   C24   S    
C22   C23   S    
C18   H5    S    
C29   H18   S    
C41   H48   S    
C20   O6    A    
C15   C16   A    
C21   O7    A    
