data_mof_unit_30692.cif
_audit_creation_date              2012-10-26T19:41:10-0400
_audit_creation_method            fapswitch 2.2
_symmetry_space_group_name_H-M    P1
_symmetry_Int_Tables_number       1
_space_group_crystal_system       triclinic
_cell_length_a                    11.680342
_cell_length_b                    11.028942
_cell_length_c                    9.95151
_cell_angle_alpha                 110.337102
_cell_angle_beta                  98.59408
_cell_angle_gamma                 92.811421
_cell_volume                      1181.49049198

loop_
_atom_site_label
_atom_site_type_symbol
_atom_type_description
_atom_site_fract_x
_atom_site_fract_y
_atom_site_fract_z
_atom_type_partial_charge
C1    C     C_R   0.495033 0.255195 0.440801 0.529745
C2    C     C_2   0.528442 0.884148 0.585054 -0.115246
C3    C     C_2   0.541354 0.061241 0.492533 0.223095
C4    C     C_2   0.496356 0.929519 0.477035 0.242805
C5    C     C_2   0.525815 0.483368 0.070226 0.474231
C6    C     C_2   0.493407 0.478061 0.912556 0.475272
C7    C     C_3   0.307928 0.850446 0.367260 -0.007554
C8    C     C_3   0.229600 0.770287 0.223750 -0.343396
C9    C     C_3   0.734703 0.135077 0.550983 -0.003309
C10   C     C_3   0.830175 0.220656 0.673779 -0.378058
C11   C     C_3   0.428780 0.259452 0.806294 -0.009738
C12   C     C_R   0.510104 0.745451 0.558037 0.526014
C13   C     C_3   0.331740 0.162057 0.696984 -0.354775
C14   C     C_3   0.707215 0.416727 0.075226 -0.023355
C15   C     C_3   0.836595 0.464261 0.122120 -0.367779
C16   C     C_3   0.712843 0.691256 0.926959 0.072791
C17   C     C_3   0.790762 0.791688 0.059079 -0.398993
C18   C     C_3   0.269381 0.337627 0.078042 0.061618
C19   C     C_3   0.144657 0.369905 0.086442 -0.382762
C20   C     C_R   0.284292 0.499240 0.500055 0.526326
C21   C     C_R   0.715649 0.499458 0.499958 0.530315
C22   C     C_1   0.162506 0.498110 0.500539 -0.033929
C23   C     C_1   0.837413 0.497798 0.500594 -0.045593
C24   C     C_1   0.059944 0.497311 0.501073 -0.058971
C25   C     C_1   0.940090 0.497084 0.501378 -0.070864
C26   C     C_2   0.485383 0.115973 0.404724 -0.109496
Cu1   Cu    Cu3+1 0.519790 0.521810 0.644910 1.016488
Cu2   Cu    Cu3+1 0.480210 0.478190 0.355090 1.018722
H1    H     H_    0.577107 0.947838 0.689999 0.096325
H2    H     H_    0.844100 0.180589 0.762363 0.142114
H3    H     H_    0.912784 0.224616 0.632076 0.098966
H4    H     H_    0.805142 0.320909 0.718395 0.164755
H5    H     H_    0.436042 0.243885 0.911041 0.084452
H6    H     H_    0.512961 0.239145 0.770998 0.186640
H7    H     H_    0.246190 0.180683 0.731056 0.141274
H8    H     H_    0.326140 0.171093 0.588879 0.150728
H9    H     H_    0.348618 0.061683 0.688120 0.078952
H10   H     H_    0.688728 0.378527 0.953879 0.090505
H11   H     H_    0.688608 0.335378 0.113415 0.135244
H12   H     H_    0.422558 0.058462 0.308524 0.102709
H13   H     H_    0.856630 0.524604 0.239458 0.179795
H14   H     H_    0.888054 0.379691 0.100903 0.093593
H15   H     H_    0.863016 0.523868 0.060065 0.122139
H16   H     H_    0.700035 0.732595 0.839815 0.169297
H17   H     H_    0.758424 0.602196 0.891873 0.132408
H18   H     H_    0.876561 0.811514 0.031153 0.077912
H19   H     H_    0.749786 0.883788 0.094317 0.152444
H20   H     H_    0.804465 0.755039 0.150422 0.178566
H21   H     H_    0.302342 0.300557 0.164844 0.170952
H22   H     H_    0.265191 0.255615 0.974790 0.105404
H23   H     H_    0.280834 0.950421 0.402996 0.091625
H24   H     H_    0.106607 0.390037 0.988152 0.146127
H25   H     H_    0.091078 0.286243 0.091771 0.078402
H26   H     H_    0.141772 0.456842 0.184022 0.166672
H27   H     H_    0.294214 0.805900 0.449095 0.130121
H28   H     H_    0.253098 0.669232 0.185776 0.220334
H29   H     H_    0.137220 0.768200 0.238491 0.073122
H30   H     H_    0.239649 0.813555 0.140134 0.154616
H31   H     H_    0.724691 0.177288 0.463638 0.130229
H32   H     H_    0.762074 0.035528 0.507291 0.132299
N1    N     N_2   0.450460 0.445430 0.137370 -0.077692
N2    N     N_2   0.549540 0.554570 0.862630 -0.057730
O1    O     O_R   0.510560 0.332330 0.577400 -0.450816
O2    O     O_3   0.630726 0.131120 0.606266 -0.601940
O3    O     O_3   0.404878 0.386645 0.816960 -0.528476
O4    O     O_3   0.641155 0.519648 0.137457 -0.529820
O5    O     O_3   0.605952 0.665276 0.965661 -0.469741
O6    O     O_3   0.338370 0.447082 0.078734 -0.483856
O7    O     O_R   0.489440 0.667670 0.422600 -0.409394
O8    O     O_R   0.477140 0.295500 0.332650 -0.553578
O9    O     O_R   0.522860 0.704500 0.667350 -0.516942
O10   O     O_R   0.353910 0.518430 0.622380 -0.444883
O11   O     O_R   0.646090 0.481570 0.377620 -0.458516
O12   O     O_R   0.320490 0.481600 0.377630 -0.513357
O13   O     O_R   0.679510 0.518400 0.622370 -0.546560
O14   O     O_3   0.425218 0.852050 0.346818 -0.529024

loop_
_geom_bond_atom_site_label_1
_geom_bond_atom_site_label_2
_ccdc_geom_bond_type
C16   H17   S    
C2    C4    D    
C12   O7    A    
C26   H12   S    
C7    O14   S    
C6    O3    S    
Cu1   N2    S    
C21   O11   A    
C8    H29   S    
C14   H10   S    
C9    O2    S    
C17   H19   S    
C9    C10   S    
C10   H2    S    
Cu2   O8    S    
C13   H9    S    
C1    O8    A    
C17   H20   S    
C7    H27   S    
C5    O4    S    
C9    H32   S    
Cu2   O12   S    
Cu2   N1    S    
C6    N2    D    
Cu2   O7    S    
C21   C23   S    
C14   O4    S    
C20   O12   A    
C7    C8    S    
C16   O5    S    
C21   O13   A    
C3    O2    S    
C24   C25   S    
C8    H28   S    
C11   C13   S    
N1    O6    S    
C19   H25   S    
C1    C26   S    
Cu1   O1    S    
N2    O5    S    
C2    H1    S    
Cu1   O13   S    
Cu2   O11   S    
C1    O1    A    
C19   H26   S    
C15   H15   S    
C12   O9    A    
C20   C22   S    
C13   H7    S    
C18   H21   S    
C23   C25   T    
C5    C6    S    
C22   C24   T    
C4    O14   S    
C15   H13   S    
C5    N1    D    
C3    C4    S    
C10   H4    S    
C11   H5    S    
Cu1   O9    S    
C17   H18   S    
C18   H22   S    
C13   H8    S    
C2    C12   S    
C7    H23   S    
Cu1   Cu2   S    
C3    C26   D    
C16   H16   S    
C14   C15   S    
C18   C19   S    
C8    H30   S    
C14   H11   S    
C18   O6    S    
C19   H24   S    
C11   H6    S    
C20   O10   A    
Cu1   O10   S    
C11   O3    S    
C15   H14   S    
C16   C17   S    
C9    H31   S    
C10   H3    S    
