data_mof_unit_38316.cif
_audit_creation_date              2012-12-11T15:39:35-0500
_audit_creation_method            fapswitch 2.2
_symmetry_space_group_name_H-M    P1
_symmetry_Int_Tables_number       1
_space_group_crystal_system       triclinic
_cell_length_a                    17.354152
_cell_length_b                    24.362207
_cell_length_c                    14.964987
_cell_angle_alpha                 89.788599
_cell_angle_beta                  125.664282
_cell_angle_gamma                 90.415871
_cell_volume                      5140.19921377

loop_
_atom_site_label
_atom_site_type_symbol
_atom_type_description
_atom_site_fract_x
_atom_site_fract_y
_atom_site_fract_z
_atom_type_partial_charge
C1    C     C_R   0.349732 0.348586 0.908331 -0.142811
C2    C     C_R   0.535820 0.500289 0.709133 0.046937
C3    C     C_R   0.120581 0.817742 0.999437 0.068366
C4    C     C_3   0.309039 0.653806 0.203825 -1.072466
C5    C     C_3   0.692184 0.651353 0.798085 -1.088860
C6    C     C_3   0.822984 0.160846 0.197344 -1.086035
C7    C     C_3   0.193840 0.150290 0.791766 -1.078091
C8    C     C_2   0.687863 0.412724 0.542443 0.437623
C9    C     C_2   0.663261 0.412279 0.723745 0.429777
C10   C     C_2   0.832413 0.911969 0.275791 0.428642
C11   C     C_2   0.803521 0.915948 0.454226 0.444915
C12   C     C_3   0.296257 0.679814 0.821620 -1.049849
C13   C     C_R   0.958187 0.000204 0.284405 0.046457
C14   C     C_3   0.734637 0.662902 0.200414 -1.049622
C15   C     C_3   0.812328 0.180035 0.813620 -1.022371
C16   C     C_3   0.241086 0.160423 0.197988 -1.080835
C17   C     C_R   0.930721 0.000709 0.631558 0.095851
C18   C     C_R   0.173491 0.499152 0.717264 0.071579
C19   C     C_R   0.801837 0.498933 0.367821 0.075812
C20   C     C_R   0.673919 0.999169 0.721299 0.051618
C21   C     C_R   0.302192 0.999117 0.368118 0.064404
C22   C     C_R   0.020336 0.549238 0.623829 0.165883
C23   C     C_R   0.925865 0.548825 0.536188 0.149452
C24   C     C_R   0.520913 0.049506 0.625528 0.162134
C25   C     C_R   0.647237 0.347981 0.090308 -0.135313
C26   C     C_R   0.426940 0.049206 0.536380 0.155430
C27   C     C_R   0.071099 0.499941 0.662386 0.033137
C28   C     C_R   0.880579 0.499360 0.484213 0.065025
C29   C     C_R   0.571225 0.000132 0.665673 0.035936
C30   C     C_R   0.381100 0.999754 0.484807 0.033276
C31   C     C_R   0.019058 0.450526 0.630810 -0.235546
C32   C     C_R   0.923841 0.450131 0.540624 -0.105839
C33   C     C_R   0.518521 0.950884 0.633641 -0.185744
C34   C     C_R   0.423287 0.950647 0.542650 -0.189000
C35   C     C_3   0.935379 0.600833 0.489877 -0.519250
C36   C     C_R   0.851963 0.847969 0.908753 -0.154036
C37   C     C_3   0.038240 0.601462 0.585059 -0.524708
C38   C     C_3   0.438124 0.100714 0.490216 -0.510900
C39   C     C_3   0.540501 0.101326 0.587342 -0.514823
C40   C     C_R   0.165798 0.691666 0.901860 -0.211217
C41   C     C_R   0.844610 0.687351 0.099746 -0.217844
C42   C     C_R   0.682157 0.205331 0.897504 -0.212693
C43   C     C_R   0.347413 0.182603 0.094946 -0.216981
C44   C     C_R   0.620252 0.241264 0.894457 -0.149875
C45   C     C_R   0.390765 0.230882 0.096592 -0.172890
C46   C     C_R   0.115985 0.736047 0.899562 -0.168291
C47   C     C_R   0.150601 0.849072 0.091465 -0.124739
C48   C     C_R   0.893483 0.732383 0.100245 -0.152984
C49   C     C_R   0.640335 0.261024 0.993395 0.078032
C50   C     C_R   0.354328 0.259136 0.998125 0.090761
C51   C     C_R   0.144844 0.760928 0.998653 0.089374
C52   C     C_R   0.860379 0.758640 0.000803 0.084104
C53   C     C_R   0.408961 0.630103 0.093726 -0.183464
C54   C     C_R   0.593011 0.633057 0.910641 -0.198427
C55   C     C_R   0.922683 0.142944 0.091311 -0.187654
C56   C     C_R   0.097280 0.124815 0.907882 -0.197898
C57   C     C_R   0.703627 0.232960 0.090915 -0.207520
C58   C     C_R   0.323317 0.648736 0.002612 0.030165
C59   C     C_R   0.290281 0.232032 0.898148 -0.216360
C60   C     C_R   0.206045 0.732888 0.097654 -0.211544
C61   C     C_R   0.796086 0.731160 0.901775 -0.216331
C62   C     C_R   0.254827 0.687298 0.099866 0.326809
C63   C     C_R   0.748618 0.684952 0.901632 0.330912
C64   C     C_R   0.764034 0.194576 0.094300 0.335322
C65   C     C_R   0.248074 0.182941 0.896904 0.328718
C66   C     C_R   0.246488 0.674006 0.002434 0.093214
C67   C     C_R   0.760572 0.670734 0.000804 0.096273
C68   C     C_R   0.762932 0.188354 0.998939 0.079374
C69   C     C_R   0.683466 0.645924 0.002355 0.020795
C70   C     C_R   0.263873 0.164978 0.996358 0.101593
C71   C     C_R   0.571246 0.551454 0.596722 -0.155080
C72   C     C_R   0.583145 0.551946 0.514725 -0.197433
C73   C     C_R   0.922365 0.051745 0.487621 -0.199443
C74   C     C_R   0.930312 0.051364 0.402539 -0.152714
C75   C     C_R   0.602375 0.503212 0.483014 0.115372
C76   C     C_R   0.580169 0.502521 0.650751 0.046815
C77   C     C_R   0.916157 0.002697 0.345469 0.048026
C78   C     C_R   0.898985 0.003650 0.517470 0.120028
C79   C     C_R   0.635726 0.457055 0.553797 -0.047475
C80   C     C_R   0.841053 0.164581 0.000276 0.046961
C81   C     C_R   0.624040 0.456649 0.639975 -0.112385
C82   C     C_R   0.871592 0.957179 0.357722 -0.110519
C83   C     C_R   0.860678 0.958259 0.444649 -0.057434
C84   C     C_R   0.548436 0.454475 0.303661 -0.079330
C85   C     C_R   0.510902 0.453994 0.741730 -0.147679
C86   C     C_R   0.985950 0.953944 0.255451 -0.144599
C87   C     C_R   0.951292 0.954618 0.696157 -0.073655
C88   C     C_R   0.230902 0.544911 0.746396 -0.156250
C89   C     C_R   0.752250 0.544485 0.306345 -0.146493
C90   C     C_R   0.731601 0.044952 0.751512 -0.139596
C91   C     C_R   0.187698 0.138991 0.999278 0.013228
C92   C     C_R   0.252515 0.044595 0.306309 -0.136168
C93   C     C_R   0.553171 0.545747 0.304235 -0.161271
C94   C     C_R   0.504781 0.545639 0.735498 -0.118771
C95   C     C_R   0.988147 0.045756 0.256338 -0.126038
C96   C     C_R   0.946997 0.045829 0.695676 -0.156665
C97   C     C_R   0.230743 0.453426 0.746145 -0.117191
C98   C     C_R   0.755722 0.453636 0.302293 -0.084817
C99   C     C_R   0.730843 0.953459 0.747691 -0.059288
C100  C     C_R   0.255794 0.953760 0.302647 -0.109079
C101  C     C_R   0.323419 0.638178 0.910321 0.289571
C102  C     C_R   0.569756 0.500483 0.368565 0.093966
C103  C     C_R   0.684793 0.631919 0.093989 0.320485
C104  C     C_R   0.833507 0.144606 0.908260 0.265390
C105  C     C_R   0.187053 0.129115 0.091837 0.341507
C106  C     C_R   0.440320 0.348751 0.091369 -0.128239
C107  C     C_R   0.554265 0.348610 0.907156 -0.125906
C108  C     C_R   0.943287 0.848227 0.091622 -0.126654
C109  C     C_R   0.058526 0.849237 0.907913 -0.128562
C110  C     C_R   0.378073 0.316966 0.999446 0.071463
C111  C     C_R   0.614170 0.316569 0.997428 0.077313
C112  C     C_R   0.882820 0.816169 0.000306 0.080347
H1    H     H_    0.312327 0.334819 0.824220 0.086004
H2    H     H_    0.084899 0.596334 0.557318 0.202741
H3    H     H_    0.397044 0.135456 0.490428 0.197004
H4    H     H_    0.588798 0.095629 0.562037 0.208520
H5    H     H_    0.146134 0.675014 0.824658 0.138511
H6    H     H_    0.868678 0.669387 0.177612 0.152711
H7    H     H_    0.669130 0.194594 0.820164 0.149312
H8    H     H_    0.374506 0.162583 0.172085 0.153076
H9    H     H_    0.565188 0.258329 0.815538 0.129160
H10   H     H_    0.447634 0.247476 0.175342 0.121018
H11   H     H_    0.061822 0.753331 0.820446 0.119522
H12   H     H_    0.687952 0.334308 0.174815 0.089937
H13   H     H_    0.950679 0.748950 0.178800 0.124884
H14   H     H_    0.710783 0.243381 0.165720 0.123249
H15   H     H_    0.270744 0.249077 0.820795 0.124171
H16   H     H_    0.219157 0.747232 0.173738 0.123568
H17   H     H_    0.779477 0.746351 0.824408 0.127311
H18   H     H_    0.544810 0.588867 0.607295 0.128139
H19   H     H_    0.563799 0.589408 0.467574 0.121413
H20   H     H_    0.946699 0.088470 0.537577 0.121259
H21   H     H_    0.958908 0.088341 0.392518 0.127378
H22   H     H_    0.440081 0.635735 0.179610 0.138294
H23   H     H_    0.814335 0.834165 0.824606 0.094607
H24   H     H_    0.560148 0.648269 0.828826 0.134399
H25   H     H_    0.961964 0.157897 0.174369 0.125664
H26   H     H_    0.067148 0.130202 0.822260 0.143147
H27   H     H_    0.559703 0.411980 0.328796 0.099705
H28   H     H_    0.517507 0.411410 0.727996 0.123452
H29   H     H_    0.979114 0.911380 0.269992 0.122634
H30   H     H_    0.939168 0.912184 0.670336 0.097795
H31   H     H_    0.209723 0.586432 0.736166 0.129846
H32   H     H_    0.755306 0.584118 0.339814 0.121902
H33   H     H_    0.711121 0.086454 0.747330 0.122622
H34   H     H_    0.190598 0.835718 0.176087 0.086460
H35   H     H_    0.256288 0.084455 0.339486 0.118327
H36   H     H_    0.575522 0.587548 0.331604 0.092593
H37   H     H_    0.500538 0.587292 0.710355 0.089085
H38   H     H_    0.985066 0.087975 0.272888 0.096070
H39   H     H_    0.925131 0.087563 0.667958 0.097587
H40   H     H_    0.209960 0.410786 0.735337 0.094092
H41   H     H_    0.766052 0.411207 0.327927 0.103122
H42   H     H_    0.709906 0.910814 0.736385 0.090242
H43   H     H_    0.266310 0.911368 0.328558 0.086331
H44   H     H_    0.485433 0.335305 0.175921 0.087006
H45   H     H_    0.925767 0.594767 0.410373 0.198802
H46   H     H_    0.506373 0.335607 0.822563 0.091213
H47   H     H_    0.990058 0.834800 0.175998 0.091572
H48   H     H_    0.012660 0.836005 0.823235 0.088330
H49   H     H_    0.053646 0.411539 0.664619 0.133871
H50   H     H_    0.889409 0.410812 0.507942 0.149627
H51   H     H_    0.552729 0.911894 0.668364 0.126959
H52   H     H_    0.387887 0.911480 0.510687 0.125604
H53   H     H_    0.318302 0.610912 0.187132 0.261647
H54   H     H_    0.378377 0.673655 0.265343 0.249480
H55   H     H_    0.268346 0.651001 0.239771 0.260257
H56   H     H_    0.056688 0.636309 0.641999 0.190100
H57   H     H_    0.677548 0.609613 0.814724 0.263902
H58   H     H_    0.625375 0.672732 0.735443 0.245465
H59   H     H_    0.733910 0.645649 0.764078 0.268594
H60   H     H_    0.827971 0.118061 0.176361 0.264456
H61   H     H_    0.893662 0.180084 0.254942 0.244570
H62   H     H_    0.788780 0.158079 0.241015 0.262543
H63   H     H_    0.183721 0.107012 0.806507 0.261766
H64   H     H_    0.124670 0.170029 0.730774 0.248382
H65   H     H_    0.235031 0.148809 0.756391 0.262017
H66   H     H_    0.686206 0.370789 0.565071 0.102092
H67   H     H_    0.429993 0.093895 0.411743 0.202758
H68   H     H_    0.695998 0.422814 0.809247 0.044275
H69   H     H_    0.800141 0.921492 0.189950 0.042821
H70   H     H_    0.797663 0.874314 0.426141 0.098906
H71   H     H_    0.222610 0.674659 0.747813 0.232983
H72   H     H_    0.304104 0.721960 0.854086 0.266596
H73   H     H_    0.344278 0.676361 0.795556 0.258066
H74   H     H_    0.804291 0.644396 0.261945 0.238054
H75   H     H_    0.744364 0.706592 0.187505 0.276026
H76   H     H_    0.690894 0.662484 0.232540 0.250962
H77   H     H_    0.739571 0.173282 0.738765 0.234264
H78   H     H_    0.558430 0.136370 0.643871 0.190170
H79   H     H_    0.820695 0.224112 0.836499 0.270761
H80   H     H_    0.862876 0.170730 0.793047 0.256104
H81   H     H_    0.310067 0.140806 0.257989 0.243798
H82   H     H_    0.252226 0.203584 0.183769 0.266566
H83   H     H_    0.199440 0.162021 0.232711 0.251577
H84   H     H_    0.894709 0.635203 0.492079 0.203135
N1    N     N_R   0.394180 0.396910 0.943210 -0.039097
N2    N     N_R   0.474350 0.471570 0.793850 -0.041647
N3    N     N_R   0.025650 0.971570 0.206150 -0.041334
N4    N     N_R   0.974350 0.971570 0.793850 -0.047815
N5    N     N_R   0.319480 0.528420 0.793810 -0.040521
N6    N     N_R   0.680520 0.528420 0.206190 -0.041067
N7    N     N_R   0.819480 0.028420 0.793810 -0.037313
N8    N     N_R   0.180520 0.028420 0.206190 -0.040799
N9    N     N_R   0.525640 0.528390 0.206120 -0.040054
N10   N     N_R   0.474360 0.528390 0.793880 -0.037846
N11   N     N_R   0.025640 0.028390 0.206120 -0.038927
N12   N     N_R   0.605820 0.396910 0.056790 -0.042196
N13   N     N_R   0.974360 0.028390 0.793880 -0.041779
N14   N     N_R   0.319490 0.471590 0.793840 -0.042363
N15   N     N_R   0.680510 0.471590 0.206160 -0.046890
N16   N     N_R   0.819490 0.971590 0.793840 -0.038514
N17   N     N_R   0.180510 0.971590 0.206160 -0.043322
N18   N     N_R   0.394130 0.603080 0.943110 -0.052199
N19   N     N_R   0.605870 0.603080 0.056890 -0.053848
N20   N     N_R   0.894130 0.103080 0.943110 -0.052153
N21   N     N_R   0.105870 0.103080 0.056890 -0.055088
N22   N     N_R   0.450990 0.396900 0.056840 -0.040697
N23   N     N_R   0.894180 0.896910 0.943210 -0.042910
N24   N     N_R   0.549010 0.396900 0.943160 -0.043287
N25   N     N_R   0.950990 0.896900 0.056840 -0.043432
N26   N     N_R   0.049010 0.896900 0.943160 -0.041939
N27   N     N_R   0.105820 0.896910 0.056790 -0.040928
N28   N     N_R   0.450950 0.603070 0.056740 -0.053156
N29   N     N_R   0.549050 0.603070 0.943260 -0.053803
N30   N     N_R   0.950950 0.103070 0.056740 -0.053077
N31   N     N_R   0.049050 0.103070 0.943260 -0.055478
N32   N     N_R   0.525650 0.471570 0.206150 -0.046425
Ni1   Ni    Ni4+2 0.434860 0.434850 0.869700 0.208341
Ni2   Ni    Ni4+2 0.565140 0.434850 0.130300 0.215527
Ni3   Ni    Ni4+2 0.934860 0.934850 0.869700 0.226377
Ni4   Ni    Ni4+2 0.065140 0.934850 0.130300 0.204129
Ni5   Ni    Ni4+2 0.565130 0.565140 0.130240 0.207586
Ni6   Ni    Ni4+2 0.434870 0.565140 0.869760 0.211347
Ni7   Ni    Ni4+2 0.065130 0.065140 0.130240 0.204209
Ni8   Ni    Ni4+2 0.934870 0.065140 0.869760 0.212811
O1    O     O_2   0.735148 0.423080 0.508154 -0.622898
O2    O     O_2   0.654799 0.363949 0.698316 -0.611577
O3    O     O_2   0.840597 0.863965 0.303362 -0.607523
O4    O     O_2   0.759623 0.927883 0.492037 -0.587997

loop_
_geom_bond_atom_site_label_1
_geom_bond_atom_site_label_2
_ccdc_geom_bond_type
C44   C49   A    
N12   N24   A    
C15   H80   S    
C31   H49   S    
C68   C80   S    
C55   C80   A    
N15   Ni2   S    
C29   C33   A    
N2    N10   A    
C84   C102  A    
C73   C74   A    
C91   C105  A    
C95   H38   S    
C70   C91   S    
C94   N10   A    
N6    N15   A    
N28   Ni5   S    
C93   N9    A    
N21   Ni7   S    
N32   Ni2   S    
N16   Ni3   S    
N2    Ni1   S    
N11   Ni7   S    
C41   C67   A    
C108  H47   S    
C6    H60   S    
C8    O1    D    
C53   N28   A    
C40   C46   A    
N31   Ni8   S    
C54   C69   A    
C7    H65   S    
C1    H1    S    
N24   Ni1   S    
N9    N32   A    
C98   H41   S    
C50   C59   A    
C64   C68   A    
C55   N30   A    
C33   H51   S    
C24   C26   A    
N8    Ni7   S    
C34   H52   S    
C52   C61   A    
C38   C39   S    
C14   H74   S    
C42   H7    S    
C12   H71   S    
N23   N25   A    
C52   C112  S    
C59   H15   S    
C65   C70   A    
C74   H21   S    
C4    C62   S    
C44   H9    S    
C50   C110  S    
C24   C39   S    
C49   C57   A    
C4    H53   S    
C5    C63   S    
C93   H36   S    
C60   C62   A    
C6    C64   S    
C61   C63   A    
C24   C29   A    
N22   Ni2   S    
C47   N27   A    
C16   H81   S    
C48   H13   S    
C78   C83   A    
C97   H40   S    
C56   C91   A    
C84   H27   S    
N19   Ni5   S    
C74   C77   A    
C7    H63   S    
C13   C86   A    
C36   C112  A    
C75   C102  S    
N1    Ni1   S    
C5    H58   S    
C96   N13   A    
N4    Ni3   S    
C41   H6    S    
C25   N12   A    
C88   H31   S    
C92   N8    A    
C61   H17   S    
C86   N3    A    
C20   C29   S    
C89   N6    A    
C15   H77   S    
C73   H20   S    
C10   O3    D    
C40   C66   A    
C92   H35   S    
C42   C68   A    
N18   Ni6   S    
C11   H70   S    
C42   C44   A    
C87   N4    A    
C72   C75   A    
C36   N23   A    
C25   H12   S    
C19   C98   A    
C58   C66   S    
C53   H22   S    
C37   H56   S    
C63   C67   A    
C99   N16   A    
C69   C103  A    
C95   N11   A    
C2    C94   A    
C13   C77   S    
C100  N17   A    
C97   N14   A    
C30   C34   A    
N5    Ni6   S    
C27   C31   A    
C28   C32   A    
C104  N20   A    
C57   H14   S    
C79   C81   A    
C39   H78   S    
C62   C66   A    
C39   H4    S    
C26   C38   S    
C99   H42   S    
C6    H62   S    
C11   C83   S    
C11   O4    D    
C22   C37   S    
C20   C90   A    
N8    N17   A    
C10   C82   S    
C18   C88   A    
N30   Ni7   S    
C108  C112  A    
C32   H50   S    
C67   C69   S    
C76   C81   A    
N3    Ni4   S    
C35   H45   S    
C54   N29   A    
C19   C89   A    
C1    C110  A    
C7    C65   S    
C72   H19   S    
C56   H26   S    
C31   C32   A    
C60   H16   S    
C101  N18   A    
C73   C78   A    
C54   H24   S    
C7    H64   S    
N3    N11   A    
C33   C34   A    
C5    H59   S    
C21   C30   S    
C17   C96   A    
C23   C28   A    
C19   C28   S    
C43   C45   A    
C85   H28   S    
C58   C101  A    
C12   H72   S    
N17   Ni4   S    
N18   N28   A    
C16   C105  S    
N21   N31   A    
C35   H84   S    
C100  H43   S    
C18   C97   A    
C80   C104  A    
N26   Ni3   S    
C26   C30   A    
C43   C70   A    
C105  N21   A    
C22   C27   A    
C41   C48   A    
C15   C104  S    
C108  N25   A    
N7    N16   A    
N29   Ni6   S    
N1    N22   A    
C84   N32   A    
C36   H23   S    
C103  N19   A    
N5    N14   A    
C107  H46   S    
C2    C76   S    
N27   Ni4   S    
C35   C37   S    
C57   C64   A    
C90   N7    A    
C106  C110  A    
C88   N5    A    
C21   C100  A    
C15   H79   S    
C3    C51   S    
C38   H67   S    
C56   N31   A    
C106  N22   A    
C17   C87   A    
C107  C111  A    
C1    N1    A    
C18   C27   S    
N23   Ni3   S    
C93   C102  A    
C53   C58   A    
C37   H2    S    
C6    H61   S    
C38   H3    S    
C45   H10   S    
C90   H33   S    
C89   H32   S    
C98   N15   A    
C43   H8    S    
C106  H44   S    
N4    N13   A    
C55   H25   S    
C4    H55   S    
C49   C111  S    
N10   Ni6   S    
C9    H68   S    
N9    Ni5   S    
N13   Ni8   S    
C12   C101  S    
C8    C79   S    
C59   C65   A    
N6    Ni5   S    
C45   C50   A    
C14   H75   S    
C96   H39   S    
C14   C103  S    
C71   C76   A    
C20   C99   A    
C77   C82   A    
C3    C109  A    
N20   Ni8   S    
C12   H73   S    
C46   C51   A    
N25   Ni4   S    
C3    C47   A    
C17   C78   S    
N14   Ni1   S    
C4    H54   S    
C40   H5    S    
C87   H30   S    
N26   N27   A    
C46   H11   S    
C23   C35   S    
N20   N30   A    
C47   H34   S    
C16   H82   S    
C25   C111  A    
C107  N24   A    
C8    H66   S    
C85   N2    A    
N7    Ni8   S    
C2    C85   A    
C71   C72   A    
C13   C95   A    
C82   C83   A    
N12   Ni2   S    
C9    O2    D    
C16   H83   S    
C10   H69   S    
C5    H57   S    
C22   C23   A    
C94   H37   S    
C51   C60   A    
N19   N29   A    
C14   H76   S    
C48   C52   A    
C109  H48   S    
C75   C79   A    
C109  N26   A    
C86   H29   S    
C9    C81   S    
C71   H18   S    
C21   C92   A    
