data_mof_unit_38576.cif
_audit_creation_date              2012-12-10T17:56:20-0500
_audit_creation_method            fapswitch 2.2
_symmetry_space_group_name_H-M    P1
_symmetry_Int_Tables_number       1
_space_group_crystal_system       triclinic
_cell_length_a                    13.032866
_cell_length_b                    10.847144
_cell_length_c                    9.543701
_cell_angle_alpha                 91.032532
_cell_angle_beta                  96.251779
_cell_angle_gamma                 90.524946
_cell_volume                      1340.86159771

loop_
_atom_site_label
_atom_site_type_symbol
_atom_type_description
_atom_site_fract_x
_atom_site_fract_y
_atom_site_fract_z
_atom_type_partial_charge
C1    C     C_R   0.501664 0.262244 0.498852 0.867369
C2    C     C_R   0.498336 0.737756 0.501147 0.867371
C3    C     C_R   0.498196 0.871651 0.503112 -0.182946
C4    C     C_R   0.501804 0.128349 0.496888 -0.182946
C5    C     C_R   0.436926 0.421029 0.061698 0.507375
C6    C     C_R   0.563074 0.578971 0.938302 0.507374
C7    C     C_R   0.437170 0.421579 0.913571 -0.070377
C8    C     C_R   0.562830 0.578421 0.086429 -0.070376
C9    C     C_R   0.300787 0.502555 0.473973 0.858756
C10   C     C_R   0.699213 0.497445 0.526027 0.858756
C11   C     C_R   0.811692 0.500698 0.540242 -0.126438
C12   C     C_R   0.188308 0.499299 0.459758 -0.126437
C13   C     C_R   0.030681 0.411684 0.341260 -0.112409
C14   C     C_R   0.969320 0.588309 0.658742 -0.112410
C15   C     C_R   0.136408 0.429634 0.349168 -0.228457
C16   C     C_R   0.863593 0.570358 0.650835 -0.228457
C17   C     C_R   0.132988 0.557002 0.561209 0.327247
C18   C     C_R   0.867011 0.442996 0.438790 0.327249
C19   C     C_R   0.025842 0.537009 0.555391 0.031332
C20   C     C_R   0.974158 0.462987 0.444609 0.031332
C21   C     C_R   0.539400 0.059454 0.387065 0.436427
C22   C     C_R   0.460600 0.940546 0.612935 0.436427
C23   C     C_R   0.537056 0.932007 0.391265 -0.247189
C24   C     C_R   0.462944 0.067993 0.608735 -0.247189
Cu1   Cu    Cu3+1 0.500000 0.500020 0.640660 1.075299
Cu2   Cu    Cu3+1 0.500000 0.499980 0.359340 1.075299
H1    H     H_    0.821825 0.614634 0.729396 0.226788
H2    H     H_    0.178176 0.385354 0.270609 0.226787
H3    H     H_    0.994508 0.356136 0.254082 0.219219
H4    H     H_    0.005493 0.643854 0.745922 0.219219
H5    H     H_    0.567345 0.879910 0.307210 0.206937
H6    H     H_    0.432655 0.120090 0.692790 0.206937
H7    H     H_    0.387010 0.358834 0.847857 0.175682
H8    H     H_    0.612990 0.641166 0.152143 0.175682
N1    N     N_R   0.500030 0.500030 0.852080 -0.220415
N2    N     N_R   0.499970 0.499970 0.147920 -0.220415
O1    O     O_R   0.499990 0.319660 0.618740 -0.610037
O2    O     O_R   0.500010 0.680340 0.381260 -0.610037
O3    O     O_R   0.499990 0.319630 0.381170 -0.487223
O4    O     O_R   0.500010 0.680370 0.618830 -0.487223
O5    O     O_R   0.349000 0.499990 0.599490 -0.546571
O6    O     O_R   0.651000 0.500010 0.400510 -0.546570
O7    O     O_R   0.348990 0.499960 0.361920 -0.557476
O8    O     O_R   0.651010 0.500040 0.638080 -0.557477
Cl1   Cl    Cl    0.802910 0.341606 0.308832 -0.531007
Cl2   Cl    Cl    0.197088 0.658396 0.691163 -0.531007
Cl3   Cl    Cl    0.594101 0.125968 0.244678 -0.451232
Cl4   Cl    Cl    0.405900 0.874032 0.755323 -0.451231
Cl5   Cl    Cl    0.353748 0.315309 0.130028 -0.560657
Cl6   Cl    Cl    0.646252 0.684691 0.869972 -0.560655

loop_
_geom_bond_atom_site_label_1
_geom_bond_atom_site_label_2
_ccdc_geom_bond_type
C12   C17   A    
C22   Cl4   S    
C24   H6    S    
C11   C18   A    
C10   O6    A    
C11   C16   A    
C2    O2    A    
C9    O5    A    
C19   C20   A    
C12   C15   A    
C1    O1    A    
C1    C4    S    
C5    N2    A    
C16   H1    S    
C21   C23   A    
C2    C3    S    
C8    H8    S    
C6    Cl6   S    
C4    C21   A    
C7    H7    S    
C5    Cl5   S    
C15   H2    S    
C7    N1    A    
C14   H4    S    
Cu1   O8    S    
C13   H3    S    
C17   C19   A    
Cu1   N1    S    
Cu2   O7    S    
C18   C20   A    
C13   C15   A    
Cu1   O4    S    
C4    C24   A    
C9    C12   S    
C14   C16   A    
Cu2   O3    S    
C9    O7    A    
C10   C11   S    
C1    O3    A    
C10   O8    A    
C18   Cl1   S    
C2    O4    A    
C17   Cl2   S    
Cu2   O6    S    
Cu1   O5    S    
C8    N2    A    
C22   C24   A    
Cu2   N2    S    
C5    C7    A    
Cu2   O2    S    
C3    C22   A    
C6    C8    A    
C13   C20   A    
Cu1   O1    S    
Cu1   Cu2   S    
C3    C23   A    
C14   C19   A    
C6    N1    A    
C21   Cl3   S    
C23   H5    S    
