data_mof_unit_52493.cif
_audit_creation_date              2013-03-05T16:30:50-0500
_audit_creation_method            fapswitch 2.2
_symmetry_space_group_name_H-M    P1
_symmetry_Int_Tables_number       1
_space_group_crystal_system       triclinic
_cell_length_a                    11.036132
_cell_length_b                    10.859851
_cell_length_c                    9.561961
_cell_angle_alpha                 90.92494
_cell_angle_beta                  102.550045
_cell_angle_gamma                 90.564941
_cell_volume                      1118.37546793

loop_
_atom_site_label
_atom_site_type_symbol
_atom_site_description
_atom_site_fract_x
_atom_site_fract_y
_atom_site_fract_z
_atom_type_partial_charge
O1    O     O_R   0.500000 0.319640 0.618810 -0.582794
O2    O     O_R   0.500010 0.319680 0.381230 -0.588211
C1    C     C_R   0.496167 0.262548 0.497949 0.790578
O3    O     O_R   0.320680 0.500000 0.575130 -0.587764
O4    O     O_R   0.320690 0.500040 0.337550 -0.577672
C2    C     C_R   0.262733 0.497451 0.441964 0.846913
Cu1   Cu    Cu3+1 0.499990 0.499980 0.640670 0.969019
Cu2   Cu    Cu3+1 0.500010 0.500020 0.359330 0.954553
O5    O     O_R   0.499990 0.680320 0.618770 -0.582926
O6    O     O_R   0.500000 0.680360 0.381190 -0.593822
O7    O     O_R   0.679310 0.499960 0.662450 -0.541885
O8    O     O_R   0.679320 0.500000 0.424870 -0.587365
C3    C     C_R   0.497697 0.737982 0.500092 0.802097
C4    C     C_R   0.737147 0.497675 0.558080 0.873570
H1    H     H_    0.882996 0.451131 0.378269 0.216795
H2    H     H_    0.117626 0.488092 0.628057 0.178026
C5    C     C_2   0.127658 0.487932 0.409778 -0.302603
C6    C     C_2   0.067554 0.482225 0.516769 -0.146382
H3    H     H_    0.922690 0.512227 0.700410 0.203105
C7    C     C_2   0.872201 0.494253 0.591100 -0.326457
C8    C     C_2   0.932919 0.472565 0.487057 -0.128703
H4    H     H_    0.077255 0.484063 0.298627 0.194785
C9    C     C_R   0.462906 0.066740 0.611293 0.125119
C10   C     C_R   0.481134 0.129828 0.491730 -0.093075
C11   C     C_R   0.481425 0.062484 0.365220 -0.207062
H5    H     H_    0.487627 0.108367 0.267226 0.167798
C12   C     C_R   0.482815 0.934012 0.367253 -0.206845
H6    H     H_    0.488611 0.884761 0.269907 0.158028
C13   C     C_R   0.484712 0.871497 0.495838 -0.091550
C14   C     C_R   0.464912 0.939870 0.613876 0.130623
C15   C     C_3   0.532326 0.942079 0.767381 -0.483584
C16   C     C_3   0.528332 0.081198 0.764180 -0.438869
H7    H     H_    0.474734 0.903449 0.838596 0.194291
H8    H     H_    0.628420 0.907113 0.781542 0.235444
H9    H     H_    0.467664 0.121441 0.831431 0.197961
H10   H     H_    0.621642 0.125404 0.777878 0.214893
C17   C     C_R   0.598978 0.547570 0.099724 0.210481
N1    N     N_R   0.500780 0.500930 0.148120 -0.199321
C18   C     C_R   0.408048 0.442717 0.050177 -0.064136
H11   H     H_    0.332550 0.397859 0.085899 0.146524
C19   C     C_R   0.407725 0.443207 0.901424 -0.078757
H12   H     H_    0.331841 0.398916 0.826196 0.142493
N2    N     N_R   0.500790 0.500890 0.852210 -0.216823
C20   C     C_R   0.600673 0.544180 0.952302 0.218919
C21   C     C_3   0.652038 0.671985 0.958523 0.092189
C22   C     C_3   0.643577 0.678652 0.115851 -0.368882
H13   H     H_    0.587387 0.732267 0.888362 0.095699
H14   H     H_    0.569406 0.741734 0.132934 0.109645
N3    N     N_R   0.778525 0.678054 0.933938 0.175343
O9    O     O_R   0.830345 0.784931 0.925401 -0.368780
O10   O     O_R   0.842700 0.578768 0.928731 -0.345394
C23   C     C_2   0.762459 0.698857 0.226594 0.538644
H15   H     H_    0.765025 0.767038 0.311407 0.042964
O11   O     O_2   0.855349 0.639669 0.223977 -0.516838

loop_
_geom_bond_atom_site_label_1
_geom_bond_atom_site_label_2
_geom_bond_distance
_ccdc_geom_bond_type
O4    Cu2   1.944403 S    
C9    C10   1.392623 A    
C15   H7    1.111630 S    
C10   C11   1.404056 A    
C17   N1    1.363763 A    
C9    C14   1.378720 A    
C5    H4    1.087172 S    
Cu1   N2    2.020700 S    
Cu2   O8    1.941600 S    
C11   C12   1.395823 A    
C6    C8    1.453273 S    
C19   H12   1.081301 S    
H3    C7    1.085914 S    
C21   N3    1.466113 S    
N2    C20   1.367071 A    
C9    C16   1.488218 S    
C17   C20   1.413718 A    
C5    C6    1.336632 D    
C11   H5    1.083167 S    
C15   H8    1.111035 S    
Cu1   Cu2   2.690218 S    
C18   C19   1.421704 A    
H2    C6    1.087826 S    
C21   C22   1.527990 S    
C7    C8    1.333975 D    
Cu1   O7    1.944405 S    
C19   N2    1.369535 A    
C1    C10   1.448003 S    
C14   C15   1.494154 S    
Cu2   N1    2.021628 S    
O3    Cu1   1.941598 S    
C16   H10   1.112510 S    
O3    C2    1.294499 A    
C23   O11   1.219971 D    
O2    C1    1.294118 A    
O1    C1    1.294945 A    
C21   H13   1.096857 S    
O4    C2    1.297998 A    
O7    C4    1.296280 A    
C22   H14   1.109759 S    
C12   C13   1.410367 A    
C13   C14   1.398685 A    
C16   H9    1.112029 S    
C22   C23   1.507930 S    
H1    C8    1.086451 S    
N1    C18   1.369563 A    
C23   H15   1.084869 S    
C4    C7    1.455869 S    
Cu2   O6    1.966235 S    
N3    O9    1.300441 A    
C3    C13   1.458770 S    
C18   H11   1.081323 S    
Cu1   O5    1.972988 S    
C2    C5    1.457450 S    
O5    C3    1.300502 A    
N3    O10   1.302040 A    
C17   C22   1.496197 S    
O1    Cu1   1.966234 S    
O2    Cu2   1.972987 S    
C20   C21   1.489446 S    
C15   C16   1.512497 S    
O8    C4    1.295551 A    
C12   H6    1.080307 S    
O6    C3    1.294125 A    
