data_mof_unit_62489.cif
_audit_creation_date              2013-03-05T16:01:36-0500
_audit_creation_method            fapswitch 2.2
_symmetry_space_group_name_H-M    P1
_symmetry_Int_Tables_number       1
_space_group_crystal_system       triclinic
_cell_length_a                    21.383198
_cell_length_b                    29.190776
_cell_length_c                    29.189378
_cell_angle_alpha                 90.014169
_cell_angle_beta                  90.030554
_cell_angle_gamma                 90.017696
_cell_volume                      18219.7763886

loop_
_atom_site_label
_atom_site_type_symbol
_atom_site_description
_atom_site_fract_x
_atom_site_fract_y
_atom_site_fract_z
_atom_type_partial_charge
O1    O     O_R   1.000000 0.964340 0.063140 -0.598533
O2    O     O_R   1.000000 0.964340 0.936860 -0.594067
O3    O     O_R   0.500000 0.464340 0.563140 -0.597576
O4    O     O_R   0.500000 0.464340 0.436860 -0.594120
O5    O     O_R   0.000000 0.035640 0.063120 -0.602795
O6    O     O_R   0.000000 0.035640 0.936880 -0.609563
O7    O     O_R   0.500000 0.535640 0.563120 -0.603590
O8    O     O_R   0.500000 0.535640 0.436880 -0.609244
C1    C     C_R   0.999947 0.000000 0.086740 0.927287
C2    C     C_R   0.000098 0.999990 0.913262 0.902842
C3    C     C_R   0.499951 0.500000 0.586740 0.925798
C4    C     C_R   0.500097 0.499990 0.413262 0.902822
O9    O     O_R   0.093030 0.964340 0.000000 -0.603017
O10   O     O_R   0.906970 0.964340 0.000000 -0.612319
O11   O     O_R   0.593030 0.464340 0.500000 -0.603010
O12   O     O_R   0.406970 0.464340 0.500000 -0.609456
O13   O     O_R   0.093040 0.035640 0.000000 -0.636093
O14   O     O_R   0.906960 0.035640 0.000000 -0.627127
O15   O     O_R   0.593040 0.535640 0.500000 -0.635981
O16   O     O_R   0.406960 0.535640 0.500000 -0.628684
C5    C     C_R   0.122724 0.000031 0.000494 0.918055
C6    C     C_R   0.877229 0.000010 0.999687 0.948943
C7    C     C_R   0.622724 0.500031 0.500492 0.918037
C8    C     C_R   0.377226 0.500017 0.499777 0.947731
Zn1   Zn    Zn3+2 1.000000 0.952380 0.000000 0.990329
Zn2   Zn    Zn3+2 0.500000 0.452380 0.500000 0.992201
Zn3   Zn    Zn3+2 1.000000 0.047600 0.000000 0.955562
Zn4   Zn    Zn3+2 0.500000 0.547600 0.500000 0.954522
C9    C     C_3   0.229726 0.973945 0.034752 -0.232553
C10   C     C_3   0.770296 0.969162 0.968822 -0.225455
C11   C     C_3   0.770426 0.042269 0.988098 -0.228768
C12   C     C_3   0.229621 0.043633 0.005541 -0.235628
C13   C     C_3   0.729726 0.474028 0.534813 -0.232475
C14   C     C_3   0.270293 0.471624 0.466650 -0.224258
C15   C     C_3   0.270460 0.543067 0.491393 -0.228661
C16   C     C_3   0.729621 0.543647 0.505436 -0.235604
C17   C     C_3   0.270778 0.017236 0.040175 -0.129258
C18   C     C_3   0.729155 0.011239 0.957550 -0.130972
C19   C     C_3   0.770778 0.517333 0.540133 -0.129234
C20   C     C_3   0.229189 0.514458 0.458570 -0.130551
H1    H     H_    0.289579 0.031030 0.072847 0.150838
H2    H     H_    0.710270 0.020312 0.923294 0.152504
H3    H     H_    0.789579 0.531205 0.572771 0.150813
H4    H     H_    0.210307 0.526103 0.425100 0.151621
H5    H     H_    0.211227 0.952496 0.063077 0.154911
H6    H     H_    0.789012 0.944184 0.943632 0.156773
H7    H     H_    0.789063 0.076425 0.978420 0.164635
H8    H     H_    0.211102 0.078835 0.010335 0.166532
H9    H     H_    0.711226 0.452647 0.563189 0.154904
H10   H     H_    0.289027 0.448611 0.439659 0.155414
H11   H     H_    0.289101 0.577862 0.484340 0.165371
H12   H     H_    0.711101 0.578859 0.510145 0.166546
C21   C     C_3   0.310489 0.000442 0.999874 -0.059571
C22   C     C_3   0.689595 0.000161 0.999900 -0.062069
C23   C     C_3   0.810489 0.500443 0.499873 -0.059596
C24   C     C_3   0.189587 0.500230 0.499940 -0.062010
C25   C     C_3   0.270736 0.957090 0.994435 -0.193521
C26   C     C_3   0.729353 0.957779 0.011071 -0.247913
C27   C     C_3   0.729564 0.031497 0.030452 -0.256509
C28   C     C_3   0.270883 0.027057 0.965137 -0.275565
C29   C     C_3   0.770737 0.457078 0.494537 -0.193507
C30   C     C_3   0.229291 0.457102 0.507897 -0.246953
C31   C     C_3   0.229561 0.529148 0.532794 -0.257981
C32   C     C_3   0.770883 0.526975 0.465072 -0.275591
C33   C     C_3   0.229842 0.984040 0.960666 0.611139
C34   C     C_3   0.770027 0.989297 0.040814 0.606740
C35   C     C_3   0.729843 0.483946 0.460703 0.611087
C36   C     C_3   0.269966 0.486263 0.539960 0.605874
C37   C     C_3   0.189504 0.000251 0.000288 -0.087405
C38   C     C_3   0.810370 0.000149 0.999373 -0.067004
C39   C     C_3   0.689504 0.500252 0.500285 -0.087431
C40   C     C_3   0.310363 0.500191 0.499476 -0.067050
H13   H     H_    0.289420 0.921974 0.989347 0.142740
H14   H     H_    0.710519 0.923635 0.020581 0.135896
H15   H     H_    0.710965 0.056595 0.055568 0.144224
H16   H     H_    0.289871 0.048584 0.937050 0.146067
H17   H     H_    0.789423 0.421951 0.489533 0.142750
H18   H     H_    0.210411 0.422346 0.514788 0.135295
H19   H     H_    0.210989 0.552296 0.559728 0.145663
H20   H     H_    0.789870 0.548434 0.436933 0.146115
C41   C     C_1   0.999896 0.000015 0.137406 -0.205801
C42   C     C_1   0.000248 0.999988 0.862599 -0.228937
C43   C     C_1   0.499904 0.500015 0.637406 -0.206627
C44   C     C_1   0.500247 0.499988 0.362599 -0.229014
C45   C     C_1   0.999866 0.000016 0.179603 0.005663
C46   C     C_1   0.000332 0.999986 0.820404 -0.004441
C47   C     C_1   0.499877 0.500015 0.679603 0.005566
C48   C     C_1   0.500331 0.499986 0.320404 -0.004398
C49   C     C_1   0.999860 0.000011 0.229424 0.006363
C50   C     C_1   0.000336 0.999985 0.770584 0.004768
C51   C     C_1   0.499870 0.500009 0.729424 0.006458
C52   C     C_1   0.500335 0.499984 0.270584 0.004798
C53   C     C_1   0.999875 0.000005 0.271621 0.005360
C54   C     C_1   0.000278 0.999985 0.728386 0.004768
C55   C     C_1   0.499883 0.500004 0.771621 0.005396
C56   C     C_1   0.500278 0.499984 0.228386 0.004792
C57   C     C_1   0.999909 0.999999 0.321443 0.003015
C58   C     C_1   0.000172 0.999986 0.678562 0.002930
C59   C     C_1   0.499914 0.499998 0.821443 0.003038
C60   C     C_1   0.500172 0.499986 0.178562 0.002954
C61   C     C_1   0.999943 0.999994 0.363642 -0.202191
C62   C     C_1   0.000085 0.999988 0.636361 -0.202165
C63   C     C_1   0.499945 0.499994 0.863642 -0.202174
C64   C     C_1   0.500085 0.499988 0.136361 -0.202144
O17   O     O_R   0.500000 0.063090 0.964350 -0.602483
O18   O     O_R   0.500000 0.063090 0.035650 -0.602914
O19   O     O_R   0.000000 0.563090 0.464350 -0.602741
O20   O     O_R   0.000000 0.563090 0.535650 -0.602784
C65   C     C_R   0.500003 0.086704 0.000005 0.906404
C66   C     C_R   0.000001 0.586704 0.500005 0.906240
O21   O     O_R   0.406990 0.999940 0.964350 -0.618740
O22   O     O_R   0.593010 0.999940 0.035650 -0.630584
O23   O     O_R   0.593010 0.999940 0.964350 -0.620837
O24   O     O_R   0.406990 0.999940 0.035650 -0.623568
O25   O     O_R   0.906990 0.499940 0.464350 -0.618737
O26   O     O_R   0.093010 0.499940 0.535650 -0.630508
O27   O     O_R   0.093010 0.499940 0.464350 -0.620460
O28   O     O_R   0.906990 0.499940 0.535650 -0.623555
C67   C     C_R   0.377274 0.000256 0.999978 0.924152
C68   C     C_R   0.622756 0.000138 0.999988 0.922099
C69   C     C_R   0.877274 0.500258 0.499978 0.924153
C70   C     C_R   0.122753 0.500235 0.499994 0.921778
Zn5   Zn    Zn3+2 0.500000 0.999950 0.952390 0.962054
Zn6   Zn    Zn3+2 0.500000 0.999950 0.047610 0.947854
Zn7   Zn    Zn3+2 1.000000 0.499950 0.452390 0.962225
Zn8   Zn    Zn3+2 0.000000 0.499950 0.547610 0.948002
O29   O     O_R   0.500000 0.936790 0.964340 -0.597810
O30   O     O_R   0.500000 0.936790 0.035660 -0.603341
O31   O     O_R   0.000000 0.436790 0.464340 -0.597645
O32   O     O_R   0.000000 0.436790 0.535660 -0.603392
C71   C     C_R   0.500004 0.913188 0.999995 0.907150
C72   C     C_R   0.000007 0.413188 0.499995 0.907006
O33   O     O_R   0.052540 0.063140 0.500000 -0.592521
O34   O     O_R   0.947460 0.063140 0.500000 -0.592011
O35   O     O_R   0.552540 0.563140 0.000000 -0.592529
O36   O     O_R   0.447460 0.563140 0.000000 -0.592009
C73   C     C_R   0.000009 0.085661 0.500000 0.878841
C74   C     C_R   0.500008 0.585661 0.000000 0.878833
O37   O     O_R   0.052540 0.999990 0.436840 -0.592496
O38   O     O_R   0.947460 0.999990 0.563160 -0.592378
O39   O     O_R   0.947460 0.999990 0.436840 -0.592320
O40   O     O_R   0.052540 0.999990 0.563160 -0.592315
O41   O     O_R   0.552540 0.499990 0.936840 -0.592504
O42   O     O_R   0.447460 0.499990 0.063160 -0.592370
O43   O     O_R   0.447460 0.499990 0.936840 -0.592302
O44   O     O_R   0.552540 0.499990 0.063160 -0.592313
C75   C     C_R   0.999983 0.999990 0.414315 0.878848
C76   C     C_R   0.000020 0.999990 0.585686 0.878756
C77   C     C_R   0.499984 0.499990 0.914315 0.878838
C78   C     C_R   0.500020 0.499990 0.085686 0.878757
Zn9   Zn    Zn3+2 0.070140 0.999990 0.500000 0.968621
Zn10  Zn    Zn3+2 0.929860 0.999990 0.500000 0.968735
Zn11  Zn    Zn3+2 0.570140 0.499990 0.000000 0.968633
Zn12  Zn    Zn3+2 0.429860 0.499990 0.000000 0.968779
O45   O     O_R   0.052520 0.936840 0.500000 -0.592243
O46   O     O_R   0.947480 0.936840 0.500000 -0.592595
O47   O     O_R   0.552520 0.436840 0.000000 -0.592233
O48   O     O_R   0.447480 0.436840 0.000000 -0.592591
C79   C     C_R   0.999992 0.914307 0.500000 0.878890
C80   C     C_R   0.499991 0.414307 0.000000 0.878890
C81   C     C_1   0.499996 0.137377 0.000015 -0.225033
C82   C     C_1   0.999995 0.637378 0.500015 -0.224915
C83   C     C_1   0.499990 0.179577 0.000017 0.000675
C84   C     C_1   0.999988 0.679577 0.500017 0.000652
C85   C     C_1   0.499982 0.229403 0.000016 0.004947
C86   C     C_1   0.999981 0.729403 0.500015 0.004918
C87   C     C_1   0.999976 0.771603 0.500012 0.004517
C88   C     C_1   0.499977 0.271603 0.000012 0.004540
C89   C     C_1   0.999973 0.821429 0.500008 0.002858
C90   C     C_1   0.499974 0.321429 0.000008 0.002883
C91   C     C_1   0.999976 0.863630 0.500004 -0.202403
C92   C     C_1   0.499976 0.363630 0.000004 -0.202380
C93   C     C_1   0.500013 0.862528 0.999987 -0.224654
C94   C     C_1   0.000016 0.362528 0.499987 -0.224922
C95   C     C_1   0.500020 0.820336 0.999986 0.002610
C96   C     C_1   0.000024 0.320336 0.499986 0.002536
C97   C     C_1   0.500027 0.770524 0.999988 0.006697
C98   C     C_1   0.000030 0.270524 0.499988 0.006683
C99   C     C_1   0.000032 0.228332 0.499991 0.005743
C100  C     C_1   0.500030 0.728332 0.999991 0.005742
C101  C     C_1   0.000031 0.178518 0.499995 0.003562
C102  C     C_1   0.500030 0.678518 0.999994 0.003551
C103  C     C_1   0.000025 0.136325 0.499997 -0.201804
C104  C     C_1   0.500025 0.636324 0.999997 -0.201810
O49   O     O_3   0.206468 0.963701 0.920231 -0.605895
C105  C     C_3   0.182876 0.997827 0.890803 -0.308806
H21   H     H_    0.221603 0.018494 0.876073 0.163612
H22   H     H_    0.148457 0.020422 0.908276 0.145198
H23   H     H_    0.158233 0.980897 0.861948 0.201203
O50   O     O_3   0.797100 0.978069 0.083433 -0.618244
C106  C     C_3   0.749275 0.969776 0.115523 -0.306128
H24   H     H_    0.719636 0.940251 0.105058 0.159832
H25   H     H_    0.720041 0.000802 0.121002 0.160658
H26   H     H_    0.771124 0.960943 0.148845 0.198136
O51   O     O_3   0.706470 0.463513 0.420316 -0.605863
C107  C     C_3   0.682874 0.497568 0.390809 -0.308651
H27   H     H_    0.648457 0.520205 0.408231 0.145065
H28   H     H_    0.658227 0.480570 0.361997 0.201203
H29   H     H_    0.721599 0.518200 0.376027 0.163598
O52   O     O_3   0.296964 0.471835 0.581631 -0.617037
C108  C     C_3   0.249083 0.461157 0.612966 -0.306205
H30   H     H_    0.219442 0.432517 0.600277 0.159482
H31   H     H_    0.219862 0.491692 0.620751 0.160454
H32   H     H_    0.270873 0.449823 0.645542 0.198197

loop_
_geom_bond_atom_site_label_1
_geom_bond_atom_site_label_2
_geom_bond_distance
_ccdc_geom_bond_type
O35   C74   1.301692 A    
C43   C47   1.231699 T    
C23   C69   1.428086 S    
O33   C73   1.301690 A    
O50   C106  1.408128 S    
O25   C69   1.219041 A    
C22   C68   1.429233 S    
C108  H31   1.112198 S    
C108  H30   1.112252 S    
C65   C81   1.479193 S    
C59   C63   1.231765 T    
O33   Zn9   1.881538 S    
C60   C64   1.231807 T    
O38   C76   1.301815 A    
O34   C73   1.301659 A    
C98   C99   1.231617 T    
C66   C82   1.479193 S    
C95   C97   1.454071 S    
C31   H19   1.110236 S    
O7    C3    1.248215 A    
O37   C75   1.301729 A    
C13   C19   1.546523 S    
C16   C19   1.545995 S    
O26   C70   1.220026 A    
C17   H1    1.110208 S    
C14   C20   1.546660 S    
C83   C85   1.454448 S    
O22   Zn6   2.019439 S    
C47   C51   1.454227 S    
C27   C34   1.535644 S    
C55   C59   1.454270 S    
O41   Zn11  1.881425 S    
C9    C17   1.546510 S    
C54   C58   1.454332 S    
C25   H13   1.110247 S    
C23   C29   1.532429 S    
C14   C30   1.548904 S    
C4    C44   1.478818 S    
O21   C67   1.219048 A    
C57   C61   1.231765 T    
C64   C78   1.479175 S    
O18   C65   1.248211 A    
O42   C78   1.301815 A    
C62   C76   1.479175 S    
O5    Zn3   1.875302 S    
C15   C31   1.546452 S    
C26   C34   1.534587 S    
C11   C38   1.533000 S    
C19   C23   1.531721 S    
O16   C8    1.218693 A    
C29   H17   1.110245 S    
O52   C108  1.408169 S    
C20   C24   1.532627 S    
O23   Zn5   2.019073 S    
Zn9   O45   1.881394 S    
O4    C4    1.248095 A    
C74   C104  1.478921 S    
O38   Zn10  1.881422 S    
C20   H4    1.110319 S    
C82   C84   1.231845 T    
O24   C67   1.219560 A    
C16   H12   1.110178 S    
C16   C39   1.536934 S    
C36   C40   1.519540 S    
Zn6   O30   1.876314 S    
O31   C72   1.248273 A    
O24   Zn6   2.019074 S    
O11   C7    1.219996 A    
C88   C90   1.454468 S    
O12   C8    1.220468 A    
C11   H7    1.110291 S    
O1    Zn1   1.875709 S    
C32   H20   1.110105 S    
C10   C26   1.548856 S    
O9    Zn1   2.019577 S    
C107  H29   1.111204 S    
C35   O51   1.412161 S    
C81   C83   1.231845 T    
C21   C28   1.532585 S    
C100  C102  1.454101 S    
C50   C54   1.231745 T    
C9    C37   1.530141 S    
C22   C27   1.536483 S    
O46   C79   1.301500 A    
C52   C56   1.231745 T    
O12   Zn2   2.019791 S    
C33   O49   1.412163 S    
C14   H10   1.110264 S    
O39   C75   1.301724 A    
O45   C79   1.301461 A    
C106  H24   1.112242 S    
O13   Zn3   2.019997 S    
C32   C35   1.537236 S    
Zn10  O46   1.881622 S    
O1    C1    1.248095 A    
O19   Zn7   1.875792 S    
C87   C89   1.454468 S    
C46   C50   1.454221 S    
C101  C103  1.231655 T    
O22   C68   1.220202 A    
Zn8   O32   1.876314 S    
C45   C49   1.454230 S    
O15   C7    1.218191 A    
O11   Zn2   2.019577 S    
C19   H3    1.110207 S    
O16   Zn4   2.019787 S    
C3    C43   1.478933 S    
C42   C46   1.231645 T    
O21   Zn5   2.019441 S    
C71   C93   1.478790 S    
C49   C53   1.231719 T    
O13   C5    1.218197 A    
O7    Zn4   1.875302 S    
C9    H5    1.110178 S    
O28   C69   1.219568 A    
C24   C70   1.429137 S    
O40   Zn9   1.881815 S    
O32   C72   1.248229 A    
O27   C70   1.219160 A    
C106  H25   1.112195 S    
O5    C1    1.248209 A    
O40   C76   1.301677 A    
O37   Zn9   1.881425 S    
O23   C68   1.219023 A    
O36   Zn12  1.881311 S    
C28   C33   1.537250 S    
C29   C35   1.534599 S    
C53   C57   1.454270 S    
Zn5   O29   1.876483 S    
O6    Zn3   1.875135 S    
C18   C22   1.532806 S    
O41   C77   1.301726 A    
O8    C4    1.248153 A    
C97   C100  1.231617 T    
O34   Zn10  1.881311 S    
C23   C32   1.532587 S    
C80   C92   1.479310 S    
C24   C31   1.536603 S    
O9    C5    1.219992 A    
C48   C52   1.454221 S    
C12   C17   1.546003 S    
O15   Zn4   2.019997 S    
C8    C40   1.429775 S    
O20   C66   1.248215 A    
C93   C95   1.231611 T    
C79   C91   1.479307 S    
O43   Zn12  1.881818 S    
C107  H28   1.109257 S    
C9    C25   1.548259 S    
C15   C40   1.533231 S    
C85   C88   1.231845 T    
C28   H16   1.110104 S    
C15   H11   1.110334 S    
C86   C87   1.231845 T    
O8    Zn4   1.875135 S    
C108  H32   1.109287 S    
C24   C30   1.536321 S    
C12   C28   1.550666 S    
C105  H22   1.112365 S    
O2    C2    1.248095 A    
O30   C71   1.248231 A    
C27   H15   1.110214 S    
C26   H14   1.110232 S    
O36   C74   1.301657 A    
O27   Zn7   2.019073 S    
C22   C26   1.536303 S    
C11   C27   1.546580 S    
O42   Zn12  1.881422 S    
O17   C65   1.248190 A    
C31   C36   1.535543 S    
C61   C75   1.479107 S    
C21   C25   1.532432 S    
C102  C104  1.231658 T    
O14   C6    1.218829 A    
C30   H18   1.110268 S    
O3    Zn2   1.875709 S    
O14   Zn3   2.019787 S    
C44   C48   1.231648 T    
C25   C33   1.534598 S    
C107  H27   1.112368 S    
O25   Zn7   2.019441 S    
O6    C2    1.248153 A    
C72   C94   1.478790 S    
O4    Zn2   1.875881 S    
C21   C67   1.428088 S    
O44   C78   1.301677 A    
C12   C37   1.536933 S    
C73   C103  1.478924 S    
C30   C36   1.534699 S    
O47   C80   1.301461 A    
O17   Zn5   1.875792 S    
C56   C60   1.454329 S    
O35   Zn11  1.881538 S    
C11   C18   1.546793 S    
C10   H6    1.110245 S    
C36   O52   1.410621 S    
O20   Zn8   1.875961 S    
O10   C6    1.220292 A    
C105  H23   1.109260 S    
C84   C86   1.454448 S    
C15   C20   1.546744 S    
C106  H26   1.109275 S    
C17   C21   1.531726 S    
C58   C62   1.231804 T    
O48   C80   1.301500 A    
O49   C105  1.408869 S    
C12   H8    1.110180 S    
O44   Zn11  1.881815 S    
C90   C92   1.231886 T    
C33   C37   1.518728 S    
C34   O50   1.410570 S    
C96   C98   1.454071 S    
O19   C66   1.248189 A    
C94   C96   1.231611 T    
C2    C42   1.478821 S    
O2    Zn1   1.875881 S    
C35   C39   1.518725 S    
O10   Zn1   2.019791 S    
Zn11  O47   1.881394 S    
O29   C71   1.248274 A    
O3    C3    1.248092 A    
C63   C77   1.479104 S    
C14   C40   1.531635 S    
C51   C55   1.231719 T    
O51   C107  1.408869 S    
C18   H2    1.110301 S    
Zn7   O31   1.876483 S    
C10   C38   1.531680 S    
C34   C38   1.519505 S    
C7    C39   1.427986 S    
C13   C29   1.548254 S    
C13   C39   1.530137 S    
C5    C37   1.427983 S    
Zn12  O48   1.881622 S    
O43   C77   1.301728 A    
O26   Zn8   2.019439 S    
O28   Zn8   2.019074 S    
C10   C18   1.546406 S    
O18   Zn6   1.875961 S    
C105  H21   1.111206 S    
C16   C32   1.550663 S    
C13   H9    1.110177 S    
C6    C38   1.429693 S    
C41   C45   1.231696 T    
O39   Zn10  1.881818 S    
C1    C41   1.478933 S    
C99   C101  1.454103 S    
C89   C91   1.231886 T    
