data_mof_unit_67648.cif
_audit_creation_date              2013-03-05T16:35:26-0500
_audit_creation_method            fapswitch 2.2
_symmetry_space_group_name_H-M    P1
_symmetry_Int_Tables_number       1
_space_group_crystal_system       triclinic
_cell_length_a                    9.125462
_cell_length_b                    7.848461
_cell_length_c                    10.754327
_cell_angle_alpha                 86.024392
_cell_angle_beta                  89.03013
_cell_angle_gamma                 90.180093
_cell_volume                      768.263129652

loop_
_atom_site_label
_atom_site_type_symbol
_atom_site_description
_atom_site_fract_x
_atom_site_fract_y
_atom_site_fract_z
_atom_type_partial_charge
O1    O     O_R   0.288390 0.642760 0.500000 -0.578891
O2    O     O_R   0.711610 0.357240 0.500000 -0.572035
O3    O     O_R   0.711610 0.642760 0.500000 -0.606345
O4    O     O_R   0.288390 0.357240 0.500000 -0.598370
C1    C     C_R   0.220238 0.499948 0.499058 0.905970
C2    C     C_R   0.779790 0.500127 0.500253 0.860147
O5    O     O_R   0.499960 0.642760 0.316850 -0.585700
O6    O     O_R   0.500040 0.357240 0.683150 -0.565918
O7    O     O_R   0.500040 0.642760 0.683150 -0.578219
O8    O     O_R   0.499960 0.357240 0.316850 -0.574994
C3    C     C_R   0.499018 0.505678 0.258602 0.878386
C4    C     C_R   0.512739 0.494244 0.740209 0.894685
Cu1   Cu    Cu3+1 0.500000 0.669080 0.500000 0.966844
Cu2   Cu    Cu3+1 0.500000 0.330920 0.500000 0.969433
C5    C     C_3   0.436315 0.639207 0.020409 0.380279
C6    C     C_3   0.597027 0.362976 0.976406 0.375752
C7    C     C_3   0.581520 0.637204 0.943440 0.329641
C8    C     C_3   0.452421 0.360013 0.053933 0.289926
C9    C     C_3   0.378039 0.481833 0.955500 -0.231913
C10   C     C_3   0.652423 0.517527 0.044605 -0.214950
C11   C     C_3   0.522091 0.483940 0.876642 -0.299467
C12   C     C_3   0.507504 0.515551 0.121412 -0.295478
C13   C     C_1   0.065365 0.499888 0.499774 -0.208803
C14   C     C_1   0.934641 0.500255 0.500487 -0.202759
N1    N     N_1   0.500000 0.076820 0.500000 -0.100618
N2    N     N_1   0.500000 0.923180 0.500000 -0.083353
C15   C     C_2   0.225270 0.451951 0.909836 0.797250
O9    O     O_2   0.120466 0.462247 0.981062 -0.616184
O10   O     O_R   0.202331 0.421120 0.785574 -0.776192
H1    H     H_    0.094613 0.407032 0.766856 0.314632
C16   C     C_2   0.798768 0.553191 0.103365 0.893176
O11   O     O_2   0.874548 0.673520 0.062627 -0.614131
O12   O     O_R   0.844163 0.456683 0.209295 -0.806661
H2    H     H_    0.944862 0.491603 0.237026 0.332184
O13   O     O_3   0.365376 0.791758 0.051079 -0.604766
C17   C     C_3   0.269570 0.856909 0.956616 0.100217
H3    H     H_    0.183074 0.930411 0.002367 0.163885
H4    H     H_    0.208720 0.758639 0.911131 0.161691
C18   C     C_3   0.346506 0.976324 0.856860 -0.366988
H5    H     H_    0.385607 0.092834 0.898156 0.256036
H6    H     H_    0.440588 0.912520 0.815111 0.279676
C19   C     C_3   0.243517 0.028666 0.751266 -0.850513
H7    H     H_    0.216079 0.916335 0.698781 0.251563
H8    H     H_    0.297973 0.124465 0.685761 0.314016
H9    H     H_    0.142415 0.085852 0.788518 0.255186
O14   O     O_3   0.694011 0.232380 0.943345 -0.631720
C20   C     C_3   0.687737 0.086684 0.028608 0.112236
H10   H     H_    0.765075 0.993299 0.994223 0.224738
H11   H     H_    0.578931 0.024583 0.030294 0.237664
C21   C     C_3   0.740708 0.118914 0.158798 -0.389564
H12   H     H_    0.858429 0.153352 0.152515 0.244235
H13   H     H_    0.679102 0.223663 0.195800 0.294042
C22   C     C_3   0.715708 0.965574 0.251000 -0.770962
H14   H     H_    0.597236 0.934100 0.256057 0.287622
H15   H     H_    0.752122 0.996984 0.344722 0.255221
H16   H     H_    0.778526 0.854049 0.223418 0.266126
O15   O     O_3   0.657975 0.776923 0.880800 -0.611221
C23   C     C_3   0.779263 0.720808 0.808836 0.133368
H17   H     H_    0.744575 0.678664 0.719317 0.149025
H18   H     H_    0.838245 0.610146 0.853619 0.146221
C24   C     C_3   0.888716 0.865272 0.777114 -0.388628
H19   H     H_    0.934352 0.912177 0.863253 0.226855
H20   H     H_    0.981015 0.812515 0.723545 0.175952
C25   C     C_3   0.821006 0.012110 0.696956 -0.670160
H21   H     H_    0.791637 0.968299 0.604577 0.239352
H22   H     H_    0.901216 0.118507 0.682123 0.219842
H23   H     H_    0.721044 0.060556 0.742581 0.295426
O16   O     O_3   0.400736 0.203908 0.113090 -0.623411
C26   C     C_3   0.258085 0.214237 0.164106 0.118820
H24   H     H_    0.177924 0.186494 0.091913 0.175998
H25   H     H_    0.233865 0.341385 0.199615 0.141289
C27   C     C_3   0.243055 0.076946 0.271944 -0.309920
H26   H     H_    0.297574 0.957240 0.247237 0.270509
H27   H     H_    0.298002 0.122377 0.353605 0.254145
C28   C     C_3   0.084621 0.036207 0.308585 -0.928281
H28   H     H_    0.024079 0.154994 0.326132 0.274809
H29   H     H_    0.080872 0.950185 0.395091 0.270898
H30   H     H_    0.032757 0.968723 0.233383 0.272145

loop_
_geom_bond_atom_site_label_1
_geom_bond_atom_site_label_2
_geom_bond_distance
_ccdc_geom_bond_type
C6    C11   1.551688 S    
C15   O10   1.393624 S    
O13   C17   1.420812 S    
O3    C2    1.282299 A    
C20   H11   1.104029 S    
C22   H14   1.107814 S    
C5    C9    1.556803 S    
O1    C1    1.280860 A    
C17   H3    1.107682 S    
C9    C11   1.551676 S    
C26   H24   1.107671 S    
C23   H18   1.108919 S    
C7    C10   1.539639 S    
C26   H25   1.114400 S    
C8    C9    1.543861 S    
C24   H20   1.109776 S    
O7    Cu1   1.966168 S    
C5    C12   1.557399 S    
C20   H10   1.097263 S    
O16   C26   1.408835 S    
C21   H13   1.091309 S    
C13   C14   1.192819 T    
C16   O12   1.393337 S    
C18   C19   1.521667 S    
C9    C15   1.508892 S    
O3    Cu1   1.942701 S    
C6    C10   1.548186 S    
C23   C24   1.525534 S    
Cu1   Cu2   2.654036 S    
O2    C2    1.280953 A    
C19   H8    1.104938 S    
C27   C28   1.519254 S    
C5    O13   1.419070 S    
O7    C4    1.285583 A    
C21   H12   1.106724 S    
C20   C21   1.526176 S    
C22   H15   1.110125 S    
C21   C22   1.519464 S    
C25   H23   1.109208 S    
C27   H27   1.098639 S    
O8    Cu2   1.966170 S    
C6    O14   1.416272 S    
C18   H5    1.104691 S    
O4    C1    1.282339 A    
C23   H17   1.090982 S    
C4    C11   1.467806 S    
C7    C11   1.544670 S    
C19   H9    1.108227 S    
C25   H22   1.110073 S    
C24   C25   1.528978 S    
O5    C3    1.282016 A    
C28   H28   1.110907 S    
O10   H1    1.013954 S    
C16   O11   1.220779 D    
C1    C13   1.413180 S    
O6    C4    1.280347 A    
C2    C14   1.413129 S    
O12   H2    1.013661 S    
C28   H29   1.110929 S    
C10   C12   1.546781 S    
Cu1   N2    1.994293 S    
O1    Cu1   1.941412 S    
C19   H7    1.109479 S    
C26   C27   1.531423 S    
C22   H16   1.102781 S    
C5    C7    1.551131 S    
O14   C20   1.415646 S    
O6    Cu2   1.994656 S    
C8    C12   1.549457 S    
C17   C18   1.534001 S    
C27   H26   1.110799 S    
C3    C12   1.472753 S    
C25   H21   1.110345 S    
C17   H4    1.096038 S    
N1    N2    1.205838 T    
O15   C23   1.428036 S    
Cu2   N1    1.994293 S    
O4    Cu2   1.942703 S    
C24   H19   1.107469 S    
O2    Cu2   1.941410 S    
C28   H30   1.108766 S    
O8    C3    1.284045 A    
O5    Cu1   1.994658 S    
C18   H6    1.100125 S    
C6    C8    1.548191 S    
C15   O9    1.221560 D    
C8    O16   1.416476 S    
C7    O15   1.421235 S    
C10   C16   1.520494 S    
