data_mof_unit_33563.cif
_audit_creation_date              2012-12-10T17:11:04-0500
_audit_creation_method            fapswitch 2.2
_symmetry_space_group_name_H-M    P1
_symmetry_Int_Tables_number       1
_space_group_crystal_system       triclinic
_cell_length_a                    11.680369
_cell_length_b                    13.024543
_cell_length_c                    13.493813
_cell_angle_alpha                 92.040887
_cell_angle_beta                  76.699215
_cell_angle_gamma                 99.68489
_cell_volume                      1969.28513357

loop_
_atom_site_label
_atom_site_type_symbol
_atom_type_description
_atom_site_fract_x
_atom_site_fract_y
_atom_site_fract_z
_atom_type_partial_charge
C1    C     C_R   0.520639 0.700666 0.501702 0.825442
C2    C     C_R   0.455679 0.506151 0.972752 -0.064491
C3    C     C_R   0.483266 0.476303 0.868695 0.044125
C4    C     C_R   0.542373 0.501764 0.030744 0.132675
C5    C     C_R   0.659684 0.488372 0.981544 0.030347
C6    C     C_R   0.684030 0.457933 0.880383 -0.147898
C7    C     C_R   0.593934 0.443134 0.827908 -0.085420
C8    C     C_R   0.512989 0.499401 0.136924 -0.236557
C9    C     C_R   0.720269 0.506729 0.141831 0.682527
C10   C     C_R   0.399979 0.481631 0.808062 -0.155523
C11   C     C_R   0.468548 0.185692 0.497988 -0.166411
C12   C     C_R   0.436334 0.488838 0.695726 0.831398
C13   C     C_R   0.532185 0.813718 0.503837 -0.050663
C14   C     C_R   0.647662 0.982568 0.522977 -0.127251
C15   C     C_R   0.637158 0.874882 0.519950 -0.171772
C16   C     C_R   0.437627 0.860981 0.490458 -0.197262
C17   C     C_R   0.447520 0.968867 0.493167 0.089579
C18   C     C_R   0.553337 0.030300 0.509665 0.047100
C19   C     C_R   0.563282 0.138327 0.512418 0.562006
C20   C     C_R   0.363696 0.123951 0.481941 -0.262296
C21   C     C_R   0.353215 0.016112 0.479624 -0.176691
C22   C     C_R   0.944519 0.593278 0.597884 -0.395158
C23   C     C_R   0.479386 0.299132 0.498849 0.835506
C24   C     C_R   0.826031 0.585028 0.588337 0.708478
C25   C     C_R   0.858093 0.459916 0.457072 0.755576
C26   C     C_R   0.978411 0.466064 0.463930 -0.063555
C27   C     C_R   0.021805 0.533641 0.535504 -0.109447
C28   C     C_R   0.141801 0.539860 0.542651 0.094048
C29   C     C_R   0.174714 0.415203 0.411417 0.098041
C30   C     C_R   0.056329 0.406601 0.401469 -0.141979
C31   C     C_R   0.563570 0.503866 0.304308 0.860471
C32   C     C_R   0.748617 0.496142 0.036546 -0.206757
C33   C     C_R   0.600703 0.504295 0.193041 -0.226328
C34   C     C_R   0.282633 0.489847 0.856144 -0.323482
C35   C     C_R   0.252393 0.513386 0.959368 0.364602
C36   C     C_R   0.343273 0.539174 0.013409 0.282389
Cu1   Cu    Cu3+1 0.386470 0.492430 0.492410 0.959664
Cu2   Cu    Cu3+1 0.613530 0.507570 0.507590 1.103230
H1    H     H_    0.289819 0.158942 0.470655 0.189511
H2    H     H_    0.729589 0.028071 0.535678 0.201063
H3    H     H_    0.271679 0.969758 0.466951 0.164417
H4    H     H_    0.711089 0.839618 0.530680 0.194908
H5    H     H_    0.356329 0.814060 0.477781 0.157041
H6    H     H_    0.176215 0.591712 0.597354 0.126917
H7    H     H_    0.233993 0.369143 0.362982 0.131019
H8    H     H_    0.975478 0.646075 0.653610 0.196108
H9    H     H_    0.026382 0.353842 0.345312 0.207408
H10   H     H_    0.770450 0.438236 0.843969 0.142506
H11   H     H_    0.839185 0.491075 0.998081 0.219470
H12   H     H_    0.420581 0.488721 0.176299 0.227676
H13   H     H_    0.215104 0.483320 0.812068 0.183267
H14   H     H_    0.612747 0.403748 0.755726 0.165088
N1    N     N_R   0.215880 0.481050 0.481000 -0.192380
N2    N     N_R   0.784100 0.518950 0.519000 -0.298273
O1    O     O_R   0.419710 0.645650 0.494620 -0.600952
O2    O     O_R   0.611450 0.658430 0.507430 -0.545036
O3    O     O_R   0.357340 0.490460 0.641450 -0.598074
O4    O     O_R   0.549080 0.503250 0.654260 -0.552201
O5    O     O_R   0.388550 0.341570 0.492570 -0.617247
O6    O     O_R   0.580290 0.354350 0.505380 -0.490072
O7    O     O_R   0.450920 0.496750 0.345740 -0.596002
O8    O     O_R   0.642660 0.509540 0.358550 -0.487532
F1    F     F_    0.808391 0.512855 0.193147 -0.559952
F2    F     F_    0.753137 0.643888 0.648935 -0.635017
F3    F     F_    0.815080 0.394820 0.388576 -0.579016
S1    S     S_3+6 0.328190 0.640108 0.106745 0.047912
O9    O     O_2   0.448643 0.700028 0.111480 -0.284738
O10   O     O_2   0.255367 0.714385 0.078366 -0.199466
O11   O     O_3   0.258978 0.589535 0.222273 -0.524218
H15   H     H_    0.261678 0.649275 0.269801 0.375697
S2    S     S_3+6 0.099660 0.510369 0.016101 0.080299
O12   O     O_2   0.076064 0.504063 0.130093 -0.133998
O13   O     O_2   0.059990 0.606534 0.986476 -0.262032
O14   O     O_3   0.021296 0.404209 0.973866 -0.526188
H16   H     H_    0.014870 0.422958 0.905096 0.323747
F4    F     F_    0.665110 0.196490 0.529472 -0.649921

loop_
_geom_bond_atom_site_label_1
_geom_bond_atom_site_label_2
_ccdc_geom_bond_type
S1    O10   D    
C31   O7    A    
C35   C36   A    
C4    C8    A    
C23   O5    A    
C11   C19   A    
C34   H13   S    
C29   C30   A    
C6    H10   S    
C19   F4    S    
C1    O2    A    
C7    H14   S    
C18   C19   A    
C3    C7    A    
C5    C6    A    
C36   S1    S    
S1    O11   S    
C24   N2    A    
C34   C35   A    
C14   C18   A    
C9    C32   A    
Cu2   O4    S    
C16   C17   A    
C31   C33   S    
C5    C32   A    
C12   O4    A    
S1    O9    D    
C35   S2    S    
C24   F2    S    
C9    C33   A    
C31   O8    A    
C23   O6    A    
C11   C20   A    
O14   H16   S    
C30   H9    S    
C25   F3    S    
C25   N2    A    
S2    O13   D    
C20   H1    S    
C25   C26   A    
C28   H6    S    
C17   C21   A    
C29   H7    S    
C2    C4    A    
Cu1   Cu2   S    
Cu2   N2    S    
C17   C18   A    
C26   C27   A    
C10   C34   A    
C16   H5    S    
Cu1   O5    S    
C10   C12   S    
Cu2   O6    S    
C12   O3    A    
C22   H8    S    
C26   C30   A    
C22   C27   A    
C13   C15   A    
C21   H3    S    
C1    C13   S    
C8    H12   S    
C2    C36   A    
C9    F1    S    
C15   H4    S    
C4    C5    A    
S2    O14   S    
Cu1   O7    S    
C28   N1    A    
C6    C7    A    
C2    C3    A    
C1    O1    A    
Cu1   N1    S    
S2    O12   D    
C3    C10   A    
C29   N1    A    
C11   C23   S    
C22   C24   A    
C8    C33   A    
O11   H15   S    
C32   H11   S    
C14   H2    S    
Cu1   O1    S    
Cu2   O2    S    
C20   C21   A    
C13   C16   A    
C27   C28   A    
C14   C15   A    
Cu1   O3    S    
Cu2   O8    S    
