data_mof_unit_48377.cif
_audit_creation_date              2012-12-11T14:08:02-0500
_audit_creation_method            fapswitch 2.2
_symmetry_space_group_name_H-M    P1
_symmetry_Int_Tables_number       1
_space_group_crystal_system       triclinic
_cell_length_a                    10.946176
_cell_length_b                    10.960609
_cell_length_c                    18.726112
_cell_angle_alpha                 90.352774
_cell_angle_beta                  89.562276
_cell_angle_gamma                 60.153979
_cell_volume                      1948.52425003

loop_
_atom_site_label
_atom_site_type_symbol
_atom_type_description
_atom_site_fract_x
_atom_site_fract_y
_atom_site_fract_z
_atom_type_partial_charge
C1    C     C_R   0.235897 0.646098 0.608615 0.541806
C2    C     C_2   0.782252 0.152772 0.706309 -0.182021
C3    C     C_2   0.178466 0.665274 0.680800 -0.132176
C4    C     C_R   0.652132 0.619687 0.602789 0.547212
C5    C     C_2   0.191716 0.662721 0.838356 -0.121321
C6    C     C_2   0.181458 0.566451 0.798151 -0.174751
C7    C     C_2   0.211540 0.552625 0.721419 -0.181843
C8    C     C_2   0.661261 0.649987 0.321341 -0.090687
C9    C     C_2   0.627035 0.672244 0.159757 0.015277
C10   C     C_2   0.705481 0.558439 0.199358 -0.147950
C11   C     C_2   0.675900 0.550755 0.274091 -0.145811
C12   C     C_3   0.811425 0.521384 0.787499 -0.239484
C13   C     C_2   0.675462 0.137439 0.333557 -0.112151
C14   C     C_2   0.654832 0.142493 0.179708 -0.113769
C15   C     C_2   0.614656 0.070322 0.222433 -0.166278
C16   C     C_R   0.627856 0.227998 0.601979 0.542865
C17   C     C_2   0.595656 0.097260 0.298596 -0.170950
C18   C     C_2   0.107769 0.689981 0.352017 -0.117918
C19   C     C_2   0.119695 0.680792 0.189798 0.020932
C20   C     C_2   0.045089 0.791809 0.234802 -0.153496
C21   C     C_2   0.081733 0.795071 0.308674 -0.177699
C22   C     C_R   0.703797 0.101453 0.897418 0.546510
C23   C     C_3   0.700791 0.670724 0.813678 0.051918
C24   C     C_R   0.723178 0.686733 0.889118 0.545632
C25   C     C_R   0.118566 0.706383 0.907148 0.546921
C26   C     C_R   0.676069 0.104285 0.105379 0.546371
C27   C     C_R   0.691579 0.690145 0.095138 0.554453
C28   C     C_R   0.210796 0.654027 0.407464 0.549243
C29   C     C_R   0.087550 0.711768 0.114942 0.564689
C30   C     C_R   0.645058 0.624026 0.394947 0.537780
C31   C     C_R   0.621300 0.223022 0.397294 0.550021
C32   C     C_3   0.551852 0.693847 0.800905 -0.263481
C33   C     C_3   0.534234 0.676941 0.720680 -0.239791
C34   C     C_3   0.670692 0.645119 0.677989 0.075292
C35   C     C_3   0.721626 0.780551 0.770366 -0.212727
C36   C     C_3   0.820527 0.765654 0.644368 -0.295405
C37   C     C_3   0.780707 0.816405 0.567578 -0.427825
C38   C     C_3   0.481316 0.790777 0.183385 -0.276517
C39   C     C_3   0.375742 0.740074 0.188920 -0.420591
C40   C     C_3   0.220421 0.530992 0.214052 -0.287830
C41   C     C_3   0.309390 0.428674 0.154362 -0.428289
C42   C     C_3   0.697683 0.770890 0.689368 -0.112062
C43   C     C_3   0.793915 0.506358 0.708911 -0.227103
C44   C     C_2   0.674322 0.156834 0.670562 -0.124521
C45   C     C_2   0.690038 0.165511 0.827647 -0.122201
C46   C     C_2   0.801401 0.119302 0.782943 -0.181119
Cr1   Cr    Cr6+3 0.393010 0.398050 0.501480 1.009300
Cr2   Cr    Cr6+3 0.398820 0.707980 0.501630 1.008456
Cr3   Cr    Cr6+3 0.708140 0.393940 0.496850 1.005921
Cr4   Cr    Cr6+3 0.937950 0.938450 0.008940 1.011586
Cr5   Cr    Cr6+3 0.626180 0.937030 0.994750 1.002810
Cr6   Cr    Cr6+3 0.937790 0.625760 0.001410 1.004919
H1    H     H_    0.470731 0.801011 0.819302 0.128366
H2    H     H_    0.535657 0.616342 0.831670 0.116340
H3    H     H_    0.125467 0.770708 0.703856 0.103069
H4    H     H_    0.802646 0.470755 0.178406 0.141773
H5    H     H_    0.679029 0.454763 0.291602 0.144412
H6    H     H_    0.666068 0.743065 0.306429 0.084497
H7    H     H_    0.970737 0.894412 0.213621 0.149494
H8    H     H_    0.072970 0.615588 0.339043 0.109251
H9    H     H_    0.441837 0.775081 0.701296 0.135651
H10   H     H_    0.646724 0.889232 0.789666 0.130603
H11   H     H_    0.599698 0.869353 0.675120 0.132375
H12   H     H_    0.895333 0.474366 0.680629 0.129058
H13   H     H_    0.920366 0.501647 0.795980 0.135734
H14   H     H_    0.799648 0.440306 0.817579 0.132973
H15   H     H_    0.770901 0.419064 0.701645 0.140113
H16   H     H_    0.772271 0.737415 0.534060 0.168133
H17   H     H_    0.679968 0.917861 0.566422 0.154636
H18   H     H_    0.864353 0.832866 0.543456 0.142130
H19   H     H_    0.853150 0.836993 0.669536 0.152651
H20   H     H_    0.914331 0.658854 0.643787 0.161336
H21   H     H_    0.261633 0.447321 0.698328 0.157471
H22   H     H_    0.371971 0.690804 0.137632 0.159304
H23   H     H_    0.829527 0.762618 0.780478 0.123245
H24   H     H_    0.403836 0.663756 0.232827 0.166152
H25   H     H_    0.270236 0.831777 0.200607 0.154167
H26   H     H_    0.484427 0.839440 0.234678 0.131831
H27   H     H_    0.437564 0.878683 0.144924 0.163034
H28   H     H_    0.586103 0.996063 0.200481 0.148068
H29   H     H_    0.504728 0.099489 0.323699 0.152311
H30   H     H_    0.683483 0.217803 0.199978 0.085942
H31   H     H_    0.771142 0.126464 0.309392 0.101027
H32   H     H_    0.510483 0.590098 0.712615 0.129399
H33   H     H_    0.108767 0.874867 0.323044 0.153869
H34   H     H_    0.907792 0.052721 0.802029 0.150559
H35   H     H_    0.243074 0.410599 0.116101 0.176422
H36   H     H_    0.372748 0.467104 0.125819 0.140545
H37   H     H_    0.381276 0.325880 0.178416 0.156371
H38   H     H_    0.294880 0.531587 0.253700 0.154139
H39   H     H_    0.158405 0.487672 0.239477 0.148490
H40   H     H_    0.856026 0.176984 0.679795 0.144894
H41   H     H_    0.584137 0.232874 0.808049 0.109135
H42   H     H_    0.606876 0.123358 0.696509 0.105103
H43   H     H_    0.144543 0.499524 0.820873 0.148793
H44   H     H_    0.234213 0.725229 0.815814 0.102795
O1    O     O_R   0.507110 0.256280 0.580300 -0.526062
O2    O     O_R   0.837080 0.593860 0.915300 -0.530807
O3    O     O_R   0.064770 0.636080 0.932550 -0.501337
O4    O     O_R   0.280830 0.527190 0.577940 -0.500880
O5    O     O_R   0.068250 0.829200 0.092940 -0.531768
O6    O     O_R   0.799650 0.057040 0.080330 -0.500304
O7    O     O_R   0.586130 0.079760 0.077080 -0.519718
O8    O     O_R   0.627700 0.809630 0.066580 -0.512010
O9    O     O_R   0.816140 0.597180 0.075920 -0.520582
O10   O     O_R   0.045360 0.639170 0.081440 -0.498251
O11   O     O_3   0.833980 0.833750 0.001700 -0.248196
O12   O     O_R   0.524640 0.695370 0.425100 -0.492945
O13   O     O_R   0.261360 0.738990 0.584270 -0.523265
O14   O     O_R   0.532590 0.694780 0.574370 -0.512827
O15   O     O_R   0.744470 0.503750 0.577000 -0.535158
O16   O     O_R   0.698520 0.277230 0.571620 -0.499931
O17   O     O_R   0.498530 0.256920 0.419280 -0.513017
O18   O     O_R   0.272880 0.527780 0.428680 -0.500660
O19   O     O_R   0.252780 0.739630 0.423250 -0.513227
O20   O     O_R   0.735890 0.504390 0.415980 -0.514426
O21   O     O_R   0.690560 0.277820 0.422350 -0.505231
O22   O     O_3   0.499990 0.499990 0.499980 -0.244542
O23   O     O_R   0.089190 0.825870 0.932320 -0.519365
O24   O     O_R   0.819070 0.053960 0.931440 -0.493571
O25   O     O_R   0.607070 0.076440 0.916460 -0.520747
O26   O     O_R   0.647110 0.806550 0.917690 -0.508982

loop_
_geom_bond_atom_site_label_1
_geom_bond_atom_site_label_2
_ccdc_geom_bond_type
Cr1   O18   S    
C41   H37   S    
C37   H17   S    
C18   C21   D    
Cr2   O14   S    
C19   C20   D    
C34   C42   S    
C45   H41   S    
C7    H21   S    
C30   O20   A    
C45   C46   D    
C2    C46   S    
C22   O24   A    
C12   C23   S    
C35   H23   S    
C24   O2    A    
C39   H25   S    
C36   C37   S    
C12   C43   S    
C3    C7    D    
C38   C39   S    
C16   O1    A    
C38   H27   S    
C27   O9    A    
Cr5   O7    S    
C37   H16   S    
C27   O8    A    
C15   C17   S    
C39   H22   S    
C35   C42   S    
C31   O21   A    
C8    H6    S    
C3    H3    S    
C25   O3    A    
Cr1   O22   S    
Cr3   O21   S    
Cr3   O22   S    
Cr6   O11   S    
C2    C44   D    
C23   C24   S    
C10   H4    S    
C9    C10   D    
C16   C44   S    
C36   H19   S    
Cr3   O15   S    
C1    O13   A    
Cr2   O13   S    
Cr6   O10   S    
C37   H18   S    
Cr5   O11   S    
C25   O23   A    
C1    O4    A    
C32   H2    S    
C43   H12   S    
C4    C34   S    
C41   H35   S    
C21   H33   S    
Cr4   O23   S    
C18   C28   S    
C10   C11   S    
Cr2   O22   S    
C38   H26   S    
Cr5   O8    S    
C12   H14   S    
Cr1   O4    S    
C1    C3    S    
C28   O19   A    
C26   O7    A    
C15   H28   S    
C9    C27   S    
Cr3   O20   S    
C24   O26   A    
C33   C34   S    
C29   O5    A    
C39   H24   S    
C14   C26   S    
C20   H7    S    
C2    H40   S    
Cr2   O12   S    
C28   O18   A    
Cr2   O19   S    
C5    C25   S    
C33   H9    S    
C40   C41   S    
C4    O15   A    
Cr6   O9    S    
Cr4   O6    S    
C23   C35   S    
Cr3   O16   S    
Cr4   O11   S    
Cr5   O25   S    
Cr4   O24   S    
C29   O10   A    
C14   H30   S    
C19   C29   S    
C32   H1    S    
C5    H44   S    
C16   O16   A    
C22   O25   A    
C18   H8    S    
Cr1   O17   S    
C41   H36   S    
C4    O14   A    
C30   O12   A    
C13   C31   S    
C34   C43   S    
C36   C42   S    
C6    C7    S    
C12   H13   S    
C13   H31   S    
Cr6   O3    S    
Cr1   O1    S    
C13   C17   D    
C8    C30   S    
C23   C32   S    
C32   C33   S    
C5    C6    D    
C8    C11   D    
Cr6   O2    S    
C9    C38   S    
C35   H10   S    
C17   H29   S    
C40   H39   S    
C33   H32   S    
C44   H42   S    
C19   C40   S    
C22   C45   S    
C20   C21   S    
Cr4   O5    S    
C43   H15   S    
C6    H43   S    
Cr5   O26   S    
C14   C15   D    
C40   H38   S    
C11   H5    S    
C42   H11   S    
C31   O17   A    
C26   O6    A    
C36   H20   S    
C46   H34   S    
