data_mof_unit_66335.cif
_audit_creation_date              2012-12-10T18:13:20-0500
_audit_creation_method            fapswitch 2.2
_symmetry_space_group_name_H-M    P1
_symmetry_Int_Tables_number       1
_space_group_crystal_system       triclinic
_cell_length_a                    36.12394
_cell_length_b                    29.171912
_cell_length_c                    21.570749
_cell_angle_alpha                 90.1443
_cell_angle_beta                  126.196361
_cell_angle_gamma                 89.918935
_cell_volume                      18344.0918216

loop_
_atom_site_label
_atom_site_type_symbol
_atom_type_description
_atom_site_fract_x
_atom_site_fract_y
_atom_site_fract_z
_atom_type_partial_charge
C1    C     C_R   0.913243 0.999996 0.913260 0.898754
C2    C     C_R   0.086756 0.000001 0.086741 0.911001
C3    C     C_R   0.413243 0.499997 0.913260 0.898754
C4    C     C_R   0.586756 0.500001 0.086741 0.911001
C5    C     C_1   0.820358 0.999984 0.820015 0.010248
C6    C     C_1   0.179641 0.000000 0.179996 0.028729
C7    C     C_1   0.320358 0.499984 0.820015 0.010247
C8    C     C_1   0.679641 0.500000 0.179996 0.028729
C9    C     C_1   0.770530 0.999984 0.769990 0.016714
C10   C     C_1   0.229468 0.999998 0.230021 0.030305
C11   C     C_1   0.270530 0.499984 0.769990 0.016714
C12   C     C_1   0.729468 0.499998 0.230021 0.030305
C13   C     C_1   0.728315 0.999986 0.727647 0.016413
C14   C     C_1   0.271684 0.999998 0.272363 0.025512
C15   C     C_1   0.228315 0.499986 0.727647 0.016413
C16   C     C_1   0.771684 0.499998 0.272363 0.025512
C17   C     C_1   0.678485 0.999990 0.677754 0.013612
C18   C     C_1   0.321514 0.999998 0.322251 0.019345
C19   C     C_1   0.178485 0.499990 0.677754 0.013612
C20   C     C_1   0.821514 0.499998 0.322251 0.019345
C21   C     C_1   0.636266 0.999995 0.635625 -0.188996
C22   C     C_1   0.363733 0.999999 0.364376 -0.185464
C23   C     C_1   0.136267 0.499995 0.635625 -0.188996
C24   C     C_1   0.863733 0.499999 0.364376 -0.185464
C25   C     C_R   0.000006 0.913250 0.499019 0.974151
C26   C     C_R   1.000000 0.086751 0.500122 0.934258
C27   C     C_R   0.500006 0.413250 0.499019 0.974151
C28   C     C_R   0.500000 0.586751 0.500122 0.934258
C29   C     C_R   0.999842 0.993348 0.621582 0.978799
C30   C     C_R   0.000532 0.997307 0.378025 0.920350
C31   C     C_R   0.499842 0.493348 0.621582 0.978798
C32   C     C_R   0.500532 0.497307 0.378025 0.920350
C33   C     C_R   0.500002 0.085601 0.500069 0.874423
C34   C     C_R   0.500004 0.914400 0.499931 0.873804
C35   C     C_R   0.000002 0.585601 0.500069 0.874423
C36   C     C_R   0.000004 0.414400 0.499931 0.873804
C37   C     C_R   0.585586 0.999999 0.585356 0.874312
C38   C     C_R   0.414414 0.999999 0.414644 0.874737
C39   C     C_R   0.085586 0.499999 0.585356 0.874312
C40   C     C_R   0.914414 0.500000 0.414644 0.874737
C41   C     C_1   0.000010 0.862578 0.499330 -0.100234
C42   C     C_1   0.000020 0.137421 0.499895 -0.177362
C43   C     C_1   0.500010 0.362578 0.499330 -0.100233
C44   C     C_1   0.500020 0.637421 0.499895 -0.177362
C45   C     C_R   0.999889 0.999937 0.877335 0.905435
C46   C     C_R   0.998946 0.000156 0.121341 0.917771
C47   C     C_R   0.499889 0.499937 0.877335 0.905435
C48   C     C_R   0.498946 0.500156 0.121341 0.917771
C49   C     C_1   0.000019 0.820375 0.499621 0.053339
C50   C     C_1   0.000042 0.179628 0.499761 0.024183
C51   C     C_1   0.500019 0.320375 0.499621 0.053339
C52   C     C_1   0.500042 0.679628 0.499761 0.024183
C53   C     C_1   0.000024 0.770547 0.499897 0.039753
C54   C     C_1   0.000053 0.229458 0.499686 0.022051
C55   C     C_1   0.500024 0.270547 0.499897 0.039754
C56   C     C_1   0.500053 0.729457 0.499686 0.022051
C57   C     C_1   0.500022 0.228336 0.500059 0.031587
C58   C     C_1   0.500049 0.771669 0.499678 0.019426
C59   C     C_1   0.000022 0.728336 0.500059 0.031587
C60   C     C_1   0.000049 0.271669 0.499678 0.019426
C61   C     C_1   0.500016 0.178501 0.500170 0.021070
C62   C     C_1   0.500034 0.821502 0.499720 0.014911
C63   C     C_1   0.000016 0.678501 0.500170 0.021069
C64   C     C_1   0.000035 0.321502 0.499720 0.014911
C65   C     C_1   0.500009 0.136287 0.500185 -0.185020
C66   C     C_1   0.500020 0.863716 0.499793 -0.188556
C67   C     C_1   0.000009 0.636287 0.500185 -0.185020
C68   C     C_1   0.000020 0.363716 0.499793 -0.188556
C69   C     C_3   0.041388 0.970127 0.828771 -0.418176
C70   C     C_3   0.998358 0.050115 0.213492 -0.403496
C71   C     C_3   0.044218 0.976648 0.255635 -0.436433
C72   C     C_3   0.955088 0.974899 0.743653 -0.486130
C73   C     C_3   0.541388 0.470127 0.828771 -0.418175
C74   C     C_3   0.498358 0.550115 0.213492 -0.403497
C75   C     C_3   0.544218 0.476648 0.255635 -0.436432
C76   C     C_3   0.455088 0.474899 0.743653 -0.486133
C77   C     C_3   0.045432 0.972543 0.761847 0.259357
C78   C     C_3   0.003487 0.049756 0.289601 0.297213
C79   C     C_3   0.040387 0.966501 0.321221 0.318485
C80   C     C_3   0.954985 0.970392 0.672329 0.270423
C81   C     C_3   0.545432 0.472544 0.761847 0.259352
C82   C     C_3   0.503487 0.549756 0.289601 0.297214
C83   C     C_3   0.540387 0.466501 0.321221 0.318486
C84   C     C_3   0.454985 0.470391 0.672329 0.270421
C85   C     C_3   0.001732 0.047517 0.783197 -0.388241
C86   C     C_3   0.956860 0.974586 0.171602 -0.430215
C87   C     C_3   0.501731 0.547517 0.783197 -0.388243
C88   C     C_3   0.456860 0.474586 0.171602 -0.430215
C89   C     C_3   0.999637 0.998715 0.809521 0.026995
C90   C     C_3   0.999549 0.000353 0.189193 -0.004553
C91   C     C_3   0.499637 0.498715 0.809521 0.026997
C92   C     C_3   0.499549 0.500353 0.189193 -0.004554
C93   C     C_3   0.999745 0.993114 0.689232 -0.093018
C94   C     C_3   0.001996 0.998600 0.311933 -0.125796
C95   C     C_3   0.499745 0.493114 0.689232 -0.093015
C96   C     C_3   0.501996 0.498600 0.311933 -0.125797
C97   C     C_3   0.998552 0.044336 0.708975 -0.564653
C98   C     C_3   0.955555 0.978325 0.241408 -0.541690
C99   C     C_3   0.498552 0.544336 0.708975 -0.564652
C100  C     C_3   0.455555 0.478325 0.241407 -0.541688
C101  C     C_1   0.862572 0.999988 0.862405 -0.219138
C102  C     C_1   0.137426 0.000002 0.137602 -0.200678
C103  C     C_1   0.362572 0.499989 0.862405 -0.219138
C104  C     C_1   0.637426 0.500002 0.137602 -0.200678
H1    H     H_    0.073601 0.983186 0.882134 0.143350
H2    H     H_    0.965214 0.066637 0.168050 0.161300
H3    H     H_    0.050259 0.943842 0.236365 0.179651
H4    H     H_    0.924770 0.995277 0.728852 0.148862
H5    H     H_    0.573601 0.483186 0.882134 0.143350
H6    H     H_    0.465214 0.566637 0.168050 0.161300
H7    H     H_    0.550259 0.443842 0.236365 0.179651
H8    H     H_    0.424770 0.495277 0.728852 0.148861
H9    H     H_    0.036768 0.934206 0.839947 0.243977
H10   H     H_    0.025747 0.070887 0.218248 0.232839
H11   H     H_    0.074088 0.999320 0.275715 0.231568
H12   H     H_    0.951920 0.940795 0.763098 0.208752
H13   H     H_    0.536768 0.434206 0.839947 0.243977
H14   H     H_    0.525747 0.570887 0.218249 0.232840
H15   H     H_    0.574087 0.499320 0.275715 0.231567
H16   H     H_    0.451920 0.440795 0.763099 0.208752
H17   H     H_    0.072929 0.998112 0.779528 0.108840
H18   H     H_    0.972875 0.067494 0.278892 0.096957
H19   H     H_    0.027166 0.930745 0.311577 0.106019
H20   H     H_    0.925103 0.990502 0.625662 0.118657
H21   H     H_    0.572929 0.498112 0.779528 0.108837
H22   H     H_    0.472875 0.567494 0.278892 0.096957
H23   H     H_    0.527166 0.430745 0.311577 0.106018
H24   H     H_    0.425103 0.490502 0.625662 0.118657
H25   H     H_    0.034467 0.064515 0.828966 0.190570
H26   H     H_    0.924863 0.989345 0.120099 0.180481
H27   H     H_    0.958417 0.937832 0.159265 0.201847
H28   H     H_    0.973005 0.068975 0.772573 0.197150
H29   H     H_    0.534466 0.564515 0.828965 0.190571
H30   H     H_    0.424864 0.489345 0.120099 0.180481
H31   H     H_    0.458417 0.437832 0.159265 0.201847
H32   H     H_    0.473005 0.568975 0.772572 0.197150
H33   H     H_    0.027425 0.063964 0.716610 0.195185
H34   H     H_    0.926166 0.000526 0.226114 0.216708
H35   H     H_    0.948931 0.943794 0.254910 0.193835
H36   H     H_    0.966328 0.061111 0.661191 0.198969
H37   H     H_    0.527425 0.563965 0.716609 0.195184
H38   H     H_    0.426166 0.500526 0.226114 0.216708
H39   H     H_    0.448931 0.443794 0.254910 0.193834
H40   H     H_    0.466327 0.561111 0.661191 0.198969
O1    O     O_R   0.936850 0.964330 0.936870 -0.599215
O2    O     O_R   0.063150 0.035670 0.063130 -0.597344
O3    O     O_R   0.063150 0.964330 0.063130 -0.592733
O4    O     O_R   0.936850 0.035670 0.936870 -0.600063
O5    O     O_R   0.436850 0.464330 0.936870 -0.599215
O6    O     O_R   0.563150 0.535670 0.063130 -0.597344
O7    O     O_R   0.563150 0.464330 0.063130 -0.592733
O8    O     O_R   0.436850 0.535670 0.936870 -0.600063
O9    O     O_R   0.999990 0.964330 0.907390 -0.616618
O10   O     O_R   0.000010 0.035670 0.092610 -0.621759
O11   O     O_R   0.000010 0.964330 0.092610 -0.621923
O12   O     O_R   0.999990 0.035670 0.907390 -0.625566
O13   O     O_R   0.499990 0.464330 0.907390 -0.616617
O14   O     O_R   0.500010 0.535670 0.092610 -0.621759
O15   O     O_R   0.500010 0.464330 0.092610 -0.621923
O16   O     O_R   0.499990 0.535670 0.907390 -0.625566
O17   O     O_R   0.964320 0.936860 0.464320 -0.596199
O18   O     O_R   0.035680 0.063140 0.535680 -0.566925
O19   O     O_R   0.035680 0.936860 0.535680 -0.577523
O20   O     O_R   0.964320 0.063140 0.464320 -0.616858
O21   O     O_R   0.464320 0.436860 0.464320 -0.596200
O22   O     O_R   0.535680 0.563140 0.535680 -0.566925
O23   O     O_R   0.535680 0.436860 0.535680 -0.577520
O24   O     O_R   0.464320 0.563140 0.464320 -0.616858
O25   O     O_R   0.964330 0.000000 0.556950 -0.614249
O26   O     O_R   0.035670 0.000000 0.443050 -0.500160
O27   O     O_R   0.464330 0.500000 0.556950 -0.614249
O28   O     O_R   0.535670 0.500000 0.443050 -0.500159
O29   O     O_R   0.035630 0.000000 0.628230 -0.647572
O30   O     O_R   0.964370 0.000000 0.371770 -0.653257
O31   O     O_R   0.535630 0.500000 0.628230 -0.647573
O32   O     O_R   0.464370 0.500000 0.371770 -0.653257
O33   O     O_R   0.499940 0.063120 0.447680 -0.591151
O34   O     O_R   0.500060 0.936880 0.552320 -0.590532
O35   O     O_R   0.500060 0.063120 0.552320 -0.585548
O36   O     O_R   0.499940 0.936880 0.447680 -0.588090
O37   O     O_R   0.999940 0.563120 0.447680 -0.591151
O38   O     O_R   0.000060 0.436880 0.552320 -0.590532
O39   O     O_R   0.000060 0.563120 0.552320 -0.585548
O40   O     O_R   0.999940 0.436880 0.447680 -0.588090
O41   O     O_R   0.563110 0.000000 0.510830 -0.589539
O42   O     O_R   0.436890 0.000000 0.489170 -0.587066
O43   O     O_R   0.063110 0.500000 0.510830 -0.589539
O44   O     O_R   0.936890 0.500000 0.489170 -0.587066
O45   O     O_R   0.563120 0.000000 0.615390 -0.589479
O46   O     O_R   0.436880 0.000000 0.384610 -0.589543
O47   O     O_R   0.063120 0.500000 0.615390 -0.589479
O48   O     O_R   0.936880 0.500000 0.384610 -0.589543
Zn1   Zn    Zn3+2 0.000000 0.952370 0.000000 0.988471
Zn2   Zn    Zn3+2 0.000000 0.047630 0.000000 0.976553
Zn3   Zn    Zn3+2 0.500000 0.452370 0.000000 0.988471
Zn4   Zn    Zn3+2 0.500000 0.547630 0.000000 0.976553
Zn5   Zn    Zn3+2 0.952370 0.000000 0.452390 1.012268
Zn6   Zn    Zn3+2 0.047630 0.000000 0.547610 1.095113
Zn7   Zn    Zn3+2 0.452370 0.500000 0.452390 1.012268
Zn8   Zn    Zn3+2 0.547630 0.500000 0.547610 1.095116
Zn9   Zn    Zn3+2 0.499970 0.000000 0.430170 0.992232
Zn10  Zn    Zn3+2 0.500030 1.000000 0.569830 0.996872
Zn11  Zn    Zn3+2 0.999970 0.500000 0.430170 0.992232
Zn12  Zn    Zn3+2 0.000030 0.500000 0.569830 0.996872
S1    S     S_3+6 0.068600 0.920255 0.751039 0.080367
O49   O     O_2   0.039772 0.902335 0.670235 -0.263022
O50   O     O_2   0.073336 0.883127 0.803487 -0.210645
O51   O     O_3   0.121247 0.931865 0.775389 -0.525515
H41   H     H_    0.115991 0.951408 0.733385 0.351861
S2    S     S_3+6 0.051031 0.086216 0.358544 0.037953
O52   O     O_2   0.062456 0.082647 0.437452 -0.262764
O53   O     O_2   0.092746 0.075437 0.361488 -0.252841
O54   O     O_3   0.035301 0.140568 0.328287 -0.567135
H42   H     H_    0.062224 0.159424 0.366595 0.389798
S3    S     S_3+6 0.096376 0.960600 0.412212 0.054186
O55   O     O_2   0.129115 0.940367 0.398136 -0.289247
O56   O     O_2   0.115579 0.005157 0.454297 -0.181740
O57   O     O_3   0.091749 0.924094 0.467554 -0.574770
H43   H     H_    0.123034 0.922145 0.516205 0.384339
S4    S     S_3+6 0.942235 0.912126 0.637132 0.061066
O58   O     O_2   0.944993 0.906300 0.570842 -0.246402
O59   O     O_2   0.974243 0.878831 0.699535 -0.230494
O60   O     O_3   0.888221 0.900041 0.605729 -0.524378
H44   H     H_    0.889890 0.895051 0.652720 0.351651
S5    S     S_3+6 0.568600 0.420255 0.751039 0.080369
O61   O     O_2   0.539772 0.402336 0.670235 -0.263019
O62   O     O_2   0.573336 0.383126 0.803487 -0.210644
O63   O     O_3   0.621247 0.431865 0.775390 -0.525512
H45   H     H_    0.615991 0.451410 0.733389 0.351858
S6    S     S_3+6 0.551032 0.586216 0.358545 0.037953
O64   O     O_2   0.562456 0.582647 0.437452 -0.262764
O65   O     O_2   0.592746 0.575437 0.361488 -0.252842
O66   O     O_3   0.535301 0.640568 0.328287 -0.567136
H46   H     H_    0.562224 0.659424 0.366595 0.389799
S7    S     S_3+6 0.596376 0.460600 0.412212 0.054185
O67   O     O_2   0.629115 0.440367 0.398136 -0.289249
O68   O     O_2   0.615579 0.505157 0.454297 -0.181738
O69   O     O_3   0.591749 0.424094 0.467554 -0.574769
H47   H     H_    0.623035 0.422144 0.516204 0.384338
S8    S     S_3+6 0.442235 0.412125 0.637133 0.061067
O70   O     O_2   0.444994 0.406300 0.570842 -0.246403
O71   O     O_2   0.474243 0.378831 0.699535 -0.230491
O72   O     O_3   0.388221 0.400041 0.605729 -0.524377
H48   H     H_    0.389889 0.395053 0.652719 0.351649

loop_
_geom_bond_atom_site_label_1
_geom_bond_atom_site_label_2
_ccdc_geom_bond_type
C84   H24   S    
C37   O45   A    
C58   C62   S    
C2    O2    A    
O24   Zn7   S    
C71   H3    S    
C70   C78   S    
O22   Zn8   S    
C69   C77   S    
C14   C18   S    
C34   O36   A    
O60   H44   S    
C48   C92   S    
C75   C83   S    
C76   C84   S    
S4    O59   D    
C28   C44   S    
C53   C59   T    
S7    O67   D    
C33   C65   S    
C31   O31   A    
O54   H42   S    
C70   H10   S    
C15   C19   S    
C46   O11   A    
C32   O32   A    
C69   H9    S    
C3    O8    A    
C50   C54   S    
C81   S5    S    
C23   C39   S    
C98   H34   S    
O38   Zn12  S    
O39   Zn12  S    
C64   C68   T    
C16   C20   S    
C78   C94   S    
C87   C91   S    
O21   Zn7   S    
C85   H28   S    
C80   H20   S    
C81   C95   S    
C31   C95   S    
C86   H27   S    
C33   O35   A    
C94   C98   S    
C95   C99   S    
C35   O39   A    
O72   H48   S    
C22   C38   S    
O43   Zn11  S    
S5    O63   S    
O42   Zn10  S    
S6    O66   S    
C41   C49   T    
C83   S7    S    
C9    C13   T    
C82   H22   S    
O27   Zn7   S    
C85   H25   S    
C40   O44   A    
C11   C15   T    
C87   H29   S    
C4    C104  S    
C37   O41   A    
C88   C92   S    
O19   Zn6   S    
C25   O17   A    
O51   H41   S    
C38   O46   A    
O7    Zn3   S    
O23   Zn8   S    
O3    Zn1   S    
C36   O40   A    
O2    Zn2   S    
C45   C89   S    
O66   H46   S    
C78   S2    S    
C97   H36   S    
O1    Zn1   S    
C85   C97   S    
C28   O22   A    
O16   Zn4   S    
C39   O43   A    
C44   C52   T    
C31   O27   A    
C79   S3    S    
C32   O28   A    
C74   C92   S    
O40   Zn11  S    
C7    C103  T    
C76   H8    S    
S7    O68   D    
C34   C66   S    
C84   S8    S    
C45   O9    A    
C74   C82   S    
C74   H14   S    
C73   C81   S    
O63   H45   S    
C70   C90   S    
C72   H4    S    
C87   C99   S    
C47   O16   A    
S1    O50   D    
C46   O10   A    
C48   O15   A    
C63   C67   T    
C3    O5    A    
C82   C96   S    
O8    Zn4   S    
C33   O33   A    
C12   C16   T    
C99   H40   S    
C73   H13   S    
C73   C91   S    
C79   C94   S    
C69   H1    S    
O36   Zn9   S    
C70   H2    S    
S3    O57   S    
C25   C41   S    
C62   C66   T    
C19   C23   T    
C86   H26   S    
C54   C60   T    
C2    O3    A    
S1    O49   D    
C48   O14   A    
C26   O18   A    
S8    O72   S    
O14   Zn4   S    
C71   C79   S    
C27   C43   S    
C84   C95   S    
C7    C11   S    
S3    O55   D    
C80   S4    S    
C30   O30   A    
O11   Zn1   S    
O31   Zn8   S    
C77   S1    S    
C39   O47   A    
C78   H18   S    
C40   O48   A    
O35   Zn10  S    
C35   C67   S    
C8    C12   S    
S8    O71   D    
S5    O61   D    
O15   Zn3   S    
C71   H11   S    
C45   O12   A    
C76   H16   S    
C75   H7    S    
S6    O65   D    
C8    C104  T    
O6    Zn4   S    
C88   C100  S    
C75   C92   S    
C42   C50   T    
C30   O26   A    
O12   Zn2   S    
O4    Zn2   S    
C32   C96   S    
C27   O21   A    
C1    C101  S    
S2    O53   D    
C55   C57   T    
C86   C90   S    
S7    O69   S    
O33   Zn9   S    
C34   O34   A    
C36   O38   A    
C1    O1    A    
O32   Zn7   S    
C93   C97   S    
O26   Zn6   S    
C4    O6    A    
O20   Zn5   S    
C26   C42   S    
O25   Zn5   S    
C47   O13   A    
S1    O51   S    
C3    C103  S    
C4    O7    A    
O18   Zn6   S    
O69   H47   S    
C24   C40   S    
O30   Zn5   S    
C85   C89   S    
C81   H21   S    
O29   Zn6   S    
C18   C22   T    
C47   C91   S    
C87   H32   S    
C99   H37   S    
C88   H31   S    
C29   O29   A    
C100  H39   S    
C74   H6    S    
O37   Zn11  S    
C36   C68   S    
O46   Zn9   S    
C57   C61   S    
C46   C90   S    
O17   Zn5   S    
O45   Zn10  S    
C35   O37   A    
S2    O54   S    
O13   Zn3   S    
C72   H12   S    
C69   C89   S    
C59   C63   S    
C5    C101  T    
C13   C17   S    
C98   H35   S    
C60   C64   S    
O44   Zn12  S    
O34   Zn10  S    
C88   H30   S    
C30   C94   S    
C75   H15   S    
C38   O42   A    
O5    Zn3   S    
C29   C93   S    
C72   C89   S    
C43   C51   T    
O57   H43   S    
C71   C90   S    
C79   H19   S    
C25   O19   A    
C49   C53   S    
C83   C96   S    
C96   C100  S    
C77   C93   S    
S8    O70   D    
S5    O62   D    
O48   Zn11  S    
C56   C58   T    
S4    O58   D    
O28   Zn8   S    
O9    Zn1   S    
C51   C55   S    
C73   H5    S    
C6    C102  T    
C82   S6    S    
S6    O64   D    
C86   C98   S    
C83   H23   S    
C97   H33   S    
C26   O20   A    
S3    O56   D    
C77   H17   S    
C6    C10   S    
C28   O24   A    
C76   C91   S    
C10   C14   T    
O10   Zn2   S    
C61   C65   T    
C21   C37   S    
C72   C80   S    
S2    O52   D    
O47   Zn12  S    
C2    C102  S    
O41   Zn9   S    
C1    O4    A    
C100  H38   S    
C5    C9    S    
C29   O25   A    
C80   C93   S    
C20   C24   T    
S4    O60   S    
C52   C56   S    
C27   O23   A    
C17   C21   T    
