data_mof_unit_58908.cif
_audit_creation_date              2013-03-05T16:03:02-0500
_audit_creation_method            fapswitch 2.2
_symmetry_space_group_name_H-M    P1
_symmetry_Int_Tables_number       1
_space_group_crystal_system       triclinic
_cell_length_a                    7.195119
_cell_length_b                    18.216153
_cell_length_c                    20.625335
_cell_angle_alpha                 67.833175
_cell_angle_beta                  88.586793
_cell_angle_gamma                 88.439028
_cell_volume                      2502.27391808

loop_
_atom_site_label
_atom_site_type_symbol
_atom_site_description
_atom_site_fract_x
_atom_site_fract_y
_atom_site_fract_z
_atom_type_partial_charge
O1    O     O_R   0.488990 0.443920 0.942160 -0.560704
O2    O     O_R   0.823840 0.406530 0.087600 -0.579569
O3    O     O_R   0.999650 0.556080 0.057840 -0.573007
C1    C     C_R   0.654600 0.381046 0.112782 0.951795
O4    O     O_R   0.818390 0.434590 0.944530 -0.584127
O5    O     O_R   0.994160 0.584350 0.913750 -0.578156
C2    C     C_R   0.653803 0.423397 0.921778 0.898154
O6    O     O_R   0.494480 0.415650 0.086250 -0.584287
O7    O     O_3   0.662600 0.549100 0.990070 -0.251943
V1    V     V_3+5 0.935320 0.490890 0.001840 1.238176
O8    O     O_R   0.324240 0.593470 0.912400 -0.589203
C3    C     C_R   0.152500 0.620337 0.888706 0.949155
O9    O     O_R   0.329690 0.565410 0.055470 -0.543653
C4    C     C_R   0.158369 0.576855 0.077522 0.971765
V2    V     V_3+5 0.435990 0.509110 0.998160 1.248770
O10   O     O_3   0.158840 0.450900 0.009930 -0.280473
C5    C     C_3   0.019826 0.664739 0.281086 0.028261
C6    C     C_3   0.323639 0.715594 0.227991 -0.461705
C7    C     C_3   0.342455 0.758441 0.282480 -0.320140
H1    H     H_    0.099492 0.608125 0.305244 0.173526
H2    H     H_    0.401946 0.744756 0.178342 0.271036
H3    H     H_    0.383691 0.654948 0.248494 0.236902
C8    C     C_1   0.130504 0.879231 0.376534 -0.128005
C9    C     C_3   0.119816 0.707547 0.209366 0.038148
C10   C     C_3   0.020606 0.713842 0.330613 -0.058030
C11   C     C_3   0.146505 0.790120 0.294610 -0.074749
C12   C     C_3   0.077099 0.842917 0.217610 0.046334
C13   C     C_3   0.025379 0.791429 0.175359 -0.310334
C14   C     C_1   0.147265 0.840718 0.339205 0.267351
C15   C     C_1   0.124230 0.659633 0.162489 0.085744
C16   C     C_1   0.139745 0.621578 0.124281 -0.159723
H4    H     H_    0.872524 0.784065 0.179907 0.227037
H5    H     H_    0.193373 0.880068 0.188248 0.147447
C17   C     C_R   0.267694 0.786971 0.869095 -0.093635
C18   C     C_R   0.363711 0.856929 0.855556 -0.115960
C19   C     C_R   0.348572 0.918255 0.791196 -0.135515
C20   C     C_R   0.243428 0.909626 0.738919 0.152434
C21   C     C_R   0.184761 0.833358 0.744543 0.066849
C22   C     C_R   0.196945 0.769843 0.812513 0.034840
C23   C     C_R   0.119149 0.818254 0.685409 -0.272087
C24   C     C_R   0.074331 0.738824 0.696143 0.019620
C25   C     C_R   0.041162 0.684716 0.765354 0.112064
C26   C     C_R   0.128069 0.693595 0.822412 -0.231434
C27   C     C_R   0.085395 0.704939 0.643644 -0.128583
C28   C     C_R   0.098188 0.621529 0.665244 -0.163560
C29   C     C_R   0.040509 0.575206 0.733247 0.314150
C30   C     C_R   0.960961 0.612908 0.772969 -0.236183
H6    H     H_    0.424817 0.869320 0.897784 0.187664
H7    H     H_    0.399314 0.975910 0.785241 0.170583
H8    H     H_    0.149151 0.594145 0.629851 0.145397
H9    H     H_    0.886179 0.576286 0.818869 0.176140
H10   H     H_    0.885274 0.457693 0.304596 0.189859
C31   C     C_R   0.492155 0.229366 0.130971 -0.259579
C32   C     C_R   0.407218 0.158300 0.137891 -0.134126
C33   C     C_R   0.389646 0.097911 0.203339 -0.110579
C34   C     C_R   0.463757 0.106076 0.261464 -0.166157
C35   C     C_R   0.546848 0.177505 0.256537 0.127476
C36   C     C_R   0.559797 0.241248 0.189900 0.156256
C37   C     C_R   0.612111 0.186240 0.317149 -0.269776
C38   C     C_R   0.670700 0.261941 0.311898 0.036443
C39   C     C_R   0.691676 0.325636 0.245212 0.028802
C40   C     C_R   0.639843 0.314654 0.183247 -0.277337
C41   C     C_R   0.688420 0.278939 0.372644 0.134743
C42   C     C_R   0.790943 0.343646 0.369804 -0.112458
C43   C     C_R   0.826203 0.403497 0.305497 -0.140901
C44   C     C_R   0.752804 0.399713 0.244814 0.150424
H11   H     H_    0.502717 0.275347 0.079236 0.104669
H12   H     H_    0.324182 0.042923 0.209018 0.154010
H13   H     H_    0.452941 0.055518 0.310228 0.139139
H14   H     H_    0.815987 0.354303 0.416936 0.187450
O11   O     O_R   0.770890 0.084490 0.414040 -0.591175
O12   O     O_R   0.445980 0.065450 0.555510 -0.569899
O13   O     O_R   0.270670 0.915620 0.586180 -0.568162
C45   C     C_R   0.610602 0.079718 0.575188 0.975137
O14   O     O_R   0.441480 0.093500 0.412450 -0.585418
O15   O     O_R   0.266140 0.943870 0.442100 -0.558797
C46   C     C_R   0.609233 0.117024 0.386167 0.944510
O16   O     O_R   0.775410 0.056240 0.558120 -0.562426
O17   O     O_3   0.602660 0.950990 0.510100 -0.256544
V3    V     V_3+5 0.329740 0.009100 0.498130 1.262413
O18   O     O_R   0.936120 0.934420 0.444240 -0.584997
C47   C     C_R   0.108219 0.923501 0.422513 0.939343
O19   O     O_R   0.940610 0.906370 0.587310 -0.568808
C48   C     C_R   0.109874 0.882821 0.613866 0.948307
V4    V     V_3+5 0.829110 0.990690 0.501470 1.255425
O20   O     O_3   0.106080 0.049010 0.489880 -0.268674
C49   C     C_3   0.793127 0.284629 0.663550 -0.366307
C50   C     C_3   0.447542 0.278887 0.686930 -0.561001
C51   C     C_3   0.478062 0.336683 0.726479 -0.319007
H15   H     H_    0.327291 0.241363 0.709867 0.211375
H16   H     H_    0.405568 0.311085 0.632404 0.283550
H17   H     H_    0.354540 0.332141 0.759863 0.206593
C52   C     C_1   0.657307 0.385027 0.869498 -0.115206
C53   C     C_3   0.622909 0.224980 0.691364 0.089257
C54   C     C_3   0.835965 0.317648 0.725086 -0.357929
C55   C     C_3   0.653674 0.308536 0.775836 -0.050726
C56   C     C_3   0.625698 0.215541 0.822674 -0.062277
C57   C     C_3   0.627111 0.168584 0.771365 0.120467
C58   C     C_1   0.660880 0.353057 0.826052 0.278943
C59   C     C_1   0.604257 0.173993 0.648699 0.149845
C60   C     C_1   0.606589 0.130712 0.615563 -0.139718
H18   H     H_    0.492769 0.137172 0.779625 0.090541
C61   C     C_2   0.056236 0.655397 0.406644 1.068903
O21   O     O_2   0.083244 0.679690 0.453337 -0.618853
O22   O     O_R   0.045838 0.573332 0.424604 -0.742436
H19   H     H_    0.068526 0.541886 0.476138 0.372666
I1    I     I_    0.758753 0.622163 0.272838 -0.347534
I2    I     I_    0.782499 0.763424 0.356294 -0.305366
I3    I     I_    0.153785 0.464846 0.797639 -0.313420
C62   C     C_2   0.199038 0.747777 0.941608 0.945275
O23   O     O_2   0.301961 0.738150 0.990550 -0.629745
O24   O     O_R   0.009768 0.731053 0.953430 -0.774371
H20   H     H_    0.969886 0.716949 0.004002 0.336896
I4    I     I_    0.136309 0.018972 0.669524 -0.238089
C63   C     C_2   0.079424 0.750445 0.568718 1.022173
O25   O     O_2   0.223148 0.768431 0.534110 -0.602782
O26   O     O_R   0.905370 0.766662 0.537401 -0.734912
H21   H     H_    0.912857 0.788172 0.484709 0.352012
C64   C     C_2   0.349863 0.144074 0.075831 1.100073
O27   O     O_2   0.205392 0.109912 0.076887 -0.552398
O28   O     O_R   0.464642 0.165671 0.016700 -0.738375
H22   H     H_    0.584653 0.190219 0.022364 0.297242
I5    I     I_    0.462590 0.252736 0.445263 -0.349193
I6    I     I_    0.675581 0.513155 0.169846 -0.286020
C65   C     C_2   0.911824 0.401150 0.692644 1.070969
O29   O     O_2   0.835772 0.457128 0.701544 -0.623864
O30   O     O_R   0.073248 0.413743 0.651277 -0.760271
H23   H     H_    0.100603 0.472036 0.626751 0.346186
C66   C     C_2   0.738349 0.349162 0.591166 1.073505
O31   O     O_2   0.789734 0.417636 0.571382 -0.566435
O32   O     O_R   0.641952 0.327189 0.543703 -0.809574
H24   H     H_    0.607204 0.374458 0.500065 0.364800
C67   C     C_2   0.474737 0.424340 0.677942 1.172172
O33   O     O_2   0.447963 0.444842 0.615212 -0.604036
O34   O     O_R   0.491979 0.482847 0.705680 -0.761507
H25   H     H_    0.486060 0.538529 0.668653 0.341241
I7    I     I_    0.787493 0.058209 0.800007 -0.212481
I8    I     I_    0.811935 0.163452 0.912923 -0.168904
C68   C     C_2   0.964222 0.248110 0.640663 1.069131
O35   O     O_2   0.983892 0.176650 0.659892 -0.569124
O36   O     O_R   0.093844 0.296701 0.593163 -0.764732
H26   H     H_    0.189033 0.265239 0.576626 0.343007
C69   C     C_2   0.992620 0.271811 0.771870 0.997968
O37   O     O_2   0.054289 0.296916 0.813785 -0.634764
O38   O     O_R   0.050971 0.197271 0.774497 -0.763114
H27   H     H_    0.140825 0.169336 0.813008 0.356810
C70   C     C_2   0.445931 0.199692 0.866438 1.031836
O39   O     O_2   0.389408 0.131780 0.893314 -0.563771
O40   O     O_R   0.360311 0.258940 0.884988 -0.762832
H28   H     H_    0.250399 0.239105 0.918231 0.393192
C71   C     C_2   0.406968 0.700116 0.354411 1.032098
O41   O     O_2   0.435900 0.629865 0.366039 -0.589885
O42   O     O_R   0.411968 0.725472 0.410742 -0.713164
H29   H     H_    0.450539 0.681557 0.456178 0.377516
C72   C     C_2   0.471456 0.829838 0.251664 1.085595
O43   O     O_2   0.559481 0.841765 0.197317 -0.587308
O44   O     O_R   0.478597 0.885594 0.283237 -0.789514
H30   H     H_    0.540495 0.936384 0.253019 0.340086
C73   C     C_2   0.071567 0.832494 0.097987 1.094084
O45   O     O_2   0.947457 0.847903 0.055128 -0.568464
O46   O     O_R   0.254530 0.853215 0.075539 -0.744038
H31   H     H_    0.266269 0.880680 0.022799 0.359911
I9    I     I_    0.905137 0.946711 0.200034 -0.305652

loop_
_geom_bond_atom_site_label_1
_geom_bond_atom_site_label_2
_geom_bond_distance
_ccdc_geom_bond_type
C36   C40   1.427653 A    
C33   C34   1.383523 A    
C55   C58   1.540101 S    
C54   C69   1.514310 S    
O44   H30   1.008186 S    
C8    C47   1.462164 S    
C72   O44   1.400660 S    
C6    H2    1.107076 S    
C7    C72   1.539433 S    
C24   C25   1.414378 A    
C23   C48   1.502042 S    
C54   C55   1.629893 S    
O11   C46   1.331521 A    
C4    C16   1.480661 S    
C1    O6    1.324886 A    
C37   C46   1.504037 S    
C56   C57   1.591799 S    
O34   H25   1.014187 S    
V4    O20   2.248854 S    
C12   H5    1.105097 S    
C34   H13   1.080217 S    
C11   C12   1.599057 S    
C38   C41   1.408792 A    
C6    C9    1.549755 S    
C8    C14   1.223890 T    
C19   C20   1.390767 A    
C70   O40   1.398031 S    
C6    C7    1.601809 S    
C3    C26   1.517730 S    
C5    I1    2.086552 S    
C73   O45   1.222988 D    
O5    C3    1.323117 A    
C15   C16   1.231950 T    
C35   C37   1.411314 A    
C53   C57   1.581318 S    
C63   O25   1.221401 D    
C49   C53   1.605369 S    
C1    C40   1.503070 S    
C5    H1    1.111084 S    
C34   C35   1.414342 A    
C17   C18   1.396139 A    
C7    C11   1.559044 S    
C62   O23   1.222433 D    
V3    O20   1.733098 S    
C61   O21   1.223361 D    
O9    C4    1.341538 A    
C12   I9    2.148166 S    
O11   V4    2.004993 S    
O8    V2    2.021984 S    
C39   C44   1.427641 A    
C70   O39   1.225518 D    
C27   C63   1.453209 S    
C63   O26   1.395915 S    
C49   C54   1.634962 S    
C7    C71   1.537212 S    
C71   O41   1.222643 D    
C73   O46   1.398208 S    
O1    V2    1.969340 S    
C42   H14   1.080772 S    
O14   V3    2.019921 S    
C52   C58   1.238799 T    
O13   C48   1.330111 A    
C37   C38   1.416958 A    
O1    C2    1.338864 A    
C32   C64   1.469023 S    
C56   C70   1.528798 S    
O36   H26   1.014149 S    
C18   H6    1.084195 S    
O24   H20   1.011612 S    
O46   H31   1.013817 S    
C62   O24   1.398925 S    
C64   O28   1.389304 S    
C21   C22   1.445078 A    
C2    C52   1.489412 S    
C68   O35   1.214479 D    
C50   C53   1.560507 S    
C5    C9    1.556105 S    
C51   C67   1.531429 S    
V2    O10   2.248760 S    
C57   I7    2.175796 S    
C17   C22   1.425168 A    
C9    C13   1.564188 S    
C13   H4    1.108976 S    
O12   C45   1.324898 A    
O15   C47   1.323134 A    
O4    C2    1.333011 A    
C33   H12   1.083224 S    
C10   C61   1.550304 S    
C22   C26   1.426531 A    
C20   I4    2.104653 S    
C10   C11   1.599826 S    
C31   C32   1.403247 A    
C13   C73   1.517642 S    
O18   C47   1.341706 A    
O17   V3    2.179679 S    
C38   C39   1.433822 A    
C18   C19   1.379638 A    
O2    C1    1.336305 A    
C20   C21   1.424688 A    
C54   C65   1.522674 S    
C41   I5    2.119941 S    
O19   C48   1.339545 A    
C50   H16   1.099705 S    
C53   C59   1.511406 S    
C31   C36   1.412244 A    
C55   C56   1.617874 S    
C61   O22   1.401574 S    
C51   H17   1.096211 S    
O14   C46   1.324752 A    
O28   H22   1.012253 S    
O3    C4    1.332113 A    
C45   C60   1.462275 S    
O16   V4    1.986380 S    
C23   C24   1.423635 A    
O19   V4    2.021950 S    
C50   H15   1.098926 S    
C43   C44   1.396395 A    
O6    V2    2.010258 S    
O9    V2    1.965055 S    
C65   O29   1.216068 D    
C17   C62   1.472280 S    
C24   C27   1.434321 A    
C44   I6    2.130390 S    
C25   C26   1.409810 A    
O30   H23   1.011610 S    
O2    V1    2.019812 S    
C56   I8    2.209464 S    
O17   V4    1.778248 S    
C27   C28   1.413916 A    
C67   O34   1.396209 S    
C66   O31   1.221734 D    
O7    V1    2.179364 S    
C32   C33   1.388134 A    
C69   O38   1.391921 S    
C29   C30   1.360348 A    
C6    H3    1.102915 S    
O38   H27   1.005106 S    
O15   V3    2.012148 S    
C49   C68   1.531191 S    
O5    V1    2.011445 S    
C30   H9    1.071758 S    
O8    C3    1.349676 A    
O22   H19   1.014177 S    
C5    C10   1.591754 S    
C42   C43   1.385454 A    
C49   C66   1.563820 S    
C51   C55   1.590626 S    
C69   O37   1.217265 D    
O7    V2    1.782290 S    
O4    V1    2.041490 S    
O12   V3    2.041102 S    
O3    V1    2.012420 S    
C57   H18   1.113206 S    
O40   H28   1.013884 S    
C21   C23   1.440418 A    
C68   O36   1.399521 S    
C35   C36   1.428717 A    
C67   O33   1.222414 D    
C28   H8    1.080650 S    
C59   C60   1.222417 T    
O13   V3    2.011503 S    
C25   C30   1.396532 A    
C71   O42   1.404432 S    
C39   C40   1.425846 A    
C31   H11   1.082106 S    
C9    C15   1.526885 S    
H10   C43   1.079012 S    
C41   C42   1.389277 A    
C28   C29   1.395980 A    
C50   C51   1.578455 S    
C11   C14   1.528338 S    
C64   O27   1.221550 D    
C45   O16   1.333560 A    
C29   I3    2.102134 S    
C72   O43   1.222102 D    
C65   O30   1.395539 S    
V1    O10   1.732819 S    
C66   O32   1.394243 S    
O42   H29   1.014985 S    
O26   H21   1.007210 S    
O18   V4    1.965200 S    
C19   H7    1.082940 S    
O32   H24   1.014195 S    
C10   I2    2.064783 S    
C12   C13   1.558620 S    
