data_mof_unit_52151.cif
_audit_creation_date              2012-12-11T14:03:23-0500
_audit_creation_method            fapswitch 2.2
_symmetry_space_group_name_H-M    P1
_symmetry_Int_Tables_number       1
_space_group_crystal_system       triclinic
_cell_length_a                    6.958834
_cell_length_b                    11.584634
_cell_length_c                    18.61367
_cell_angle_alpha                 90.000131
_cell_angle_beta                  93.429692
_cell_angle_gamma                 90.0
_cell_volume                      1497.86360348

loop_
_atom_site_label
_atom_site_type_symbol
_atom_type_description
_atom_site_fract_x
_atom_site_fract_y
_atom_site_fract_z
_atom_type_partial_charge
O1    O     O_R   0.330540 0.606360 0.598870 -0.500520
O2    O     O_R   0.669460 0.106360 0.401130 -0.500520
O3    O     O_R   0.026770 0.620470 0.750430 -0.546255
O4    O     O_R   0.973230 0.120470 0.249570 -0.546257
O5    O     O_R   0.856460 0.393640 0.750930 -0.552585
O6    O     O_R   0.143540 0.893640 0.249070 -0.552583
C1    C     C_R   0.199759 0.647833 0.774384 0.723827
C2    C     C_R   0.800241 0.147832 0.225616 0.723827
O7    O     O_R   0.000920 0.620350 0.599420 -0.540503
O8    O     O_R   0.999080 0.120350 0.400580 -0.540504
O9    O     O_R   0.830430 0.393520 0.598850 -0.570478
O10   O     O_R   0.169570 0.893520 0.401150 -0.570477
C3    C     C_R   0.166750 0.647791 0.574481 0.805682
C4    C     C_R   0.833250 0.147791 0.425519 0.805684
O11   O     O_R   0.356570 0.606480 0.750960 -0.534857
O12   O     O_R   0.643430 0.106480 0.249040 -0.534862
O13   O     O_3   0.176990 0.425580 0.674890 -0.380670
O14   O     O_3   0.823010 0.925580 0.325110 -0.380668
V1    V     V_3+5 0.902170 0.513810 0.674910 1.529986
V2    V     V_3+5 0.097830 0.013810 0.325090 1.529986
O15   O     O_R   0.500800 0.379530 0.599380 -0.518692
O16   O     O_R   0.499200 0.879530 0.400620 -0.518691
C5    C     C_R   0.666271 0.352060 0.574587 0.663000
C6    C     C_R   0.333729 0.852060 0.425413 0.663003
O17   O     O_R   0.526650 0.379650 0.750390 -0.516373
O18   O     O_R   0.473350 0.879650 0.249610 -0.516374
C7    C     C_R   0.699789 0.352987 0.774894 0.773924
C8    C     C_R   0.300211 0.852989 0.225105 0.773916
V3    V     V_3+5 0.402160 0.486190 0.674900 1.604437
V4    V     V_3+5 0.597840 0.986190 0.325100 1.604437
O19   O     O_3   0.677210 0.574420 0.674910 -0.360933
O20   O     O_3   0.322790 0.074420 0.325090 -0.360934
C9    C     C_R   0.851161 0.089723 0.879617 0.688242
C10   C     C_R   0.148849 0.589721 0.120383 0.688252
H1    H     H_    0.848001 0.140123 0.768853 0.157194
H2    H     H_    0.152015 0.640122 0.231147 0.157193
H3    H     H_    0.934832 0.966671 0.997811 0.190240
H4    H     H_    0.065176 0.466669 0.002188 0.190249
C11   C     C_R   0.725083 0.270952 0.834507 -0.190871
C12   C     C_R   0.274917 0.770953 0.165493 -0.190878
C13   C     C_R   0.720443 0.342679 0.182556 -0.235347
C14   C     C_R   0.279557 0.842682 0.817445 -0.235334
C15   C     C_R   0.693727 0.424154 0.128277 0.339925
C16   C     C_R   0.306282 0.924154 0.871726 0.339929
C17   C     C_R   0.710189 0.393094 0.056326 0.621837
C18   C     C_R   0.289829 0.893092 0.943677 0.621826
C19   C     C_R   0.748185 0.276814 0.037250 -0.044253
C20   C     C_R   0.251817 0.776813 0.962751 -0.044247
C21   C     C_R   0.799199 0.198227 0.094161 0.005583
C22   C     C_R   0.200796 0.698229 0.905839 0.005590
C23   C     C_R   0.751689 0.237402 0.964283 -0.015124
C24   C     C_R   0.248311 0.737401 0.035717 -0.015132
C25   C     C_R   0.830011 0.126617 0.950569 -0.023919
C26   C     C_R   0.169991 0.626616 0.049431 -0.023914
C27   C     C_R   0.884375 0.053295 0.007523 0.043136
C28   C     C_R   0.115625 0.553295 0.992477 0.043163
C29   C     C_R   0.871183 0.088725 0.078036 -0.061370
C30   C     C_R   0.128807 0.588728 0.921964 -0.061365
C31   C     C_R   0.673074 0.300216 0.903994 0.322264
C32   C     C_R   0.326929 0.800215 0.096006 0.322277
C33   C     C_R   0.815380 0.165792 0.822768 -0.205004
C34   C     C_R   0.184628 0.665791 0.177232 -0.204989
C35   C     C_R   0.777993 0.230965 0.166446 -0.107560
C36   C     C_R   0.222005 0.730967 0.833554 -0.107557
H5    H     H_    0.704940 0.367969 0.237978 0.155737
H6    H     H_    0.295059 0.867973 0.762024 0.155735
H7    H     H_    0.917114 0.028408 0.120022 0.133117
H8    H     H_    0.082874 0.528411 0.879977 0.133117
C37   C     C_2   0.830187 0.233584 0.484821 -0.437284
C38   C     C_2   0.169813 0.733584 0.515179 -0.437283
H9    H     H_    0.967273 0.270717 0.503868 0.136484
H10   H     H_    0.032727 0.770717 0.496132 0.136484
C39   C     C_2   0.666310 0.266122 0.515583 0.438159
C40   C     C_2   0.333690 0.766122 0.484417 0.438158
F1    F     F_    0.493159 0.220417 0.492571 -0.666780
F2    F     F_    0.506841 0.720417 0.507429 -0.666779
F3    F     F_    0.907648 0.980580 0.865208 -0.697306
F4    F     F_    0.092378 0.480576 0.134792 -0.697305
Br1   Br    Br    0.439948 0.387196 0.909632 -0.477171
Br2   Br    Br    0.560105 0.887145 0.090367 -0.477148
F5    F     F_    0.711153 0.479810 0.007498 -0.662304
F6    F     F_    0.288902 0.979804 0.992508 -0.662305
Br3   Br    Br    0.656290 0.581313 0.154477 -0.486657
Br4   Br    Br    0.343726 0.081315 0.845529 -0.486677

loop_
_geom_bond_atom_site_label_1
_geom_bond_atom_site_label_2
_ccdc_geom_bond_type
C21   C35   A    
C15   Br3   S    
O4    C2    A    
V1    O19   S    
C21   C29   A    
C19   C21   A    
O9    V1    S    
C40   F2    S    
C12   C32   A    
C22   C36   A    
C29   H7    S    
O3    C1    A    
C3    C38   S    
C8    C12   S    
O12   V4    S    
C10   C34   A    
C12   C34   A    
C17   C19   A    
O9    C5    A    
C37   H9    S    
O7    C3    A    
C24   C32   A    
C18   F6    S    
O7    V1    S    
O6    C8    A    
C7    C11   S    
C38   C40   D    
O3    V1    S    
O14   V4    S    
C24   C26   A    
C20   C22   A    
C2    O12   A    
O5    C7    A    
C9    C25   A    
C13   C15   A    
C14   C16   A    
C5    C39   S    
H2    C34   S    
C16   C18   A    
O11   V3    S    
C18   C20   A    
C25   C27   A    
O17   V3    S    
C11   C33   A    
C26   C28   A    
C22   C30   A    
O8    C4    A    
C31   Br1   S    
C19   C23   A    
O15   V3    S    
C23   C25   A    
H3    C27   S    
O1    C3    A    
C11   C31   A    
O10   V2    S    
O1    V3    S    
H1    C33   S    
C37   C39   D    
C15   C17   A    
C30   H8    S    
C10   C26   A    
C27   C29   A    
C4    C37   S    
O16   C6    A    
C23   C31   A    
C39   F1    S    
C14   C36   A    
V2    O20   S    
C32   Br2   S    
O16   V4    S    
C17   F5    S    
C16   Br4   S    
C13   H5    S    
O18   V4    S    
O5    V1    S    
O17   C7    A    
O6    V2    S    
O10   C6    A    
O18   C8    A    
C9    F3    S    
O2    V4    S    
O15   C5    A    
V3    O19   S    
O13   V3    S    
C10   F4    S    
V4    O20   S    
C6    C40   S    
O8    V2    S    
C1    O11   A    
O13   V1    S    
C28   C30   A    
O14   V2    S    
O2    C4    A    
C1    C36   S    
C2    C35   S    
O4    V2    S    
C20   C24   A    
H4    C28   S    
C9    C33   A    
C14   H6    S    
C13   C35   A    
C38   H10   S    
