data_mof_unit_44739.cif
_audit_creation_date              2012-12-10T17:19:26-0500
_audit_creation_method            fapswitch 2.2
_symmetry_space_group_name_H-M    P1
_symmetry_Int_Tables_number       1
_space_group_crystal_system       triclinic
_cell_length_a                    15.012385
_cell_length_b                    10.81357
_cell_length_c                    9.574755
_cell_angle_alpha                 90.357701
_cell_angle_beta                  89.999213
_cell_angle_gamma                 92.71257
_cell_volume                      1552.56962775

loop_
_atom_site_label
_atom_site_type_symbol
_atom_type_description
_atom_site_fract_x
_atom_site_fract_y
_atom_site_fract_z
_atom_type_partial_charge
C1    C     C_R   0.509734 0.263805 0.500198 0.835689
C2    C     C_R   0.909347 0.584673 0.588992 -0.004956
C3    C     C_R   0.947979 0.349287 0.311011 -0.214400
C4    C     C_R   0.040824 0.349155 0.310734 -0.212762
C5    C     C_R   0.090489 0.425695 0.403572 0.129702
C6    C     C_R   0.046622 0.503555 0.497609 0.054904
C7    C     C_R   0.096165 0.579990 0.592275 0.034010
C8    C     C_R   0.052510 0.660832 0.681024 -0.292179
C9    C     C_R   0.959781 0.667656 0.675882 0.457259
C10   C     C_R   0.183386 0.426024 0.403978 -0.248808
C11   C     C_R   0.232203 0.500135 0.499880 -0.060634
C12   C     C_R   0.328837 0.499499 0.500011 0.806438
C13   C     C_R   0.188890 0.576010 0.594510 -0.217608
C14   C     C_R   0.571569 0.122362 0.752616 0.480051
C15   C     C_R   0.556032 0.066380 0.882192 -0.224546
C16   C     C_R   0.507856 0.953907 0.889814 -0.231962
C17   C     C_R   0.482395 0.891125 0.767649 -0.168796
C18   C     C_R   0.503706 0.941463 0.634688 0.036363
C19   C     C_R   0.533855 0.066696 0.629360 -0.021374
C20   C     C_R   0.522572 0.130702 0.501982 -0.108640
C21   C     C_R   0.508372 0.064192 0.377534 -0.225302
C22   C     C_R   0.499316 0.936669 0.379399 -0.213915
C23   C     C_R   0.496103 0.738013 0.501525 0.769904
C24   C     C_R   0.495711 0.873498 0.506631 -0.086866
C25   C     C_R   0.618781 0.665010 0.145298 -0.152846
C26   C     C_R   0.676622 0.745714 0.073380 -0.207465
C27   C     C_R   0.676587 0.745558 0.929539 -0.176617
C28   C     C_R   0.618671 0.664832 0.856747 -0.148791
C29   C     C_R   0.558250 0.581238 0.925658 0.189406
C30   C     C_R   0.558290 0.581206 0.075384 0.195820
C31   C     C_R   0.444967 0.422183 0.073416 -0.073848
C32   C     C_R   0.445020 0.422183 0.925356 -0.039071
C33   C     C_R   0.671103 0.500698 0.499888 0.789748
C34   C     C_R   0.816152 0.580383 0.591038 -0.260960
C35   C     C_R   0.767649 0.502178 0.499023 -0.068722
C36   C     C_R   0.811130 0.426991 0.404153 -0.253778
C37   C     C_R   0.903871 0.426491 0.403578 0.140515
C38   C     C_R   0.953254 0.504747 0.497029 0.003500
Cu1   Cu    Cu3+1 0.499990 0.499990 0.640660 0.950254
Cu2   Cu    Cu3+1 0.500010 0.500010 0.359340 0.925862
H1    H     H_    0.780938 0.638975 0.662347 0.162453
H2    H     H_    0.580154 0.111291 0.977156 0.148620
H3    H     H_    0.492464 0.913280 0.990557 0.161250
H4    H     H_    0.442876 0.806054 0.780382 0.177954
H5    H     H_    0.492570 0.887815 0.280540 0.163282
H6    H     H_    0.399872 0.358479 0.128381 0.133539
H7    H     H_    0.624730 0.672764 0.255387 0.200988
H8    H     H_    0.721806 0.808945 0.129996 0.149683
H9    H     H_    0.721411 0.808991 0.873651 0.149920
H10   H     H_    0.623893 0.672973 0.746762 0.192913
H11   H     H_    0.772546 0.367255 0.332890 0.142062
H12   H     H_    0.400015 0.358406 0.869440 0.136485
H13   H     H_    0.910654 0.289176 0.238776 0.139098
H14   H     H_    0.073786 0.289001 0.238263 0.142391
H15   H     H_    0.217810 0.367254 0.331577 0.137355
H16   H     H_    0.227657 0.634234 0.667032 0.141425
H17   H     H_    0.090510 0.721385 0.751993 0.159358
H18   H     H_    0.502909 0.110686 0.278191 0.162630
N1    N     N_R   0.500860 0.501210 0.147910 -0.197319
N2    N     N_R   0.500890 0.501290 0.852040 -0.191177
O1    O     O_R   0.499990 0.319640 0.618810 -0.535671
O2    O     O_R   0.500000 0.319660 0.381240 -0.597390
O3    O     O_R   0.370250 0.499960 0.618800 -0.587752
O4    O     O_R   0.370260 0.499980 0.381230 -0.575406
O5    O     O_R   0.500000 0.680340 0.618760 -0.616802
O6    O     O_R   0.500010 0.680360 0.381190 -0.599809
O7    O     O_R   0.629740 0.500020 0.618770 -0.572223
O8    O     O_R   0.629750 0.500040 0.381200 -0.602082
O9    O     O_3   0.625323 0.229705 0.747383 -0.569201
C39   C     C_3   0.716087 0.200652 0.736394 0.072352
H19   H     H_    0.747293 0.259434 0.653386 0.159609
H20   H     H_    0.726696 0.102795 0.704556 0.066736
C40   C     C_3   0.765197 0.228776 0.874196 -0.398881
H21   H     H_    0.738445 0.165845 0.956924 0.198425
H22   H     H_    0.836956 0.210943 0.860382 0.179301
C41   C     C_3   0.756924 0.363010 0.921383 -0.683747
H23   H     H_    0.782576 0.427494 0.839380 0.252708
H24   H     H_    0.796461 0.380344 0.018153 0.211717
H25   H     H_    0.686257 0.381512 0.944125 0.269260
O10   O     O_3   0.919362 0.753737 0.759477 -0.613973
C42   C     C_3   0.898993 0.858144 0.678401 0.031594
H26   H     H_    0.840187 0.900194 0.726431 0.147878
H27   H     H_    0.879475 0.834003 0.568683 0.130591
C43   C     C_3   0.976826 0.955315 0.679442 -0.349485
H28   H     H_    0.992789 0.982701 0.789019 0.223683
H29   H     H_    0.036751 0.915663 0.632089 0.214227
C44   C     C_3   0.954307 0.070155 0.596882 -0.915756
H30   H     H_    0.940391 0.045251 0.486023 0.256185
H31   H     H_    0.011574 0.138988 0.600459 0.264903
H32   H     H_    0.895168 0.113184 0.642273 0.241519

loop_
_geom_bond_atom_site_label_1
_geom_bond_atom_site_label_2
_ccdc_geom_bond_type
C44   H30   S    
Cu1   O5    S    
C40   H21   S    
C35   C36   A    
C43   C44   S    
C1    O2    A    
C42   H26   S    
C7    C8    A    
C26   C27   A    
C29   C30   A    
C18   C24   A    
C23   O6    A    
C28   C29   A    
C41   H24   S    
C18   C19   A    
C5    C6    A    
C12   O4    A    
C15   C16   A    
Cu2   O2    S    
C34   C35   A    
C31   N1    A    
C32   H12   S    
C33   C35   S    
C28   H10   S    
C19   C20   A    
C8    C9    A    
C31   H6    S    
C23   C24   S    
C6    C38   A    
C39   H19   S    
C25   H7    S    
C26   H8    S    
C13   H16   S    
C2    C34   A    
Cu2   N1    S    
Cu2   O6    S    
C21   C22   A    
C3    H13   S    
C40   H22   S    
C34   H1    S    
C5    C10   A    
C42   H27   S    
Cu1   O1    S    
C41   H23   S    
Cu1   Cu2   S    
C12   O3    A    
C16   C17   A    
C25   C26   A    
C9    O10   S    
C37   C38   A    
C8    H17   S    
C2    C38   A    
C31   C32   A    
C29   N2    A    
C7    C13   A    
C30   N1    A    
C22   H5    S    
C39   C40   S    
C17   C18   A    
C43   H28   S    
C10   H15   S    
C16   H3    S    
C36   H11   S    
C44   H31   S    
C14   O9    S    
C22   C24   A    
C32   N2    A    
C3    C4    A    
C42   C43   S    
C33   O7    A    
C25   C30   A    
C36   C37   A    
C1    C20   S    
C4    H14   S    
Cu1   O7    S    
C14   C19   A    
C15   H2    S    
C43   H29   S    
O10   C42   S    
C1    O1    A    
C11   C12   S    
C6    C7    A    
Cu1   O3    S    
Cu2   O4    S    
C23   O5    A    
C17   H4    S    
C21   H18   S    
C11   C13   A    
Cu1   N2    S    
C40   C41   S    
O9    C39   S    
C10   C11   A    
C4    C5    A    
C41   H25   S    
C20   C21   A    
C3    C37   A    
Cu2   O8    S    
C44   H32   S    
C27   C28   A    
C14   C15   A    
C39   H20   S    
C2    C9    A    
C27   H9    S    
C33   O8    A    
