data_mof_unit_37731.cif
_audit_creation_date              2012-12-10T18:57:40-0500
_audit_creation_method            fapswitch 2.2
_symmetry_space_group_name_H-M    P1
_symmetry_Int_Tables_number       1
_space_group_crystal_system       triclinic
_cell_length_a                    10.946026
_cell_length_b                    10.871024
_cell_length_c                    9.559125
_cell_angle_alpha                 89.564452
_cell_angle_beta                  89.613277
_cell_angle_gamma                 90.190223
_cell_volume                      1137.418169

loop_
_atom_site_label
_atom_site_type_symbol
_atom_type_description
_atom_site_fract_x
_atom_site_fract_y
_atom_site_fract_z
_atom_type_partial_charge
C1    C     C_R   0.498220 0.262625 0.500313 0.795906
C2    C     C_R   0.496257 0.129748 0.498994 -0.110310
C3    C     C_R   0.500752 0.065467 0.371052 -0.210594
C4    C     C_R   0.502621 0.936418 0.370104 -0.219835
C5    C     C_R   0.501964 0.869647 0.497251 -0.090467
C6    C     C_R   0.499297 0.936213 0.620154 0.097012
C7    C     C_3   0.498088 0.923110 0.775171 -0.487571
C8    C     C_3   0.488034 0.064885 0.777749 -0.115222
C9    C     C_R   0.584532 0.567335 0.072239 0.259884
C10   C     C_R   0.408643 0.445258 0.075630 -0.088556
C11   C     C_R   0.408140 0.446148 0.926930 -0.084378
C12   C     C_R   0.265458 0.501065 0.500484 0.847184
C13   C     C_R   0.584559 0.567279 0.924930 0.262049
C14   C     C_3   0.719663 0.552494 0.917722 -0.502803
C15   C     C_3   0.719616 0.551585 0.076002 -0.522768
C16   C     C_R   0.501250 0.737167 0.499367 0.806848
C17   C     C_R   0.734624 0.498444 0.499935 0.850176
C18   C     C_2   0.934338 0.502529 0.386318 -0.162689
C19   C     C_2   0.866552 0.491797 0.502817 -0.322326
C20   C     C_2   0.067939 0.496613 0.386596 -0.154982
C21   C     C_2   0.133625 0.506353 0.503683 -0.320611
C22   C     C_R   0.492615 0.060024 0.621404 0.077847
Cu1   Cu    Cu3+1 0.499990 0.499980 0.640670 0.931479
Cu2   Cu    Cu3+1 0.500010 0.500020 0.359330 0.937036
H1    H     H_    0.891404 0.514643 0.285727 0.159481
H2    H     H_    0.569130 0.112177 0.822189 0.164170
H3    H     H_    0.336291 0.398274 0.132213 0.147966
H4    H     H_    0.334212 0.401800 0.872598 0.136232
H5    H     H_    0.748024 0.462877 0.872810 0.216090
H6    H     H_    0.765653 0.634672 0.871380 0.191510
H7    H     H_    0.746498 0.460814 0.120134 0.213722
H8    H     H_    0.766368 0.632882 0.121207 0.191557
H9    H     H_    0.906473 0.475403 0.604473 0.142993
H10   H     H_    0.113064 0.486355 0.285776 0.160572
H11   H     H_    0.092181 0.521233 0.605188 0.143875
H12   H     H_    0.503393 0.114175 0.271935 0.163593
H13   H     H_    0.505023 0.889782 0.270397 0.160540
H14   H     H_    0.416065 0.872286 0.813814 0.201189
H15   H     H_    0.586540 0.888216 0.815547 0.178613
N1    N     N_R   0.500780 0.500930 0.147930 -0.187570
N2    N     N_R   0.500780 0.500890 0.852020 -0.187025
O1    O     O_R   0.500000 0.319640 0.618810 -0.589291
O2    O     O_R   0.500010 0.319680 0.381230 -0.584550
O3    O     O_R   0.321940 0.499980 0.618760 -0.594953
O4    O     O_R   0.321950 0.500020 0.381180 -0.584835
O5    O     O_R   0.499990 0.680320 0.618770 -0.579072
O6    O     O_R   0.500000 0.680360 0.381190 -0.586756
O7    O     O_R   0.678050 0.499980 0.618820 -0.589519
O8    O     O_R   0.678060 0.500020 0.381240 -0.579339
C23   C     C_3   0.364216 0.110047 0.833654 -0.342896
C24   C     C_3   0.362463 0.109285 0.993979 -0.361310
C25   C     C_3   0.237166 0.144979 0.051220 -0.867672
H16   H     H_    0.209726 0.236606 0.010363 0.239176
H17   H     H_    0.167672 0.075697 0.020693 0.256003
H18   H     H_    0.240539 0.148885 0.167192 0.248656
H19   H     H_    0.385679 0.016051 0.034122 0.225199
H20   H     H_    0.431901 0.175302 0.032793 0.216113
H21   H     H_    0.348171 0.204721 0.794545 0.202952
H22   H     H_    0.288768 0.051331 0.793752 0.202279

loop_
_geom_bond_atom_site_label_1
_geom_bond_atom_site_label_2
_ccdc_geom_bond_type
C10   H3    S    
C2    C22   A    
C8    C22   S    
Cu1   Cu2   S    
C25   H18   S    
C15   H7    S    
C6    C7    S    
C24   H20   S    
C8    H2    S    
Cu1   N2    S    
C17   O7    A    
C20   H10   S    
C13   N2    A    
C2    C3    A    
C9    C15   S    
C15   H8    S    
C12   O3    A    
Cu1   O5    S    
C13   C14   S    
C20   C21   D    
C4    C5    A    
Cu1   O1    S    
C18   H1    S    
C3    H12   S    
C14   H6    S    
C21   H11   S    
Cu2   O4    S    
C11   H4    S    
C16   O6    A    
C17   C19   S    
C7    H14   S    
C25   H17   S    
C11   N2    A    
C18   C20   S    
C5    C6    A    
Cu2   N1    S    
C10   C11   A    
C23   H22   S    
C14   H5    S    
C16   O5    A    
C3    C4    A    
C23   H21   S    
C8    C23   S    
C1    O1    A    
C7    C8    S    
C24   C25   S    
C25   H16   S    
C10   N1    A    
C1    C2    S    
C19   H9    S    
C17   O8    A    
Cu2   O8    S    
C12   O4    A    
Cu2   O2    S    
C9    C13   A    
C14   C15   S    
C18   C19   D    
C5    C16   S    
C7    H15   S    
Cu1   O7    S    
C23   C24   S    
Cu2   O6    S    
C12   C21   S    
C1    O2    A    
C9    N1    A    
Cu1   O3    S    
C24   H19   S    
C4    H13   S    
C6    C22   A    
