data_mof_unit_59054.cif
_audit_creation_date              2012-12-10T21:36:36-0500
_audit_creation_method            fapswitch 2.2
_symmetry_space_group_name_H-M    P1
_symmetry_Int_Tables_number       1
_space_group_crystal_system       triclinic
_cell_length_a                    10.671828
_cell_length_b                    16.333596
_cell_length_c                    16.750896
_cell_angle_alpha                 86.225103
_cell_angle_beta                  93.497002
_cell_angle_gamma                 91.647777
_cell_volume                      2907.18031594

loop_
_atom_site_label
_atom_site_type_symbol
_atom_type_description
_atom_site_fract_x
_atom_site_fract_y
_atom_site_fract_z
_atom_type_partial_charge
C1    C     C_R   0.498243 0.488052 0.653113 0.922819
C2    C     C_R   0.534232 0.233735 0.553600 0.070865
C3    C     C_R   0.417639 0.850489 0.482186 0.338083
C4    C     C_R   0.516800 0.146806 0.556013 0.334606
C5    C     C_R   0.525811 0.890787 0.516661 0.135786
C6    C     C_R   0.481895 0.109625 0.482969 0.163115
C7    C     C_R   0.621873 0.841391 0.553539 -0.005608
C8    C     C_R   0.439748 0.161397 0.416548 0.010044
C9    C     C_R   0.605701 0.754377 0.558433 0.288796
C10   C     C_R   0.428408 0.246851 0.424768 0.261052
C11   C     C_R   0.741834 0.499771 0.497481 1.075851
C12   C     C_R   0.504597 0.511930 0.346547 0.933066
C13   C     C_R   0.257765 0.499980 0.499186 1.055121
C14   C     C_3   0.962758 0.478626 0.569060 0.277532
C15   C     C_3   0.036698 0.517626 0.421773 0.276436
C16   C     C_3   0.046881 0.553736 0.545668 0.271407
C17   C     C_3   0.951187 0.443450 0.445627 0.311747
C18   C     C_3   0.123124 0.498119 0.497268 -0.547856
C19   C     C_3   0.875934 0.499114 0.494332 -0.533250
C20   C     C_3   0.038247 0.422969 0.520470 0.291023
C21   C     C_3   0.960400 0.573710 0.470074 0.282486
C22   C     C_R   0.511624 0.477625 0.740612 -0.089429
C23   C     C_R   0.573345 0.448924 0.904651 0.263539
C24   C     C_R   0.532735 0.518592 0.260903 -0.104453
C25   C     C_R   0.604830 0.524902 0.778839 -0.184624
C26   C     C_R   0.578964 0.447895 0.231164 -0.185565
C27   C     C_R   0.642603 0.507959 0.858549 0.154884
C28   C     C_R   0.614210 0.446384 0.153194 0.155047
C29   C     C_3   0.737551 0.881969 0.592386 -0.685078
C30   C     C_3   0.401010 0.125210 0.337382 -0.752003
C31   C     C_3   0.672064 0.705197 0.626880 -0.652783
C32   C     C_3   0.351263 0.296068 0.361247 -0.622915
C33   C     C_3   0.677094 0.370311 0.129964 -0.770819
C34   C     C_R   0.593624 0.516484 0.100216 0.245807
C35   C     C_3   0.758705 0.552294 0.891446 -0.809596
C36   C     C_3   0.411537 0.332181 0.915317 -0.828432
C37   C     C_3   0.549596 0.667948 0.074190 -0.841297
C38   C     C_3   0.336088 0.369430 0.746164 -0.632351
C39   C     C_3   0.478411 0.669939 0.242081 -0.800664
C40   C     C_3   0.613445 0.271069 0.619480 -0.514616
C41   C     C_3   0.328337 0.727953 0.413514 -0.531622
C42   C     C_R   0.479645 0.399437 0.867051 0.146645
C43   C     C_R   0.557040 0.590729 0.129847 0.154200
C44   C     C_R   0.446094 0.415264 0.784710 0.062519
C45   C     C_R   0.525049 0.592168 0.210714 0.175328
C46   C     C_R   0.423893 0.765018 0.470185 0.042173
H1    H     H_    0.591401 0.392625 0.269905 0.208500
H2    H     H_    0.297241 0.117748 0.331095 0.265088
H3    H     H_    0.744614 0.740235 0.661234 0.217585
H4    H     H_    0.601120 0.685910 0.670191 0.205178
H5    H     H_    0.719731 0.652037 0.607527 0.296720
H6    H     H_    0.265655 0.260656 0.342018 0.237263
H7    H     H_    0.315182 0.351896 0.383832 0.294513
H8    H     H_    0.406725 0.311493 0.308211 0.193203
H9    H     H_    0.011449 0.446274 0.786688 0.372325
H10   H     H_    0.991222 0.568842 0.206097 0.376098
H11   H     H_    0.967102 0.204996 0.567685 0.386257
H12   H     H_    0.653821 0.573040 0.745427 0.200077
H13   H     H_    0.978728 0.772167 0.354504 0.395685
H14   H     H_    0.758359 0.387719 0.093497 0.251893
H15   H     H_    0.713974 0.332558 0.183381 0.254101
H16   H     H_    0.608876 0.331063 0.096259 0.228041
H17   H     H_    0.734867 0.615224 0.905631 0.237177
H18   H     H_    0.801513 0.518767 0.945685 0.247159
H19   H     H_    0.831488 0.556846 0.846589 0.271074
H20   H     H_    0.313147 0.349717 0.921814 0.245073
H21   H     H_    0.411899 0.273926 0.884721 0.262803
H22   H     H_    0.456192 0.319414 0.976180 0.242827
H23   H     H_    0.031528 0.689292 0.710570 0.377778
H24   H     H_    0.583273 0.660354 0.013909 0.248593
H25   H     H_    0.450797 0.687848 0.065718 0.248786
H26   H     H_    0.609745 0.717395 0.099965 0.250469
H27   H     H_    0.303185 0.400320 0.688227 0.268735
H28   H     H_    0.362119 0.305601 0.736956 0.252100
H29   H     H_    0.254665 0.368110 0.784345 0.259681
H30   H     H_    0.543648 0.690978 0.291079 0.275303
H31   H     H_    0.469359 0.722495 0.197323 0.237195
H32   H     H_    0.383170 0.657573 0.262877 0.263166
H33   H     H_    0.662766 0.326472 0.596397 0.276060
H34   H     H_    0.966966 0.278754 0.308708 0.370977
H35   H     H_    0.555309 0.285826 0.668875 0.235797
H36   H     H_    0.688677 0.229037 0.643384 0.253896
H37   H     H_    0.360977 0.671431 0.393194 0.248502
H38   H     H_    0.240431 0.712574 0.442670 0.316187
H39   H     H_    0.310167 0.769603 0.359185 0.228232
H40   H     H_    0.449285 0.974497 0.699950 0.383882
H41   H     H_    0.189157 0.011789 0.497784 0.387094
H42   H     H_    0.822698 0.847466 0.582521 0.273193
H43   H     H_    0.755244 0.945034 0.566060 0.264109
H44   H     H_    0.726797 0.884771 0.657647 0.246845
H45   H     H_    0.433901 0.165803 0.286700 0.221137
H46   H     H_    0.443290 0.064840 0.331500 0.269112
N1    N     N_2   0.581733 0.445912 0.989284 -0.178106
N2    N     N_2   0.599648 0.514697 0.016202 -0.170660
N3    N     N_R   0.515540 0.716920 0.509720 -0.122392
N4    N     N_R   0.484460 0.283080 0.490280 -0.113203
N5    N     N_2   0.537710 0.978135 0.524488 -0.051061
N6    N     N_2   0.477214 0.022428 0.473214 -0.062222
O1    O     O_R   0.494440 0.422540 0.612660 -0.643317
O2    O     O_2   0.163388 0.699397 0.574886 -0.240015
O3    O     O_3   0.990694 0.653092 0.670984 -0.494620
O4    O     O_2   0.790952 0.315821 0.413958 -0.264855
O5    O     O_2   0.832231 0.416919 0.303569 -0.292189
O6    O     O_3   0.006252 0.313789 0.349842 -0.482772
O7    O     O_2   0.827914 0.514956 0.689513 -0.352963
O8    O     O_2   0.856467 0.368809 0.673996 -0.275170
O9    O     O_3   0.045029 0.453749 0.732787 -0.487130
O10   O     O_2   0.178062 0.608539 0.319284 -0.337533
O11   O     O_2   0.144274 0.463643 0.294326 -0.289195
O12   O     O_R   0.505560 0.577460 0.387340 -0.629647
O13   O     O_3   0.959198 0.563120 0.260498 -0.453224
O14   O     O_2   0.163677 0.285024 0.497922 -0.271778
O15   O     O_2   0.130857 0.313906 0.636582 -0.269876
O16   O     O_3   0.940867 0.261327 0.550079 -0.470677
O17   O     O_2   0.792179 0.661917 0.376393 -0.281668
O18   O     O_2   0.877101 0.722376 0.499312 -0.266499
O19   O     O_3   0.019116 0.722077 0.379260 -0.468623
O20   O     O_2   0.657082 0.055052 0.664302 -0.319478
O21   O     O_2   0.505231 0.142624 0.718381 -0.296112
O22   O     O_3   0.419962 0.012211 0.654335 -0.465996
O23   O     O_R   0.504420 0.561850 0.618900 -0.613290
O24   O     O_2   0.273887 0.942168 0.375764 -0.336799
O25   O     O_2   0.160993 0.845235 0.464325 -0.221897
O26   O     O_3   0.253835 0.975258 0.524315 -0.467160
O27   O     O_R   0.495580 0.438150 0.381100 -0.642639
O28   O     O_R   0.681060 0.430360 0.496900 -0.589136
O29   O     O_R   0.318940 0.569640 0.503100 -0.592217
O30   O     O_R   0.691040 0.569670 0.503140 -0.587721
O31   O     O_R   0.308960 0.430330 0.496860 -0.594800
O32   O     O_2   0.207081 0.583522 0.671718 -0.282846
S1    S     S_3+6 0.107579 0.624421 0.616892 0.125986
S2    S     S_3+6 0.889290 0.371020 0.376636 0.110147
S3    S     S_3+6 0.917982 0.452531 0.668506 0.089892
S4    S     S_3+6 0.084896 0.538369 0.321809 0.097522
S5    S     S_3+6 0.074186 0.318683 0.552448 0.134313
S6    S     S_3+6 0.907440 0.672476 0.431296 0.125788
S7    S     S_3+6 0.527745 0.089351 0.651123 0.044481
S8    S     S_3+6 0.272665 0.902892 0.459409 0.057076
Zn1   Zn    Zn3+2 0.493340 0.406980 0.495830 1.019537
Zn2   Zn    Zn3+2 0.506660 0.593020 0.504170 1.022260

loop_
_geom_bond_atom_site_label_1
_geom_bond_atom_site_label_2
_ccdc_geom_bond_type
C15   C18   S    
N1    N2    D    
C7    C29   S    
C36   C42   S    
C1    O1    A    
N4    Zn1   S    
C29   H43   S    
N5    N6    D    
C36   H21   S    
C15   S4    S    
O27   Zn1   S    
O10   S4    D    
O25   S8    D    
C11   C19   S    
N3    Zn2   S    
C16   C21   S    
C23   C42   A    
C13   C18   S    
H34   O6    S    
C24   C45   A    
C6    N6    S    
O23   Zn2   S    
C30   H2    S    
C19   C21   S    
O4    S2    D    
C30   H46   S    
H41   O26   S    
C36   H20   S    
O17   S6    D    
C35   H19   S    
C41   H37   S    
C17   C20   S    
C15   C17   S    
C32   H8    S    
C16   S1    S    
C32   H6    S    
C29   H42   S    
C4    S7    S    
O8    S3    D    
C22   C44   A    
C46   N3    A    
C33   H16   S    
C22   C25   A    
C41   C46   S    
C2    C40   S    
C35   H18   S    
C23   C27   A    
O20   S7    D    
O5    S2    D    
C9    N3    A    
H10   O13   S    
C39   C45   S    
C28   C34   A    
C1    C22   S    
H13   O19   S    
C37   H24   S    
C17   S2    S    
O1    Zn1   S    
C42   C44   A    
C31   H3    S    
C14   C19   S    
C12   O12   A    
C29   H44   S    
C38   H29   S    
O28   Zn1   S    
O2    S1    D    
O21   S7    D    
C39   H32   S    
C14   C20   S    
C11   O28   A    
O24   S8    D    
C4    C6    A    
C31   H5    S    
C5    C7    A    
C6    C8    A    
C12   O27   A    
C27   C35   S    
C41   H38   S    
C23   N1    S    
H9    O9    S    
C37   C43   S    
C2    C4    A    
C38   C44   S    
C40   H36   S    
O31   Zn1   S    
C10   N4    A    
O16   S5    S    
C40   H33   S    
C3    S8    S    
C39   H30   S    
C43   C45   A    
C26   H1    S    
O3    S1    S    
C33   H15   S    
C5    N5    S    
C28   C33   S    
C33   H14   S    
C37   H25   S    
O6    S2    S    
C14   C16   S    
O29   Zn2   S    
C31   H4    S    
C39   H31   S    
C32   H7    S    
O7    S3    D    
C25   H12   S    
C38   H28   S    
O26   S8    S    
C7    C9    A    
C21   S6    S    
O11   S4    D    
C40   H35   S    
C16   C18   S    
C34   C43   A    
C34   N2    S    
C24   C26   A    
C30   H45   S    
C3    C5    A    
C35   H17   S    
C36   H22   S    
O13   S4    S    
H11   O16   S    
O18   S6    D    
C14   S3    S    
H23   O3    S    
C25   C27   A    
C41   H39   S    
C12   C24   S    
C3    C46   A    
C26   C28   A    
C8    C30   S    
C2    N4    A    
C11   O30   A    
O30   Zn2   S    
O9    S3    S    
O12   Zn2   S    
C17   C19   S    
O32   S1    D    
C18   C20   S    
C20   S5    S    
C1    O23   A    
C9    C31   S    
C13   O29   A    
C10   C32   S    
C15   C21   S    
C8    C10   A    
O15   S5    D    
C37   H26   S    
C13   O31   A    
H40   O22   S    
O22   S7    S    
O14   S5    D    
O19   S6    S    
C38   H27   S    
