data_mof_unit_27723.cif
_audit_creation_date              2012-12-11T14:19:28-0500
_audit_creation_method            fapswitch 2.2
_symmetry_space_group_name_H-M    P1
_symmetry_Int_Tables_number       1
_space_group_crystal_system       triclinic
_cell_length_a                    19.464243
_cell_length_b                    7.228078
_cell_length_c                    17.786236
_cell_angle_alpha                 89.843975
_cell_angle_beta                  107.638886
_cell_angle_gamma                 90.029563
_cell_volume                      2384.67356254

loop_
_atom_site_label
_atom_site_type_symbol
_atom_type_description
_atom_site_fract_x
_atom_site_fract_y
_atom_site_fract_z
_atom_type_partial_charge
O1    O     O_R   0.414820 0.494320 0.416790 -0.543065
O2    O     O_R   0.585180 0.994320 0.583210 -0.534046
O3    O     O_R   0.560270 0.819500 0.430140 -0.527727
O4    O     O_R   0.439730 0.319500 0.569860 -0.532621
C1    C     C_R   0.581027 0.655594 0.414663 0.744210
C2    C     C_R   0.419289 0.154825 0.585785 0.759676
O5    O     O_R   0.413840 0.823740 0.407440 -0.504949
O6    O     O_R   0.586160 0.323740 0.592560 -0.513236
O7    O     O_R   0.437710 0.998590 0.560350 -0.512983
O8    O     O_R   0.562290 0.498590 0.439650 -0.538238
C3    C     C_R   0.387559 0.655699 0.385613 0.785802
C4    C     C_R   0.611777 0.155124 0.615551 0.768087
O9    O     O_3   0.508000 0.662290 0.550200 -0.355714
O10   O     O_3   0.492000 0.162290 0.449800 -0.374258
V1    V     V_3+5 0.498520 0.935380 0.490690 1.693653
V2    V     V_3+5 0.501480 0.435380 0.509310 1.665704
C5    C     C_2   0.772103 0.248472 0.804077 0.331448
C6    C     C_2   0.217218 0.767748 0.212474 0.325764
C7    C     C_2   0.824921 0.120162 0.812092 0.091797
C8    C     C_2   0.173619 0.616795 0.191176 0.089019
C9    C     C_2   0.714720 0.280719 0.727942 0.403755
C10   C     C_2   0.274221 0.779179 0.289956 0.420086
C11   C     C_2   0.674300 0.139033 0.688064 -0.298717
C12   C     C_2   0.324288 0.644406 0.314339 -0.295140
H1    H     H_    0.686004 0.000273 0.712260 0.191788
H2    H     H_    0.320161 0.520881 0.278562 0.174926
C13   C     C_R   0.309638 0.266125 0.619143 0.336277
C14   C     C_R   0.688860 0.523206 0.382573 0.313918
C15   C     C_R   0.369826 0.145844 0.635471 -0.235807
C16   C     C_R   0.630222 0.648659 0.364899 -0.254344
C17   C     C_R   0.383815 0.022269 0.700191 0.373072
C18   C     C_R   0.618051 0.766537 0.298812 0.393740
C19   C     C_R   0.342558 0.032271 0.753967 -0.106505
C20   C     C_R   0.669610 0.777904 0.257053 -0.057011
C21   C     C_R   0.279591 0.145108 0.734296 -0.128444
C22   C     C_R   0.722842 0.637473 0.269225 -0.114254
C23   C     C_R   0.262470 0.260419 0.666247 -0.013798
C24   C     C_R   0.729202 0.501784 0.328878 0.016391
C25   C     C_R   0.362390 0.937397 0.827753 0.419381
C26   C     C_R   0.669959 0.924611 0.203960 0.315484
C27   C     C_R   0.315986 0.933212 0.874446 0.342701
C28   C     C_R   0.715466 0.917314 0.155373 0.368472
C29   C     C_R   0.248566 0.024755 0.849668 -0.061034
C30   C     C_R   0.765421 0.770536 0.163662 0.010697
C31   C     C_R   0.233059 0.141489 0.782458 -0.074238
C32   C     C_R   0.770132 0.633117 0.222224 -0.104526
C33   C     C_R   0.171017 0.255229 0.763778 0.050369
C34   C     C_R   0.821966 0.490202 0.233374 0.051929
C35   C     C_R   0.155080 0.373227 0.697871 0.318569
C36   C     C_R   0.825961 0.350061 0.289674 0.337065
C37   C     C_R   0.198428 0.369341 0.647149 0.300914
C38   C     C_R   0.778356 0.352469 0.335788 0.337096
C39   C     C_R   0.197675 0.006513 0.892068 0.363205
C40   C     C_R   0.810536 0.757599 0.114096 0.434983
C41   C     C_R   0.135656 0.121243 0.872758 -0.178473
C42   C     C_R   0.864927 0.619947 0.128673 -0.213314
C43   C     C_R   0.124529 0.247779 0.810742 -0.159433
C44   C     C_R   0.869282 0.487582 0.187399 -0.139082
H3    H     H_    0.077024 0.335003 0.797088 0.184396
H4    H     H_    0.910519 0.381787 0.197334 0.190470
O11   O     O_R   0.937810 0.773680 0.060480 -0.532952
O12   O     O_R   0.062190 0.273680 0.939520 -0.534350
O13   O     O_R   0.086190 0.439740 0.092580 -0.537818
O14   O     O_R   0.913810 0.939740 0.907420 -0.543657
C45   C     C_R   0.111719 0.608724 0.116174 0.691674
C46   C     C_R   0.887765 0.108760 0.885121 0.706415
O15   O     O_R   0.939760 0.444210 0.069890 -0.530772
O16   O     O_R   0.060240 0.944210 0.930110 -0.536608
O17   O     O_R   0.914790 0.269640 0.916760 -0.517892
O18   O     O_R   0.085210 0.769640 0.083240 -0.517476
C47   C     C_R   0.917616 0.612220 0.083090 0.711198
C48   C     C_R   0.082159 0.112418 0.916904 0.690048
O19   O     O_3   0.992050 0.601530 0.949880 -0.378154
O20   O     O_3   0.007950 0.101530 0.050120 -0.366236
V3    V     V_3+5 0.001480 0.328340 0.009300 1.589124
V4    V     V_3+5 0.998520 0.828340 0.990700 1.568896
Cl1   Cl    Cl    0.768717 0.391576 0.883565 -0.546762
Cl2   Cl    Cl    0.209572 0.967372 0.152721 -0.597008
O21   O     O_3   0.094501 0.484885 0.682338 -0.636069
H5    H     H_    0.092873 0.571702 0.638718 0.345982
O22   O     O_3   0.875510 0.208590 0.296295 -0.639503
H6    H     H_    0.874576 0.122866 0.339425 0.340607
O23   O     O_3   0.174983 0.467124 0.577491 -0.608004
H7    H     H_    0.169751 0.376039 0.534491 0.334219
O24   O     O_3   0.778660 0.202310 0.383988 -0.621287
H8    H     H_    0.727809 0.169240 0.377819 0.347399
O25   O     O_3   0.822614 0.007308 0.748607 -0.634392
H9    H     H_    0.867115 0.931509 0.761785 0.317382
O26   O     O_3   0.185146 0.470491 0.244169 -0.625090
H10   H     H_    0.145846 0.378804 0.226113 0.341791
Cl3   Cl    Cl    0.701224 0.513337 0.695681 -0.551292
Cl4   Cl    Cl    0.274328 0.980156 0.346645 -0.568000
O27   O     O_3   0.296536 0.391724 0.557675 -0.601732
H11   H     H_    0.307345 0.332013 0.512471 0.303629
O28   O     O_3   0.709642 0.425791 0.452956 -0.614892
H12   H     H_    0.695504 0.495724 0.493727 0.309295
Cl5   Cl    Cl    0.449087 0.845839 0.707759 -0.502095
Cl6   Cl    Cl    0.531284 0.867993 0.260532 -0.493282
Cl7   Cl    Cl    0.450225 0.850287 0.874236 -0.398132
Cl8   Cl    Cl    0.625701 0.137317 0.208134 -0.563717
O29   O     O_3   0.340670 0.847971 0.947161 -0.551873
H13   H     H_    0.334040 0.936942 0.986761 0.356008
O30   O     O_3   0.714778 0.058376 0.102436 -0.566986
H14   H     H_    0.666446 0.116239 0.085058 0.369479
O31   O     O_3   0.208648 0.872047 0.949887 -0.611718
H15   H     H_    0.188005 0.914471 0.991154 0.329845
O32   O     O_3   0.798998 0.876121 0.050365 -0.577057
H16   H     H_    0.808081 0.808028 0.006043 0.317930

loop_
_geom_bond_atom_site_label_1
_geom_bond_atom_site_label_2
_ccdc_geom_bond_type
O25   H9    S    
O13   C45   A    
O29   H13   S    
C13   C15   A    
O31   H15   S    
O28   H12   S    
O1    C3    A    
O2    C4    A    
C28   O30   S    
C2    O7    A    
O22   H6    S    
C33   C35   A    
O24   H8    S    
O5    C3    A    
C4    C11   S    
C19   C25   A    
C40   O32   S    
C14   O28   S    
C20   C26   A    
C38   O24   S    
C21   C23   A    
C12   H2    S    
C7    O25   S    
C23   C37   A    
C43   H3    S    
C46   O17   A    
C24   C38   A    
C44   H4    S    
C45   O18   A    
C3    C12   S    
C7    C46   S    
C31   C33   A    
C5    C7    D    
C9    C11   D    
C29   C39   A    
C18   Cl6   S    
C35   C37   A    
C36   C38   A    
O32   H16   S    
C17   C19   A    
C22   C32   A    
C42   C44   A    
C6    C8    D    
C41   C48   S    
O16   C48   A    
O11   C47   A    
C34   C36   A    
O6    V2    S    
C27   C29   A    
C28   C30   A    
C30   C32   A    
C8    O26   S    
C32   C34   A    
C39   C41   A    
O11   V4    S    
C40   C42   A    
O20   V3    S    
C8    C45   S    
C25   C27   A    
O5    V1    S    
C5    C9    S    
C35   O21   S    
C18   C20   A    
O4    V2    S    
C39   O31   S    
C33   C43   A    
C25   Cl7   S    
O23   H7    S    
C14   C24   A    
O6    C4    A    
C42   C47   S    
C5    Cl1   S    
O14   V4    S    
O12   C48   A    
O1    V2    S    
O2    V1    S    
C29   C31   A    
O4    C2    A    
C6    Cl2   S    
C41   C43   A    
O18   V4    S    
O19   V4    S    
C10   C12   D    
O12   V3    S    
C13   O27   S    
O15   V3    S    
C22   C24   A    
C21   C31   A    
C37   O23   S    
O3    V1    S    
C1    C16   S    
C9    Cl3   S    
C6    C10   S    
O3    C1    A    
C26   Cl8   S    
C34   C44   A    
C17   Cl5   S    
O16   V4    S    
O27   H11   S    
C14   C16   A    
O7    V1    S    
C1    O8    A    
C15   C17   A    
O8    V2    S    
C16   C18   A    
O13   V3    S    
C13   C23   A    
C26   C28   A    
C19   C21   A    
C20   C22   A    
C27   O29   S    
O17   V3    S    
O15   C47   A    
C11   H1    S    
O21   H5    S    
C30   C40   A    
C2    C15   S    
O9    V2    S    
O30   H14   S    
C10   Cl4   S    
O10   V1    S    
O26   H10   S    
C36   O22   S    
O14   C46   A    
