data_mof_unit_35183.cif
_audit_creation_date              2012-12-10T17:11:29-0500
_audit_creation_method            fapswitch 2.2
_symmetry_space_group_name_H-M    P1
_symmetry_Int_Tables_number       1
_space_group_crystal_system       triclinic
_cell_length_a                    15.117838
_cell_length_b                    13.023169
_cell_length_c                    11.757161
_cell_angle_alpha                 99.488356
_cell_angle_beta                  93.27514
_cell_angle_gamma                 91.598818
_cell_volume                      2277.7405758

loop_
_atom_site_label
_atom_site_type_symbol
_atom_type_description
_atom_site_fract_x
_atom_site_fract_y
_atom_site_fract_z
_atom_type_partial_charge
C1    C     C_R   0.500251 0.299406 0.478822 0.837498
C2    C     C_R   0.499809 0.700269 0.520700 0.953474
C3    C     C_R   0.041800 0.339758 0.356069 -0.035625
C4    C     C_R   0.960681 0.677332 0.606314 -0.028075
C5    C     C_R   0.509017 0.812824 0.529388 -0.165419
C6    C     C_R   0.501583 0.185603 0.465262 -0.209540
C7    C     C_R   0.446592 0.019046 0.357043 -0.126152
C8    C     C_R   0.602667 0.967913 0.595456 -0.062279
C9    C     C_R   0.454256 0.126877 0.369089 0.541748
C10   C     C_R   0.581024 0.863771 0.597646 0.480881
C11   C     C_R   0.549776 0.135264 0.545407 -0.081768
C12   C     C_R   0.456843 0.866130 0.456398 -0.036654
C13   C     C_R   0.546640 0.024897 0.529557 0.034036
C14   C     C_R   0.482988 0.969117 0.446535 -0.049981
C15   C     C_R   0.416502 0.399695 0.026065 0.570033
C16   C     C_R   0.585213 0.598152 0.973756 0.572528
C17   C     C_R   0.425079 0.409770 0.146506 0.075503
C18   C     C_R   0.576585 0.588128 0.853410 0.051810
C19   C     C_R   0.535919 0.544230 0.156131 0.088982
C20   C     C_R   0.462127 0.458048 0.844163 0.102214
C21   C     C_R   0.530580 0.536593 0.033124 -0.176052
C22   C     C_R   0.468767 0.464088 0.967023 -0.171285
C23   C     C_R   0.329576 0.501519 0.501058 0.830973
C24   C     C_R   0.671204 0.498961 0.499218 0.814108
C25   C     C_R   0.821403 0.570864 0.574454 -0.067487
C26   C     C_R   0.183551 0.411559 0.457506 -0.063114
C27   C     C_R   0.768574 0.496976 0.497080 -0.152018
C28   C     C_R   0.233514 0.502608 0.503225 -0.110828
C29   C     C_R   0.808971 0.423153 0.416004 -0.072438
C30   C     C_R   0.191974 0.594946 0.546839 -0.038024
C31   C     C_R   0.903386 0.418592 0.420107 -0.010889
C32   C     C_R   0.098395 0.592990 0.553160 -0.026721
C33   C     C_R   0.954358 0.503315 0.487642 0.042296
C34   C     C_R   0.047946 0.505322 0.490580 0.038643
C35   C     C_R   0.911710 0.585163 0.555170 0.076140
C36   C     C_R   0.091376 0.418335 0.433401 0.081730
C37   C     C_R   0.948576 0.334876 0.356599 -0.098966
C38   C     C_R   0.053694 0.677350 0.615333 -0.098795
Cu1   Cu    Cu3+1 0.506660 0.507730 0.615930 1.007240
Cu2   Cu    Cu3+1 0.493340 0.492270 0.384070 1.042304
H1    H     H_    0.618047 0.636367 0.810251 0.183260
H2    H     H_    0.384712 0.360215 0.189853 0.205930
N1    N     N_R   0.516670 0.519360 0.790130 -0.271825
N2    N     N_R   0.483330 0.480640 0.209870 -0.269859
O1    O     O_R   0.504720 0.354460 0.582000 -0.664369
O2    O     O_R   0.495280 0.645540 0.418000 -0.548255
O3    O     O_R   0.493480 0.341410 0.386200 -0.499618
O4    O     O_R   0.506520 0.658590 0.613800 -0.529935
O5    O     O_R   0.375880 0.506510 0.597910 -0.541190
O6    O     O_R   0.624120 0.493490 0.402090 -0.607047
O7    O     O_R   0.364640 0.493450 0.402110 -0.573265
O8    O     O_R   0.635360 0.506550 0.597890 -0.613038
C39   C     C_2   0.784296 0.626942 0.680653 0.422910
H3    H     H_    0.721328 0.663207 0.675856 0.160092
O9    O     O_2   0.824533 0.632297 0.774654 -0.512249
C40   C     C_2   0.227383 0.309354 0.448832 0.432551
H4    H     H_    0.296323 0.302760 0.428774 0.082651
O10   O     O_2   0.187641 0.232346 0.469726 -0.524706
F1    F     F_    0.357967 0.325144 0.969440 -0.612828
F2    F     F_    0.648356 0.667389 0.029583 -0.619343
C41   C     C_2   0.751986 0.353783 0.326319 0.379896
H5    H     H_    0.764160 0.350459 0.235734 0.117825
O11   O     O_2   0.693536 0.297494 0.353316 -0.525366
C42   C     C_2   0.245371 0.694607 0.573758 0.373803
H6    H     H_    0.221982 0.762437 0.540210 0.109446
O12   O     O_2   0.312835 0.703261 0.637230 -0.519223
C43   C     C_2   0.900952 0.236662 0.300174 0.328289
H7    H     H_    0.860479 0.193521 0.350857 0.149090
O13   O     O_2   0.903848 0.205734 0.196636 -0.505046
C44   C     C_2   0.102412 0.759430 0.700965 0.328848
H8    H     H_    0.148052 0.736856 0.766316 0.140341
O14   O     O_2   0.095424 0.851741 0.695675 -0.509767
C45   C     C_2   0.086362 0.267385 0.267128 0.525978
H9    H     H_    0.065865 0.185650 0.246548 0.122987
O15   O     O_2   0.145735 0.299585 0.214515 -0.504042
C46   C     C_2   0.915260 0.776594 0.642760 0.496557
H10   H     H_    0.935533 0.827291 0.723256 0.134920
O16   O     O_2   0.854881 0.802832 0.581498 -0.520621
C47   C     C_2   0.366776 0.824575 0.408386 0.444282
H11   H     H_    0.313785 0.878481 0.403139 0.053753
O17   O     O_2   0.350687 0.732479 0.371442 -0.509538
C48   C     C_2   0.595809 0.198444 0.650100 0.452854
H12   H     H_    0.639377 0.264205 0.642064 0.116939
O18   O     O_2   0.583255 0.179008 0.746156 -0.538523
F3    F     F_    0.633750 0.809967 0.662292 -0.695857
F4    F     F_    0.413204 0.174824 0.287235 -0.668213
C49   C     C_2   0.408237 0.961508 0.244393 0.465513
H13   H     H_    0.358363 0.996664 0.194601 0.136958
O19   O     O_2   0.435269 0.876725 0.203294 -0.453318
C50   C     C_2   0.691195 0.007774 0.648390 0.554712
H14   H     H_    0.717668 0.981956 0.726251 0.140920
O20   O     O_2   0.737553 0.064716 0.601696 -0.529022
C51   C     C_2   0.394644 0.387192 0.774321 0.629014
H15   H     H_    0.412626 0.311783 0.729955 0.070193
O21   O     O_2   0.316965 0.410493 0.771680 -0.483552
C52   C     C_2   0.597988 0.621594 0.226834 0.640293
H16   H     H_    0.661528 0.598226 0.259179 0.034699
O22   O     O_2   0.580404 0.713588 0.243672 -0.445923

loop_
_geom_bond_atom_site_label_1
_geom_bond_atom_site_label_2
_ccdc_geom_bond_type
C24   O8    A    
Cu2   O3    S    
C49   H13   S    
C38   C44   S    
C10   F3    S    
C16   C21   A    
C30   C42   S    
C27   C29   A    
C45   H9    S    
C24   C27   S    
C20   C51   S    
C6    C9    A    
C15   C22   A    
C39   H3    S    
C2    O2    A    
Cu2   O2    S    
C51   H15   S    
C46   O16   D    
C19   C21   A    
C25   C39   S    
C23   O5    A    
C12   C47   S    
C40   H4    S    
C7    C9    A    
C16   F2    S    
C41   O11   D    
C17   H2    S    
C23   O7    A    
C7    C14   A    
C7    C49   S    
C52   O22   D    
C31   C33   A    
C44   H8    S    
C32   C38   A    
Cu1   O1    S    
Cu1   O8    S    
C4    C35   A    
C51   O21   D    
C21   C22   A    
C45   O15   D    
C39   O9    D    
C11   C48   S    
C24   O6    A    
C29   C41   S    
C43   H7    S    
C46   H10   S    
C5    C12   A    
C18   H1    S    
C6    C11   A    
C47   O17   D    
C1    O3    A    
Cu1   N1    S    
C2    O4    A    
C1    C6    S    
C43   O13   D    
C32   C34   A    
C9    F4    S    
C50   O20   D    
C52   H16   S    
C33   C34   A    
C23   C28   S    
C25   C35   A    
C26   C36   A    
Cu1   O5    S    
C12   C14   A    
C48   O18   D    
C49   O19   D    
C2    C5    S    
C8    C50   S    
C20   C22   A    
Cu1   Cu2   S    
C20   N1    A    
C19   N2    A    
C15   C17   A    
C15   F1    S    
C8    C10   A    
C4    C38   A    
C26   C40   S    
C25   C27   A    
Cu2   O7    S    
C26   C28   A    
C42   H6    S    
C28   C30   A    
C17   N2    A    
C5    C10   A    
C29   C31   A    
C18   N1    A    
C30   C32   A    
C11   C13   A    
C1    O1    A    
C50   H14   S    
C3    C36   A    
Cu2   O6    S    
C37   C43   S    
C33   C35   A    
C40   O10   D    
C34   C36   A    
C41   H5    S    
C3    C45   S    
C4    C46   S    
C47   H11   S    
C8    C13   A    
C31   C37   A    
Cu2   N2    S    
C3    C37   A    
C16   C18   A    
C48   H12   S    
C44   O14   D    
C13   C14   A    
C19   C52   S    
C42   O12   D    
Cu1   O4    S    
