data_mof_unit_27849.cif
_audit_creation_date              2012-12-10T20:45:34-0500
_audit_creation_method            fapswitch 2.2
_symmetry_space_group_name_H-M    P1
_symmetry_Int_Tables_number       1
_space_group_crystal_system       triclinic
_cell_length_a                    10.737982
_cell_length_b                    10.708891
_cell_length_c                    9.841139
_cell_angle_alpha                 89.99099
_cell_angle_beta                  90.591005
_cell_angle_gamma                 89.912963
_cell_volume                      1131.5895379

loop_
_atom_site_label
_atom_site_type_symbol
_atom_type_description
_atom_site_fract_x
_atom_site_fract_y
_atom_site_fract_z
_atom_type_partial_charge
C1    C     C_R   0.496445 0.259987 0.499772 0.873987
C2    C     C_R   0.817561 0.410579 0.969799 -0.172918
C3    C     C_R   0.800959 0.281360 0.975695 -0.113034
C4    C     C_R   0.260131 0.504792 0.499021 0.857938
C5    C     C_R   0.828115 0.207542 0.862666 -0.152702
C6    C     C_R   0.869673 0.262991 0.742664 -0.171337
C7    C     C_R   0.885811 0.392808 0.735998 0.137523
C8    C     C_R   0.458009 0.063978 0.618093 0.120102
C9    C     C_R   0.478996 0.128631 0.497696 -0.086611
C10   C     C_R   0.481838 0.064576 0.373529 -0.237274
C11   C     C_R   0.485538 0.935968 0.373890 -0.245464
C12   C     C_R   0.210917 0.755486 0.046436 -0.112999
C13   C     C_R   0.483509 0.871896 0.498004 -0.100349
C14   C     C_R   0.460633 0.936158 0.618213 0.099774
C15   C     C_3   0.529551 0.931031 0.750802 -0.392748
C16   C     C_R   0.498495 0.740172 0.499786 0.876472
C17   C     C_3   0.525967 0.072135 0.750953 -0.525485
C18   C     C_R   0.455605 0.399236 0.070906 0.189388
C19   C     C_R   0.557107 0.592302 0.072902 -0.252097
C20   C     C_R   0.558678 0.591358 0.928879 0.625031
C21   C     C_R   0.453184 0.400571 0.928245 0.131129
C22   C     C_3   0.322608 0.353278 0.923737 -0.496887
C23   C     C_R   0.931288 0.553695 0.392412 -0.249549
C24   C     C_3   0.327709 0.346585 0.077835 -0.477247
C25   C     C_R   0.740012 0.497645 0.501132 0.877815
C26   C     C_R   0.235815 0.797933 0.178161 -0.129562
C27   C     C_R   0.189071 0.733468 0.290323 -0.087840
C28   C     C_R   0.115521 0.626400 0.270911 0.135142
C29   C     C_R   0.088197 0.586433 0.137796 -0.193669
C30   C     C_R   0.136862 0.649934 0.026233 -0.139380
C31   C     C_R   0.872506 0.499194 0.503498 -0.076645
C32   C     C_R   0.941181 0.450520 0.614159 -0.010842
C33   C     C_R   0.068637 0.454725 0.608771 -0.258298
C34   C     C_R   0.127672 0.508888 0.497803 -0.078300
C35   C     C_R   0.059268 0.560977 0.388413 -0.002906
C36   C     C_R   0.860717 0.466284 0.850719 -0.085533
F1    F     F_    0.620705 0.682041 0.862274 -0.696189
H1    H     H_    0.247898 0.805195 0.960017 0.122371
H2    H     H_    0.619040 0.115550 0.740584 0.219198
H3    H     H_    0.601858 0.667506 0.128031 0.170725
H4    H     H_    0.289928 0.881864 0.192892 0.127439
H5    H     H_    0.255883 0.424625 0.885332 0.208084
H6    H     H_    0.314366 0.260417 0.874525 0.197184
H7    H     H_    0.261435 0.409935 0.128754 0.232860
H8    H     H_    0.328197 0.249341 0.117370 0.188933
H9    H     H_    0.208474 0.767912 0.391822 0.101397
H10   H     H_    0.030946 0.504741 0.120723 0.138745
H11   H     H_    0.116650 0.617641 0.924151 0.131082
H12   H     H_    0.768142 0.238356 0.068186 0.133274
H13   H     H_    0.877078 0.594431 0.309866 0.161266
H14   H     H_    0.121950 0.413201 0.691327 0.158355
H15   H     H_    0.875361 0.566294 0.848014 0.151952
H16   H     H_    0.798310 0.467403 0.058059 0.138784
H17   H     H_    0.817228 0.107208 0.868188 0.137985
H18   H     H_    0.891283 0.204860 0.655974 0.125984
H19   H     H_    0.491066 0.112859 0.277399 0.168507
H20   H     H_    0.498261 0.887869 0.278204 0.171431
H21   H     H_    0.472850 0.888709 0.832696 0.216371
H22   H     H_    0.625496 0.893146 0.740723 0.247014
H23   H     H_    0.467675 0.110942 0.833269 0.203173
N1    N     N_R   0.499160 0.499140 0.142800 -0.127692
N2    N     N_R   0.499160 0.499180 0.857150 -0.149158
O1    O     O_R   0.500020 0.316790 0.614690 -0.614051
O2    O     O_R   0.500000 0.316760 0.385350 -0.625890
O3    O     O_R   0.316770 0.500030 0.614670 -0.633710
O4    O     O_R   0.316750 0.499990 0.385330 -0.611475
O5    O     O_R   0.500000 0.683240 0.614650 -0.565270
O6    O     O_R   0.499980 0.683210 0.385310 -0.631280
O7    O     O_R   0.683250 0.500010 0.614670 -0.580504
O8    O     O_R   0.683230 0.499970 0.385330 -0.631798
Zn1   Zn    Zn3+2 0.500010 0.500020 0.653130 0.995928
Zn2   Zn    Zn3+2 0.499990 0.499980 0.346870 0.944354

loop_
_geom_bond_atom_site_label_1
_geom_bond_atom_site_label_2
_ccdc_geom_bond_type
C25   C31   S    
C8    C14   A    
C1    O2    A    
C18   N1    A    
C29   C30   A    
C16   O6    A    
C33   H14   S    
C18   C21   A    
C10   H19   S    
C7    C36   A    
C19   C20   A    
C23   C35   A    
C8    C17   S    
C36   H15   S    
C6    H18   S    
O6    Zn2   S    
C32   C33   A    
C22   C24   S    
C14   C15   S    
C2    C3    A    
C26   C27   A    
C16   O5    A    
O3    Zn1   S    
C13   C14   A    
C4    O4    A    
C20   F1    S    
C11   C13   A    
C21   N2    A    
C22   H5    S    
C29   H10   S    
C18   C24   S    
C24   H8    S    
C1    O1    A    
C27   H9    S    
C21   C22   S    
C28   C29   A    
O1    Zn1   S    
N2    Zn1   S    
C33   C34   A    
C6    C7    A    
O5    Zn1   S    
C19   H3    S    
O2    Zn2   S    
C12   H1    S    
C5    C6    A    
C24   H7    S    
C15   H21   S    
C4    C34   S    
C7    C32   S    
C25   O7    A    
C10   C11   A    
C17   H23   S    
C2    C36   A    
C3    H12   S    
C19   N1    A    
C5    H17   S    
C1    C9    S    
N1    Zn2   S    
O7    Zn1   S    
C34   C35   A    
C9    C10   A    
C13   C16   S    
C30   H11   S    
C27   C28   A    
C15   C17   S    
C17   H2    S    
C4    O3    A    
C8    C9    A    
C23   H13   S    
O8    Zn2   S    
C25   O8    A    
C12   C30   A    
C11   H20   S    
C28   C35   S    
C15   H22   S    
C31   C32   A    
O4    Zn2   S    
C22   H6    S    
C26   H4    S    
C12   C26   A    
C20   N2    A    
C3    C5    A    
C2    H16   S    
C23   C31   A    
