data_mof_unit_55617.cif
_audit_creation_date              2012-12-10T18:50:01-0500
_audit_creation_method            fapswitch 2.2
_symmetry_space_group_name_H-M    P1
_symmetry_Int_Tables_number       1
_space_group_crystal_system       triclinic
_cell_length_a                    10.667747
_cell_length_b                    9.844472
_cell_length_c                    10.639358
_cell_angle_alpha                 90.130508
_cell_angle_beta                  90.093847
_cell_angle_gamma                 89.994686
_cell_volume                      1117.32327835

loop_
_atom_site_label
_atom_site_type_symbol
_atom_type_description
_atom_site_fract_x
_atom_site_fract_y
_atom_site_fract_z
_atom_type_partial_charge
C1    C     C_R   0.260231 0.500083 0.499536 1.030170
C2    C     C_R   0.569791 0.928267 0.585484 -0.028193
C3    C     C_R   0.430104 0.927863 0.414487 -0.041564
C4    C     C_R   0.430138 0.071741 0.414458 -0.031462
C5    C     C_R   0.499982 0.499607 0.257617 0.871923
C6    C     C_R   0.739710 0.500057 0.499665 1.029795
C7    C     C_R   0.500068 0.499765 0.742498 0.866433
C8    C     C_3   0.381403 0.572146 0.072350 -0.397798
C9    C     C_3   0.500224 0.350047 0.071257 -0.364899
C10   C     C_3   0.381261 0.571622 0.928143 -0.342602
C11   C     C_3   0.500279 0.350048 0.928451 -0.392541
C12   C     C_3   0.618686 0.571964 0.928538 -0.353506
C13   C     C_3   0.618467 0.572501 0.072749 -0.386875
C14   C     C_3   0.500022 0.498502 0.121370 0.130959
C15   C     C_3   0.500076 0.498544 0.878989 0.100154
C16   C     C_R   0.064567 0.426632 0.405488 0.314899
C17   C     C_R   0.064776 0.576235 0.590996 0.321595
C18   C     C_R   0.935051 0.426580 0.405549 0.320427
C19   C     C_R   0.935476 0.576099 0.591115 0.316548
C20   C     C_R   0.872078 0.500489 0.498995 -0.364336
C21   C     C_R   0.127860 0.500593 0.498869 -0.364608
C22   C     C_R   0.569807 0.072139 0.585473 -0.043772
Cl1   Cl    Cl    0.146575 0.339434 0.284965 -0.580886
Cl2   Cl    Cl    0.146499 0.668053 0.708887 -0.554869
Cl3   Cl    Cl    0.852626 0.339200 0.285163 -0.552852
Cl4   Cl    Cl    0.854158 0.667377 0.709384 -0.584390
H1    H     H_    0.379047 0.678996 0.106814 0.186713
H2    H     H_    0.584724 0.294724 0.894138 0.190886
H3    H     H_    0.620501 0.679366 0.107180 0.193281
H4    H     H_    0.704503 0.521341 0.108225 0.220471
H5    H     H_    0.621778 0.678496 0.893779 0.210260
H6    H     H_    0.704232 0.519015 0.894183 0.218303
H7    H     H_    0.625665 0.126791 0.653834 0.138019
H8    H     H_    0.625584 0.873954 0.653886 0.169377
H9    H     H_    0.584669 0.294762 0.105657 0.216146
H10   H     H_    0.374202 0.873211 0.346162 0.138159
H11   H     H_    0.374327 0.126067 0.346070 0.167965
H12   H     H_    0.295499 0.520701 0.107501 0.221010
H13   H     H_    0.415900 0.294513 0.105336 0.207326
H14   H     H_    0.295859 0.518445 0.893469 0.217488
H15   H     H_    0.416005 0.294464 0.893838 0.199615
H16   H     H_    0.377936 0.678154 0.893415 0.216675
N1    N     N_R   0.499970 0.857200 0.499970 -0.089678
N2    N     N_R   0.499970 0.142800 0.499970 -0.089741
O1    O     O_R   0.316750 0.614620 0.499990 -0.587233
O2    O     O_R   0.316750 0.385380 0.499990 -0.589635
O3    O     O_R   0.499970 0.614670 0.314790 -0.646175
O4    O     O_R   0.499970 0.385330 0.314790 -0.609259
O5    O     O_R   0.683220 0.614710 0.500010 -0.588312
O6    O     O_R   0.683220 0.385290 0.500010 -0.588677
O7    O     O_R   0.500010 0.614660 0.685200 -0.607948
O8    O     O_R   0.500010 0.385340 0.685200 -0.644636
Zn1   Zn    Zn3+2 0.499980 0.653120 0.500000 1.006296
Zn2   Zn    Zn3+2 0.499980 0.346880 0.500000 1.005556

loop_
_geom_bond_atom_site_label_1
_geom_bond_atom_site_label_2
_ccdc_geom_bond_type
C2    C22   A    
C9    C14   S    
C1    C21   S    
C16   C21   A    
C10   H16   S    
C5    O3    A    
C19   C20   A    
C12   C15   S    
C2    N1    A    
O3    Zn1   S    
C1    O1    A    
O2    Zn2   S    
C7    C15   S    
O1    Zn1   S    
C6    O5    A    
C13   C14   S    
C12   H6    S    
O4    Zn2   S    
C9    C11   S    
C3    N1    A    
C5    C14   S    
O6    Zn2   S    
C18   Cl3   S    
C8    H12   S    
C11   H2    S    
C22   H7    S    
O5    Zn1   S    
C3    H10   S    
C13   H3    S    
C17   C19   A    
O8    Zn2   S    
C7    O8    A    
C11   H15   S    
C16   Cl1   S    
C18   C20   A    
C10   C15   S    
C12   H5    S    
C5    O4    A    
C22   N2    A    
C1    O2    A    
C17   Cl2   S    
C7    O7    A    
C3    C4    A    
C6    O6    A    
N2    Zn2   S    
C13   H4    S    
C9    H13   S    
C6    C20   S    
C12   C13   S    
C16   C18   A    
C9    H9    S    
C19   Cl4   S    
C8    H1    S    
C10   H14   S    
C8    C14   S    
C4    N2    A    
C2    H8    S    
C11   C15   S    
N1    Zn1   S    
C8    C10   S    
C17   C21   A    
C4    H11   S    
O7    Zn1   S    
