data_mof_unit_62031.cif
_audit_creation_date              2012-12-10T19:02:38-0500
_audit_creation_method            fapswitch 2.2
_symmetry_space_group_name_H-M    P1
_symmetry_Int_Tables_number       1
_space_group_crystal_system       triclinic
_cell_length_a                    19.302066
_cell_length_b                    14.259312
_cell_length_c                    13.365691
_cell_angle_alpha                 89.999244
_cell_angle_beta                  90.000085
_cell_angle_gamma                 89.99997
_cell_volume                      3678.69502008

loop_
_atom_site_label
_atom_site_type_symbol
_atom_type_description
_atom_site_fract_x
_atom_site_fract_y
_atom_site_fract_z
_atom_type_partial_charge
C1    C     C_1   0.500000 0.500000 0.049525 -0.022688
C2    C     C_R   0.500000 0.673463 0.499999 0.933625
C3    C     C_R   0.363575 0.500000 0.500000 0.916702
C4    C     C_R   0.636424 0.500000 0.500000 0.916700
C5    C     C_1   0.500000 0.225894 0.500001 -0.208981
C6    C     C_1   0.500000 0.774106 0.499999 -0.208981
C7    C     C_1   0.500000 0.141332 0.500001 0.011590
C8    C     C_1   0.500000 0.858668 0.499999 0.011590
C9    C     C_1   0.500000 0.042279 0.500000 0.027689
C10   C     C_1   0.500000 0.957721 0.500000 0.027689
C11   C     C_R   0.252590 0.500811 0.590692 -0.208354
C12   C     C_1   0.500000 0.500000 0.950475 -0.022688
C13   C     C_R   0.747410 0.499194 0.409308 -0.208356
C14   C     C_R   0.747410 0.500822 0.590693 -0.208355
C15   C     C_R   0.252590 0.499205 0.409308 -0.208356
C16   C     C_R   0.180480 0.502116 0.592330 -0.030134
C17   C     C_R   0.819520 0.497901 0.407670 -0.030145
C18   C     C_R   0.819520 0.502128 0.592331 -0.030143
C19   C     C_R   0.180480 0.497912 0.407669 -0.030137
C20   C     C_R   0.144299 0.500017 0.500000 -0.095468
C21   C     C_R   0.855701 0.500017 0.500000 -0.095463
C22   C     C_2   0.145481 0.507986 0.691679 0.926441
C23   C     C_R   0.288397 0.500004 0.500000 -0.105326
C24   C     C_2   0.854519 0.492026 0.308320 0.926447
C25   C     C_2   0.854519 0.508008 0.691681 0.926445
C26   C     C_2   0.145481 0.492049 0.308319 0.926443
C27   C     C_R   0.711603 0.500004 0.500000 -0.105323
C28   C     C_R   0.930571 0.500018 0.500001 0.406054
C29   C     C_R   0.069429 0.500018 0.500000 0.406050
C30   C     C_1   0.500000 0.500000 0.169414 0.097204
C31   C     C_1   0.500000 0.500000 0.830586 0.097203
C32   C     C_R   0.500000 0.326537 0.500000 0.933623
H1    H     H_    0.281201 0.502530 0.660458 0.197003
H2    H     H_    0.718798 0.497461 0.339541 0.197008
H3    H     H_    0.718799 0.502550 0.660459 0.197005
H4    H     H_    0.281201 0.497481 0.339541 0.197006
H5    H     H_    0.151078 0.483419 0.840249 0.361969
H6    H     H_    0.848915 0.516565 0.159743 0.361970
H7    H     H_    0.848920 0.483465 0.840257 0.361969
H8    H     H_    0.151082 0.516613 0.159748 0.361969
N1    N     N_1   0.500000 0.500000 0.261870 -0.062695
N2    N     N_1   0.500000 0.500000 0.738130 -0.062695
N3    N     N_R   0.034359 0.574987 0.463992 -0.118357
N4    N     N_R   0.965641 0.425049 0.536010 -0.118370
N5    N     N_R   0.965641 0.574987 0.463992 -0.118356
N6    N     N_R   0.034359 0.425049 0.536010 -0.118372
O1    O     O_R   0.500000 0.373710 0.576470 -0.592737
O2    O     O_R   0.179539 0.475005 0.777120 -0.795759
O3    O     O_2   0.911944 0.456615 0.300177 -0.570576
O4    O     O_R   0.820453 0.524980 0.222872 -0.795762
O5    O     O_2   0.911940 0.543435 0.699824 -0.570578
O6    O     O_R   0.820458 0.475044 0.777128 -0.795758
O7    O     O_2   0.088057 0.456632 0.300170 -0.570573
O8    O     O_R   0.179545 0.525020 0.222878 -0.795761
O9    O     O_R   0.500000 0.626290 0.423530 -0.592736
O10   O     O_R   0.500000 0.626290 0.576470 -0.595358
O11   O     O_R   0.500000 0.373710 0.423530 -0.595358
O12   O     O_R   0.398140 0.500000 0.576480 -0.612166
O13   O     O_R   0.601860 0.500000 0.423520 -0.612165
O14   O     O_R   0.601860 0.500000 0.576480 -0.612165
O15   O     O_R   0.398140 0.500000 0.423520 -0.612166
O16   O     O_2   0.088062 0.543418 0.699828 -0.570577
Zn1   Zn    Zn3+2 0.500000 0.500000 0.602090 0.990270
Zn2   Zn    Zn3+2 0.500000 0.500000 0.397910 0.990271

loop_
_geom_bond_atom_site_label_1
_geom_bond_atom_site_label_2
_ccdc_geom_bond_type
O15   Zn2   S    
C22   O2    S    
C25   O5    D    
C30   N1    T    
H6    O4    S    
C31   N2    T    
C14   C27   A    
C22   O16   D    
C18   C21   A    
C5    C7    T    
C9    C10   T    
C14   C18   A    
C3    C23   S    
C19   C20   A    
C13   C17   A    
C29   N6    A    
C16   C20   A    
C5    C32   S    
O9    Zn2   S    
C4    O14   A    
C15   C23   A    
H7    O6    S    
C25   O6    S    
C13   H2    S    
C2    O10   A    
C29   N3    A    
H5    O2    S    
O1    Zn1   S    
N3    N5    A    
O13   Zn2   S    
C2    C6    S    
C1    C12   T    
C32   O11   A    
O11   Zn2   S    
O14   Zn1   S    
C26   O8    S    
C4    O13   A    
C11   C23   A    
C1    C30   S    
C24   O3    D    
C21   C28   S    
N4    N6    A    
H8    O8    S    
C2    O9    A    
C3    O15   A    
C12   C31   S    
C24   O4    S    
C32   O1    A    
C18   C25   S    
C28   N5    A    
O10   Zn1   S    
C17   C24   S    
C26   O7    D    
C3    O12   A    
C15   H4    S    
C11   H1    S    
C4    C27   S    
C20   C29   S    
C8    C10   S    
C11   C16   A    
C14   H3    S    
C7    C9    S    
C19   C26   S    
C13   C27   A    
C6    C8    T    
N1    Zn2   S    
C15   C19   A    
N2    Zn1   S    
C28   N4    A    
C17   C21   A    
O12   Zn1   S    
C16   C22   S    
