data_mof_unit_16359.cif
_audit_creation_date              2013-03-05T15:50:41-0500
_audit_creation_method            fapswitch 2.2
_symmetry_space_group_name_H-M    P1
_symmetry_Int_Tables_number       1
_space_group_crystal_system       triclinic
_cell_length_a                    15.085546
_cell_length_b                    10.843991
_cell_length_c                    9.638555
_cell_angle_alpha                 90.800071
_cell_angle_beta                  90.017999
_cell_angle_gamma                 92.904199
_cell_volume                      1574.5679081

loop_
_atom_site_label
_atom_site_type_symbol
_atom_site_description
_atom_site_fract_x
_atom_site_fract_y
_atom_site_fract_z
_atom_type_partial_charge
O1    O     O_R   0.499990 0.319640 0.618810 -0.539589
O2    O     O_R   0.500000 0.319660 0.381240 -0.587362
C1    C     C_R   0.505168 0.262958 0.499412 0.827222
O3    O     O_R   0.370250 0.499960 0.618800 -0.589468
O4    O     O_R   0.370260 0.499980 0.381230 -0.585831
C2    C     C_R   0.328928 0.498787 0.499989 0.798014
Cu1   Cu    Cu3+1 0.499990 0.499990 0.640660 0.964616
Cu2   Cu    Cu3+1 0.500010 0.500010 0.359340 0.939705
O5    O     O_R   0.500000 0.680340 0.618760 -0.614801
O6    O     O_R   0.500010 0.680360 0.381190 -0.603388
O7    O     O_R   0.629740 0.500020 0.618770 -0.573076
O8    O     O_R   0.629750 0.500040 0.381200 -0.603900
C3    C     C_R   0.492198 0.737036 0.502082 0.781473
C4    C     C_R   0.671274 0.502237 0.499921 0.792011
C5    C     C_R   0.816393 0.545334 0.616493 -0.217391
C6    C     C_R   0.768437 0.504473 0.499096 -0.091030
C7    C     C_R   0.812855 0.464484 0.380686 -0.219000
C8    C     C_R   0.905340 0.457146 0.380161 0.015607
C9    C     C_R   0.953676 0.500502 0.499309 0.041771
C10   C     C_R   0.909331 0.547012 0.617513 0.033493
C11   C     C_R   0.951332 0.409271 0.263896 -0.010954
C12   C     C_R   0.044201 0.413409 0.265251 -0.229533
C13   C     C_R   0.091792 0.456672 0.381705 0.080801
C14   C     C_R   0.046697 0.497985 0.500138 0.067602
C15   C     C_R   0.095084 0.537534 0.619184 0.077341
C16   C     C_R   0.051203 0.581686 0.735587 -0.229247
C17   C     C_R   0.959285 0.590908 0.734693 -0.001071
C18   C     C_R   0.184351 0.457723 0.381894 -0.220250
C19   C     C_R   0.232186 0.497362 0.500188 -0.069556
C20   C     C_R   0.187394 0.535810 0.618973 -0.223959
H1    H     H_    0.780479 0.574406 0.707290 0.177133
H2    H     H_    0.774097 0.438643 0.289765 0.200741
H3    H     H_    0.079879 0.378646 0.176395 0.178142
H4    H     H_    0.219111 0.426274 0.290541 0.149785
H5    H     H_    0.224500 0.567225 0.710328 0.160411
H6    H     H_    0.089318 0.614815 0.825324 0.175344
H7    H     H_    0.451643 0.108509 0.293062 0.167981
C21   C     C_R   0.579729 0.120390 0.734319 0.452931
C22   C     C_R   0.572437 0.067447 0.865411 -0.259805
H8    H     H_    0.606075 0.112823 0.952908 0.200317
C23   C     C_R   0.521349 0.957440 0.882795 -0.041155
C24   C     C_R   0.487696 0.893697 0.765915 -0.223447
H9    H     H_    0.447214 0.810054 0.781023 0.218999
C25   C     C_R   0.501297 0.941073 0.632357 0.011741
C26   C     C_R   0.531170 0.065172 0.621000 -0.028698
C27   C     C_R   0.508805 0.128602 0.499333 -0.127200
C28   C     C_R   0.472575 0.062072 0.385410 -0.144451
H10   H     H_    0.434421 0.885121 0.301450 0.171539
C29   C     C_R   0.461885 0.934497 0.389822 -0.125465
C30   C     C_R   0.482243 0.871630 0.509672 -0.103959
H11   H     H_    0.396435 0.364024 0.126377 0.128256
C31   C     C_R   0.622253 0.658803 0.145753 -0.140082
H12   H     H_    0.625965 0.669340 0.255233 0.203578
C32   C     C_R   0.680975 0.737694 0.074680 -0.141140
H13   H     H_    0.726419 0.800451 0.131275 0.169931
C33   C     C_R   0.677927 0.741355 0.931895 -0.171336
H14   H     H_    0.719301 0.808846 0.877144 0.203179
C34   C     C_R   0.619358 0.662084 0.858790 -0.176367
H15   H     H_    0.622192 0.672624 0.749582 0.200577
C35   C     C_R   0.559730 0.578203 0.926491 0.244616
C36   C     C_R   0.560450 0.577272 0.075777 0.202869
N1    N     N_R   0.500860 0.501210 0.147910 -0.204036
C37   C     C_R   0.443167 0.425319 0.072556 -0.051193
H16   H     H_    0.396864 0.363496 0.869101 0.133563
C38   C     C_R   0.443380 0.425077 0.924924 -0.032506
N2    N     N_R   0.500890 0.501290 0.852040 -0.194088
O9    O     O_3   0.638431 0.221331 0.718144 -0.587320
C39   C     C_3   0.711504 0.187963 0.635588 0.063678
H17   H     H_    0.711694 0.242805 0.539137 0.159785
H18   H     H_    0.710415 0.088331 0.603408 0.129178
C40   C     C_3   0.797244 0.218233 0.715980 -0.339811
H19   H     H_    0.801397 0.317913 0.744273 0.234781
H20   H     H_    0.796391 0.164347 0.813307 0.232376
C41   C     C_3   0.878728 0.187200 0.631057 -0.871498
H21   H     H_    0.878458 0.086177 0.609867 0.265246
H22   H     H_    0.939939 0.215709 0.689766 0.260026
H23   H     H_    0.879493 0.236597 0.530981 0.268158
C42   C     C_2   0.506629 0.903233 0.020418 0.841329
O10   O     O_2   0.551066 0.941043 0.119576 -0.617214
O11   O     O_R   0.443461 0.805149 0.035033 -0.791158
H24   H     H_    0.445970 0.762853 0.127482 0.332912
C43   C     C_2   0.906680 0.349451 0.140956 0.855728
O12   O     O_2   0.838760 0.284244 0.154100 -0.620738
O13   O     O_R   0.946269 0.361310 0.010337 -0.737778
H25   H     H_    0.911578 0.314001 0.935182 0.326475
C44   C     C_2   0.919855 0.655638 0.853855 0.843164
O14   O     O_2   0.869891 0.738574 0.833424 -0.640382
O15   O     O_R   0.944862 0.628119 0.989156 -0.733065
H26   H     H_    0.914130 0.679507 0.061568 0.329177

loop_
_geom_bond_atom_site_label_1
_geom_bond_atom_site_label_2
_geom_bond_distance
_ccdc_geom_bond_type
C37   C38   1.422936 A    
C8    C11   1.423887 A    
C23   C24   1.395347 A    
C9    C10   1.420762 A    
Cu1   Cu2   2.711521 S    
C28   C29   1.385901 A    
C26   C27   1.417020 A    
C25   C26   1.403117 A    
Cu1   O7    1.968737 S    
C16   C17   1.395307 A    
C19   C20   1.398903 A    
C41   H22   1.110992 S    
C20   H5    1.084759 S    
C18   C19   1.399962 A    
C31   C36   1.416068 A    
O4    C2    1.303546 A    
O7    C4    1.305789 A    
C44   O15   1.397868 S    
C34   C35   1.412938 A    
C5    C6    1.397533 A    
C33   H14   1.080924 S    
C8    C9    1.421700 A    
C29   C30   1.391576 A    
O5    C3    1.297354 A    
C21   C26   1.422998 A    
C27   C28   1.400880 A    
O13   H25   1.011914 S    
C39   H17   1.110492 S    
C41   H23   1.109633 S    
C13   C14   1.408413 A    
H7    C28   1.083523 S    
C39   H18   1.119193 S    
C18   H4    1.084705 S    
C11   C12   1.399472 A    
C24   C25   1.403977 A    
O3    Cu1   1.968426 S    
C31   C32   1.387758 A    
C5    C10   1.401251 A    
C32   C33   1.378187 A    
C41   H21   1.111369 S    
O9    C39   1.418529 S    
H11   C37   1.081794 S    
C14   C15   1.409736 A    
O3    C2    1.303264 A    
C22   H8    1.083367 S    
C40   H20   1.111838 S    
C42   O10   1.221363 D    
C6    C7    1.398457 A    
C15   C16   1.394198 A    
C35   C36   1.439113 A    
O1    C1    1.301339 A    
C17   C44   1.478489 S    
N1    C37   1.368423 A    
C40   C41   1.526138 S    
Cu2   O8    1.968425 S    
C7    C8    1.401494 A    
C13   C18   1.395768 A    
C21   O9    1.383214 S    
C16   H6    1.085298 S    
H10   C29   1.071649 S    
O8    C4    1.303708 A    
C38   N2    1.368624 A    
C43   O13   1.398371 S    
C4    C6    1.464758 S    
C24   H9    1.079105 S    
C23   C42   1.470761 S    
C31   H12   1.060966 S    
C44   O14   1.220360 D    
C25   C30   1.414570 A    
C15   C20   1.393630 A    
Cu1   O5    1.969992 S    
C12   H3    1.084944 S    
C32   H13   1.082952 S    
O1    Cu1   1.964095 S    
O2    Cu2   1.969994 S    
O11   H24   1.009437 S    
O6    C3    1.317875 A    
O4    Cu2   1.968737 S    
C5    H1    1.081060 S    
C10   C17   1.420638 A    
C1    C27   1.460745 S    
H16   C38   1.081717 S    
O2    C1    1.306082 A    
C34   H15   1.061024 S    
C40   H19   1.109769 S    
Cu1   N2    2.037285 S    
C11   C43   1.487430 S    
C21   C22   1.397205 A    
C39   C40   1.526555 S    
C33   C34   1.386284 A    
C9    C14   1.404944 A    
C42   O11   1.400268 S    
C36   N1    1.383139 A    
C35   N2    1.380701 A    
C3    C30   1.475603 S    
C2    C19   1.458711 S    
O15   H26   1.013951 S    
C22   C23   1.399142 A    
Cu2   O6    1.964094 S    
C43   O12   1.222722 D    
C7    H2    1.079159 S    
C12   C13   1.395024 A    
Cu2   N1    2.038144 S    
