data_mof_unit_43537.cif
_audit_creation_date              2013-03-05T16:44:03-0500
_audit_creation_method            fapswitch 2.2
_symmetry_space_group_name_H-M    P1
_symmetry_Int_Tables_number       1
_space_group_crystal_system       triclinic
_cell_length_a                    19.138384
_cell_length_b                    10.740129
_cell_length_c                    9.872899
_cell_angle_alpha                 89.8392
_cell_angle_beta                  89.424092
_cell_angle_gamma                 89.663511
_cell_volume                      2029.21651369

loop_
_atom_site_label
_atom_site_type_symbol
_atom_site_description
_atom_site_fract_x
_atom_site_fract_y
_atom_site_fract_z
_atom_type_partial_charge
O1    O     O_R   0.500010 0.316790 0.614690 -0.583479
O2    O     O_R   0.500000 0.316760 0.385350 -0.605535
C1    C     C_R   0.503063 0.260446 0.499920 0.909034
O3    O     O_R   0.398140 0.500000 0.614710 -0.591956
O4    O     O_R   0.398130 0.499970 0.385370 -0.594742
C2    C     C_R   0.366032 0.498007 0.500408 0.831805
Zn1   Zn    Zn3+2 0.500000 0.500020 0.653130 1.043565
Zn2   Zn    Zn3+2 0.500000 0.499980 0.346870 0.987209
O5    O     O_R   0.500000 0.683240 0.614650 -0.611561
O6    O     O_R   0.499990 0.683210 0.385310 -0.633853
O7    O     O_R   0.601870 0.500030 0.614630 -0.582438
O8    O     O_R   0.601860 0.500000 0.385290 -0.641062
C3    C     C_R   0.503593 0.740277 0.498994 0.851878
C4    C     C_R   0.634373 0.496548 0.499147 0.910737
C5    C     C_R   0.259078 0.370245 0.506458 0.191923
C6    C     C_R   0.186922 0.362684 0.489664 -0.120350
H1    H     H_    0.161617 0.272768 0.492480 0.156656
C7    C     C_R   0.147203 0.469858 0.466303 0.008769
C8    C     C_R   0.179258 0.586007 0.456827 -0.142248
H2    H     H_    0.148218 0.668830 0.437735 0.160915
C9    C     C_R   0.251016 0.597375 0.473027 0.140276
C10   C     C_R   0.290938 0.489044 0.498916 -0.035372
N1    N     N_R   0.035318 0.552558 0.392115 -0.162950
N2    N     N_R   0.966072 0.552512 0.394399 -0.165102
C11   C     C_R   0.930835 0.462584 0.462506 0.319076
N3    N     N_R   0.967120 0.370867 0.525601 -0.159306
N4    N     N_R   0.036476 0.370575 0.522802 -0.159271
C12   C     C_R   0.071616 0.462186 0.457106 0.317627
C13   C     C_R   0.819701 0.402888 0.575280 -0.201289
H3    H     H_    0.848497 0.344828 0.645438 0.193108
C14   C     C_R   0.747041 0.409727 0.586689 0.315503
C15   C     C_R   0.709991 0.485982 0.494833 -0.149810
C16   C     C_R   0.745657 0.550540 0.392258 -0.225337
H4    H     H_    0.717842 0.607899 0.320100 0.165339
C17   C     C_R   0.817563 0.542203 0.381435 -0.122899
H5    H     H_    0.843782 0.593135 0.301072 0.168458
C18   C     C_R   0.854959 0.468389 0.472677 0.015988
C19   C     C_R   0.523439 0.064100 0.616991 0.112848
C20   C     C_R   0.515874 0.130214 0.498089 -0.112157
C21   C     C_R   0.525524 0.068496 0.374706 -0.226547
H6    H     H_    0.528527 0.120976 0.280905 0.184346
C22   C     C_R   0.528332 0.938744 0.370664 0.123411
C23   C     C_R   0.516931 0.871898 0.495103 -0.165077
C24   C     C_R   0.521673 0.938173 0.616573 0.015861
C25   C     C_3   0.495251 0.933981 0.761318 0.412796
C26   C     C_3   0.496029 0.077270 0.757664 -0.479337
H7    H     H_    0.443628 0.122436 0.758708 0.215935
H8    H     H_    0.534474 0.121366 0.825885 0.246348
C27   C     C_R   0.449507 0.560977 0.071863 0.066678
N5    N     N_R   0.499530 0.499140 0.142800 -0.079900
C28   C     C_R   0.553380 0.445666 0.071087 -0.061528
H9    H     H_    0.595637 0.400624 0.124596 0.149197
C29   C     C_R   0.553323 0.445536 0.927102 -0.015108
H10   H     H_    0.595479 0.400287 0.872347 0.187342
N6    N     N_R   0.499530 0.499180 0.857150 -0.074985
C30   C     C_R   0.449462 0.561053 0.930385 0.138895
C31   C     C_3   0.371168 0.551757 0.925867 0.017578
C32   C     C_3   0.371447 0.549285 0.081121 0.036147
H11   H     H_    0.346129 0.636696 0.883481 0.078481
H12   H     H_    0.346316 0.632199 0.128659 0.075570
C33   C     C_3   0.300772 0.249941 0.521560 -0.388461
C34   C     C_3   0.274766 0.169147 0.639262 -0.788742
H13   H     H_    0.265538 0.225289 0.731477 0.330921
H14   H     H_    0.225574 0.121335 0.612238 0.239077
H15   H     H_    0.314673 0.097380 0.662972 0.233225
H16   H     H_    0.297024 0.195802 0.426185 0.223121
H17   H     H_    0.356959 0.267628 0.537946 0.206619
C35   C     C_3   0.543042 0.880326 0.232825 -0.327639
C36   C     C_3   0.614837 0.817331 0.229108 -0.701573
H18   H     H_    0.620405 0.749010 0.312534 0.239708
H19   H     H_    0.622454 0.768060 0.131390 0.280519
H20   H     H_    0.656393 0.888391 0.239085 0.250270
H21   H     H_    0.501031 0.815989 0.202405 0.223073
H22   H     H_    0.543371 0.952212 0.151513 0.218300
C37   C     C_3   0.420793 0.880759 0.781265 -0.450331
C38   C     C_3   0.388926 0.912539 0.919828 -0.841801
H23   H     H_    0.420760 0.872250 0.002545 0.266803
H24   H     H_    0.384759 0.014771 0.933925 0.287037
H25   H     H_    0.335562 0.872960 0.927341 0.244280
H26   H     H_    0.386219 0.918258 0.701327 0.183384
H27   H     H_    0.421308 0.778512 0.770802 0.242611
N7    N     N_R   0.548533 0.881185 0.851756 0.227917
O9    O     O_R   0.537889 0.776069 0.913682 -0.449760
O10   O     O_R   0.610726 0.929519 0.855912 -0.369824
N8    N     N_R   0.344052 0.437436 0.866128 0.274517
O11   O     O_R   0.382735 0.338027 0.852652 -0.378611
O12   O     O_R   0.277767 0.431703 0.839491 -0.384443
N9    N     N_R   0.346424 0.431131 0.138564 0.279295
O13   O     O_R   0.387020 0.333786 0.147683 -0.353326
O14   O     O_R   0.280625 0.420374 0.170351 -0.374981
C39   C     C_3   0.282773 0.725921 0.458460 -0.432972
C40   C     C_3   0.262002 0.808843 0.577481 -0.858219
H28   H     H_    0.204370 0.819770 0.584719 0.269584
H29   H     H_    0.281788 0.768576 0.673617 0.268287
H30   H     H_    0.285001 0.902263 0.562020 0.246003
H31   H     H_    0.340635 0.723447 0.451797 0.195953
H32   H     H_    0.264381 0.769245 0.362725 0.218197
N10   N     N_R   0.712046 0.333965 0.686228 0.198409
O15   O     O_R   0.739996 0.316487 0.804430 -0.387523
O16   O     O_R   0.659359 0.265427 0.651581 -0.405001

loop_
_geom_bond_atom_site_label_1
_geom_bond_atom_site_label_2
_geom_bond_distance
_ccdc_geom_bond_type
N6    C30   1.365230 A    
C17   H5    1.083194 S    
C38   H25   1.110259 S    
Zn1   N6    2.014194 S    
C23   C24   1.400312 A    
C29   H10   1.080477 S    
Zn1   O7    1.982580 S    
N3    N4    1.327344 A    
C13   H3    1.083307 S    
O4    C2    1.285981 A    
C8    C9    1.390342 A    
C38   H24   1.109457 S    
C19   C20   1.378684 A    
O7    C4    1.293830 A    
C31   H11   1.110737 S    
C32   H12   1.112375 S    
C5    C6    1.395387 A    
C2    C10   1.441188 S    
C30   C31   1.503441 S    
C7    C8    1.395859 A    
C14   N10   1.437047 S    
C36   H19   1.109589 S    
O5    C3    1.295691 A    
C34   H14   1.110270 S    
C11   C18   1.455587 S    
C39   H31   1.108846 S    
C33   H16   1.111226 S    
C5    C10   1.418798 A    
C25   N7    1.472174 S    
C35   C36   1.528164 S    
N1    N2    1.325219 A    
C37   H26   1.108373 S    
C21   C22   1.394932 A    
C1    C20   1.418748 S    
C9    C10   1.412312 A    
C22   C35   1.523125 S    
C36   H18   1.107086 S    
O3    Zn1   1.989738 S    
N5    C28   1.368923 A    
C38   H23   1.109173 S    
C29   N6    1.368897 A    
C26   H8    1.111368 S    
N8    O12   1.299982 A    
C28   H9    1.081532 S    
C7    C12   1.453195 S    
N2    C11   1.354488 A    
O3    C2    1.290646 A    
C39   C40   1.524579 S    
C37   H27   1.103261 S    
C35   H21   1.107556 S    
N8    O11   1.302023 A    
C40   H30   1.107570 S    
C27   C32   1.501799 S    
C28   C29   1.421567 A    
C36   H20   1.110776 S    
C37   C38   1.530795 S    
C19   C24   1.353103 A    
C34   H13   1.105552 S    
C33   H17   1.106653 S    
C14   C15   1.413475 A    
O8    C4    1.290633 A    
Zn2   O8    1.989737 S    
C40   H29   1.110986 S    
C16   H4    1.082462 S    
C5    C33   1.522371 S    
N1    C12   1.354223 A    
C39   H32   1.111790 S    
C6    C7    1.395626 A    
C21   H6    1.083980 S    
N9    O14   1.300456 A    
N7    O9    1.298528 A    
N10   O16   1.301037 A    
C27   N5    1.360702 A    
C22   C23   1.436643 A    
Zn2   N5    2.014919 S    
C3    C23   1.438305 S    
C24   C25   1.511718 S    
C9    C39   1.517595 S    
Zn1   O5    2.003098 S    
C26   H7    1.111426 S    
C34   H15   1.108110 S    
C17   C18   1.398030 A    
O1    Zn1   2.005219 S    
O2    Zn2   2.003096 S    
C4    C15   1.451184 S    
O6    C3    1.282997 A    
C32   N9    1.469329 S    
O4    Zn2   1.982582 S    
C27   C30   1.396808 A    
N7    O10   1.302423 A    
C25   C37   1.549004 S    
C15   C16   1.399995 A    
C8    H2    1.083883 S    
O2    C1    1.282884 A    
C11   N3    1.355666 A    
C13   C14   1.395540 A    
C31   C32   1.533021 S    
C6    H1    1.083043 S    
C40   H28   1.110130 S    
C16   C17   1.381636 A    
C31   N8    1.463703 S    
C33   C34   1.529335 S    
C19   C26   1.486497 S    
C20   C21   1.398550 A    
C25   C26   1.539425 S    
N9    O13   1.302364 A    
Zn2   O6    2.005219 S    
N10   O15   1.301303 A    
C13   C18   1.401518 A    
N4    C12   1.355176 A    
O1    C1    1.286728 A    
C35   H22   1.112227 S    
