data_mof_unit_31144.cif
_audit_creation_date              2012-12-11T14:29:38-0500
_audit_creation_method            fapswitch 2.2
_symmetry_space_group_name_H-M    P1
_symmetry_Int_Tables_number       1
_space_group_crystal_system       triclinic
_cell_length_a                    6.931585
_cell_length_b                    14.78065
_cell_length_c                    16.285083
_cell_angle_alpha                 90.812825
_cell_angle_beta                  90.97428
_cell_angle_gamma                 89.311753
_cell_volume                      1667.93632025

loop_
_atom_site_label
_atom_site_type_symbol
_atom_type_description
_atom_site_fract_x
_atom_site_fract_y
_atom_site_fract_z
_atom_type_partial_charge
O1    O     O_R   0.494400 0.416610 0.413880 -0.542990
O2    O     O_R   0.823920 0.406790 0.585520 -0.541449
O3    O     O_R   0.994250 0.583390 0.586120 -0.537940
C1    C     C_R   0.656441 0.386794 0.614702 0.739180
O4    O     O_R   0.824110 0.405730 0.414490 -0.542288
O5    O     O_R   0.994440 0.582310 0.413870 -0.540475
C2    C     C_R   0.654559 0.383618 0.386326 0.746300
O6    O     O_R   0.494210 0.417690 0.586130 -0.538008
O7    O     O_3   0.660810 0.557940 0.500000 -0.371759
V1    V     V_3+5 0.935650 0.489250 0.500000 1.429809
O8    O     O_R   0.324160 0.593210 0.414480 -0.542912
C3    C     C_R   0.152175 0.614829 0.387622 0.730635
O9    O     O_R   0.323970 0.594270 0.585510 -0.541639
C4    C     C_R   0.155463 0.616245 0.613873 0.690428
V2    V     V_3+5 0.435660 0.510750 0.500000 1.429266
O10   O     O_3   0.160630 0.442060 0.500000 -0.370236
H1    H     H_    0.826952 0.893081 0.519556 0.118524
C5    C     C_R   0.317212 0.579188 0.775499 -0.141616
C6    C     C_R   0.394518 0.558677 0.852610 -0.121387
C7    C     C_R   0.381032 0.621055 0.916913 -0.121658
C8    C     C_R   0.290287 0.704476 0.904604 -0.135522
C9    C     C_R   0.212659 0.727928 0.826661 0.069520
C10   C     C_R   0.226272 0.663847 0.760654 0.070250
C11   C     C_R   0.118983 0.812722 0.814411 -0.185193
C12   C     C_R   0.039021 0.833298 0.735950 0.062552
C13   C     C_R   0.052508 0.769194 0.669950 0.069937
C14   C     C_R   0.145871 0.684306 0.682227 -0.182702
C15   C     C_R   0.948825 0.918127 0.721063 -0.110793
C16   C     C_R   0.872101 0.938796 0.643895 -0.090294
C17   C     C_R   0.885338 0.876376 0.579603 -0.126576
C18   C     C_R   0.975303 0.792769 0.591976 -0.135720
H2    H     H_    0.328584 0.527489 0.728142 0.111198
H3    H     H_    0.463906 0.493659 0.862651 0.116234
H4    H     H_    0.439861 0.604466 0.976915 0.111455
H5    H     H_    0.280356 0.749711 0.957181 0.104632
H6    H     H_    0.937729 0.969854 0.768419 0.125266
H7    H     H_    0.803365 0.003959 0.633811 0.143211
H8    H     H_    0.985126 0.747500 0.539422 0.107916
C19   C     C_2   0.032038 0.685480 0.260802 -0.135111
C20   C     C_2   0.130413 0.691246 0.332668 -0.300106
H9    H     H_    0.960448 0.622444 0.244973 0.124854
H10   H     H_    0.187971 0.753914 0.356087 0.116259
C21   C     C_2   0.011641 0.760097 0.200074 -0.198964
C22   C     C_2   0.148353 0.821726 0.182619 -0.009138
H11   H     H_    0.884014 0.756611 0.160616 0.121253
C23   C     C_2   0.767738 0.210922 0.784117 -0.182633
C24   C     C_2   0.606776 0.167342 0.807458 0.103490
H12   H     H_    0.900160 0.201622 0.819765 0.149644
C25   C     C_2   0.783372 0.268863 0.710232 -0.080478
C26   C     C_2   0.643709 0.327158 0.686452 -0.274881
H13   H     H_    0.919625 0.267602 0.678261 0.164692
H14   H     H_    0.512855 0.333159 0.721772 0.174506
C27   C     C_2   0.779908 0.208843 0.214501 -0.129716
C28   C     C_2   0.614543 0.181796 0.177411 -0.309965
H15   H     H_    0.916171 0.180145 0.194074 0.136462
H16   H     H_    0.476607 0.209789 0.195749 0.127762
C29   C     C_2   0.791743 0.277356 0.282451 -0.135659
C30   C     C_2   0.637861 0.315327 0.319554 -0.305701
H17   H     H_    0.935802 0.296527 0.302761 0.135181
H18   H     H_    0.492602 0.296846 0.301249 0.128656
O11   O     O_R   0.770210 0.079270 0.910680 -0.552242
O12   O     O_R   0.440150 0.091160 0.082270 -0.548378
O13   O     O_R   0.269970 0.914530 0.082860 -0.538551
C31   C     C_R   0.609134 0.113332 0.110459 0.728797
O14   O     O_R   0.440480 0.090100 0.911240 -0.515581
O15   O     O_R   0.270310 0.913460 0.910610 -0.529907
C32   C     C_R   0.607094 0.109552 0.881370 0.716599
O16   O     O_R   0.769870 0.080340 0.082930 -0.538744
O17   O     O_3   0.603660 0.938980 0.996790 -0.375776
V3    V     V_3+5 0.328750 0.007610 0.996740 1.443526
O18   O     O_R   0.940600 0.902510 0.911180 -0.542075
C33   C     C_R   0.109150 0.880671 0.882794 0.708267
O19   O     O_R   0.940270 0.903570 0.082200 -0.554128
C34   C     C_R   0.114068 0.884579 0.112425 0.714697
V4    V     V_3+5 0.828770 0.986010 0.996670 1.405821
O20   O     O_3   0.103730 0.054750 0.996710 -0.368101
C35   C     C_3   0.341163 0.823908 0.232426 -0.364171
C36   C     C_3   0.519315 0.869535 0.198181 -0.681647
H19   H     H_    0.559428 0.838581 0.138238 0.234609
H20   H     H_    0.496599 0.943769 0.193585 0.220872
H21   H     H_    0.643094 0.859171 0.241393 0.191505
H22   H     H_    0.313388 0.859717 0.291444 0.177292
H23   H     H_    0.391078 0.753383 0.243265 0.203956
Br1   Br    Br    0.374464 0.163540 0.740259 -0.612205

loop_
_geom_bond_atom_site_label_1
_geom_bond_atom_site_label_2
_ccdc_geom_bond_type
O19   C34   A    
C6    C7    A    
C1    O6    A    
C19   H9    S    
C27   C28   D    
O11   V4    S    
O16   V4    S    
C23   C25   S    
C13   C14   A    
C31   O16   A    
C22   C35   S    
O5    C3    A    
C17   C18   A    
C36   H20   S    
C29   H17   S    
C35   H23   S    
C30   H18   S    
V2    O10   S    
O12   V3    S    
C5    C6    A    
O12   C31   A    
O8    V2    S    
O15   C33   A    
O14   C32   A    
C26   H14   S    
O1    V2    S    
C10   C14   A    
C4    C14   S    
O7    V1    S    
C2    C30   S    
C7    H4    S    
C20   H10   S    
C13   C18   A    
C8    C9    A    
H1    C17   S    
O19   V4    S    
C24   C32   S    
C23   H12   S    
C27   H15   S    
C28   H16   S    
C5    C10   A    
C11   C12   A    
C6    H3    S    
C19   C20   D    
O4    C2    A    
C27   C29   S    
C36   H19   S    
C19   C21   S    
C25   H13   S    
C12   C13   A    
C35   C36   S    
C1    C26   S    
C12   C15   A    
C3    C20   S    
O2    C1    A    
V4    O20   S    
C16   C17   A    
O11   C32   A    
O13   V3    S    
C24   Br1   S    
C22   C34   S    
C21   H11   S    
O3    C4    A    
O6    V2    S    
O9    V2    S    
C21   C22   D    
V3    O20   S    
C9    C11   A    
C5    H2    S    
O2    V1    S    
C11   C33   S    
C23   C24   D    
C15   C16   A    
O1    C2    A    
O5    V1    S    
O8    C3    A    
C8    H5    S    
O13   C34   A    
C18   H8    S    
O7    V2    S    
O4    V1    S    
O3    V1    S    
V1    O10   S    
O18   V4    S    
C36   H21   S    
C29   C30   D    
O15   V3    S    
C28   C31   S    
C35   H22   S    
O17   V4    S    
O17   V3    S    
O18   C33   A    
C7    C8    A    
C15   H6    S    
C25   C26   D    
C16   H7    S    
C9    C10   A    
O9    C4    A    
O14   V3    S    
