data_mof_unit_29979.cif
_audit_creation_date              2012-12-10T20:34:52-0500
_audit_creation_method            fapswitch 2.2
_symmetry_space_group_name_H-M    P1
_symmetry_Int_Tables_number       1
_space_group_crystal_system       triclinic
_cell_length_a                    10.730145
_cell_length_b                    10.771055
_cell_length_c                    9.969617
_cell_angle_alpha                 88.962853
_cell_angle_beta                  89.876132
_cell_angle_gamma                 93.011101
_cell_volume                      1150.45339567

loop_
_atom_site_label
_atom_site_type_symbol
_atom_type_description
_atom_site_fract_x
_atom_site_fract_y
_atom_site_fract_z
_atom_type_partial_charge
C1    C     C_R   0.497777 0.260120 0.500922 0.851588
C2    C     C_3   0.880076 0.502034 0.501041 -0.331779
C3    C     C_3   0.941392 0.636080 0.450855 0.184753
C4    C     C_3   0.920306 0.394511 0.406568 -0.051365
C5    C     C_R   0.546380 0.063432 0.610428 -0.061059
C6    C     C_R   0.500350 0.127692 0.500598 -0.092395
C7    C     C_R   0.465428 0.063775 0.384622 -0.159434
C8    C     C_R   0.468946 0.936087 0.381919 -0.185587
C9    C     C_R   0.508451 0.871583 0.495666 -0.075299
C10   C     C_R   0.552453 0.935927 0.607222 -0.099510
C11   C     C_3   0.508661 0.918703 0.749685 -0.050625
C12   C     C_R   0.258386 0.493592 0.501116 1.010427
C13   C     C_3   0.497612 0.057153 0.750953 1.087312
C14   C     C_R   0.403012 0.442544 0.071599 0.091459
C15   C     C_R   0.590144 0.564372 0.069225 0.245040
C16   C     C_R   0.591841 0.560644 0.926262 -0.182696
C17   C     C_R   0.401661 0.447281 0.928845 0.039067
C18   C     C_3   0.362102 0.316556 0.913923 -0.410554
C19   C     C_3   0.371219 0.304428 0.064085 0.689814
C20   C     C_R   0.500850 0.739442 0.498859 0.906034
C21   C     C_R   0.742410 0.503217 0.500066 0.911820
C22   C     C_3   0.070125 0.469746 0.649076 0.294998
C23   C     C_3   0.928083 0.478874 0.649730 -0.040303
C24   C     C_3   0.088016 0.628979 0.464539 0.975203
C25   C     C_3   0.065537 0.397614 0.400079 0.643296
C26   C     C_3   0.122408 0.494022 0.503734 -0.322473
H1    H     H_    0.109378 0.542137 0.717744 0.180407
H2    H     H_    0.885425 0.417150 0.304617 0.196354
H3    H     H_    0.428738 0.111608 0.299231 0.234203
H4    H     H_    0.433132 0.888012 0.294614 0.181014
H5    H     H_    0.417134 0.865482 0.760096 0.159486
H6    H     H_    0.666868 0.608859 0.870722 0.143446
H7    H     H_    0.266656 0.305071 0.871953 0.234894
H8    H     H_    0.434806 0.269931 0.860511 0.305353
H9    H     H_    0.907925 0.563721 0.706621 0.153622
N1    N     N_R   0.499150 0.499140 0.142800 -0.096882
N2    N     N_R   0.499150 0.499180 0.857150 -0.091616
O1    O     O_R   0.500020 0.316790 0.614690 -0.596346
O2    O     O_R   0.500000 0.316760 0.385350 -0.597569
O3    O     O_R   0.314800 0.500000 0.614670 -0.593927
O4    O     O_R   0.314790 0.499960 0.385330 -0.550077
O5    O     O_R   0.500000 0.683240 0.614650 -0.623639
O6    O     O_R   0.499980 0.683210 0.385310 -0.616094
O7    O     O_R   0.685210 0.500040 0.614670 -0.608470
O8    O     O_R   0.685200 0.500000 0.385330 -0.600258
Zn1   Zn    Zn3+2 0.500010 0.500020 0.653130 0.992954
Zn2   Zn    Zn3+2 0.499990 0.499980 0.346870 1.030864
F1    F     F_    0.148147 0.665585 0.345694 -0.630593
N3    N     N_2   0.909852 0.663080 0.309737 -0.271058
H10   H     H_    0.939456 0.599927 0.242274 0.272791
C27   C     C_3   0.932744 0.789050 0.255582 -0.676006
H11   H     H_    0.914564 0.791006 0.146152 0.208669
H12   H     H_    0.030906 0.823508 0.267484 0.280419
H13   H     H_    0.870627 0.854507 0.303042 0.227021
N4    N     N_2   0.601289 0.877642 0.844880 -0.264390
H14   H     H_    0.569209 0.802345 0.901933 0.230990
C28   C     C_3   0.730527 0.873776 0.803774 -0.714076
H15   H     H_    0.790365 0.856584 0.891843 0.217516
H16   H     H_    0.763760 0.963727 0.756620 0.262543
H17   H     H_    0.739945 0.796532 0.733679 0.231428
F2    F     F_    0.373986 0.087389 0.759676 -0.725055
F3    F     F_    0.577383 0.118092 0.840296 -0.657588
N5    N     N_2   0.682490 0.638860 0.134890 -0.269400
H18   H     H_    0.768708 0.636257 0.089685 0.197808
C29   C     C_3   0.647417 0.764484 0.160386 -0.690496
H19   H     H_    0.701304 0.832429 0.095796 0.218982
H20   H     H_    0.669971 0.788080 0.265232 0.255621
H21   H     H_    0.546382 0.776163 0.142879 0.233916
F4    F     F_    0.106630 0.359717 0.705139 -0.700627
N6    N     N_2   0.252599 0.264261 0.124712 -0.323835
H22   H     H_    0.182066 0.322896 0.103495 0.259116
C30   C     C_3   0.212818 0.135174 0.104904 -0.723381
H23   H     H_    0.132656 0.109384 0.172113 0.227227
H24   H     H_    0.288895 0.072504 0.128466 0.274469
H25   H     H_    0.182860 0.120929 0.999432 0.261548
F5    F     F_    0.469284 0.234262 0.104813 -0.637639
N7    N     N_2   0.865315 0.372743 0.720530 -0.232486
H26   H     H_    0.885129 0.286197 0.687735 0.269693
C31   C     C_3   0.864153 0.377445 0.865778 -0.634017
H27   H     H_    0.798351 0.303058 0.906543 0.263260
H28   H     H_    0.832989 0.468094 0.900136 0.200792
H29   H     H_    0.958667 0.362899 0.906409 0.257729
F6    F     F_    0.137652 0.707588 0.561840 -0.713813
N8    N     N_2   0.889341 0.732011 0.535492 -0.312735
H30   H     H_    0.794022 0.736695 0.526049 0.208461
C32   C     C_3   0.950263 0.854111 0.556758 -0.671527
H31   H     H_    0.026779 0.877068 0.484646 0.282111
H32   H     H_    0.987967 0.857887 0.660246 0.273261
H33   H     H_    0.881648 0.927388 0.545965 0.191613
F7    F     F_    0.095198 0.445608 0.273133 -0.698989
N9    N     N_2   0.121391 0.275469 0.405280 -0.301968
H34   H     H_    0.209144 0.277384 0.363444 0.253447
C33   C     C_3   0.113698 0.186594 0.516082 -0.649843
H35   H     H_    0.195461 0.201347 0.583109 0.291695
H36   H     H_    0.118707 0.091862 0.475296 0.217042
H37   H     H_    0.026101 0.188376 0.573182 0.283398
N10   N     N_2   0.862007 0.271924 0.440386 -0.310732
H38   H     H_    0.780565 0.272413 0.495142 0.234721
C34   C     C_3   0.846181 0.186443 0.330195 -0.744020
H39   H     H_    0.819253 0.092008 0.370406 0.228924
H40   H     H_    0.933747 0.181510 0.271732 0.265310
H41   H     H_    0.771039 0.216679 0.262343 0.267309

loop_
_geom_bond_atom_site_label_1
_geom_bond_atom_site_label_2
_ccdc_geom_bond_type
N4    H14   S    
N5    C29   S    
C33   H35   S    
C7    H3    S    
N10   H38   S    
C3    N3    S    
C7    C8    A    
N7    H26   S    
O3    Zn1   S    
C25   F7    S    
C19   F5    S    
C24   F6    S    
C24   C26   S    
C14   N1    A    
C5    C6    A    
C32   H32   S    
C28   H16   S    
C15   C16   A    
N1    Zn2   S    
C18   C19   S    
O5    Zn1   S    
C4    H2    S    
C13   F3    S    
C8    C9    A    
N3    C27   S    
N6    H22   S    
C9    C10   A    
C22   F4    S    
C5    C13   S    
C16   N2    A    
O8    Zn2   S    
C11   H5    S    
C33   H36   S    
C4    N10   S    
C14   C17   A    
C3    C24   S    
C30   H25   S    
N10   C34   S    
O7    Zn1   S    
C4    C25   S    
C21   O8    A    
N7    C31   S    
C25   N9    S    
C27   H11   S    
C24   F1    S    
N8    H30   S    
C30   H24   S    
N9    H34   S    
C31   H28   S    
C32   H31   S    
C28   H17   S    
C29   H20   S    
C25   C26   S    
C1    C6    S    
C12   C26   S    
C27   H12   S    
C12   O3    A    
C2    C4    S    
C12   O4    A    
N9    C33   S    
C21   O7    A    
C9    C20   S    
C34   H39   S    
C29   H21   S    
C2    C21   S    
C17   C18   S    
O4    Zn2   S    
C17   N2    A    
C23   N7    S    
C18   H8    S    
C1    O1    A    
C34   H40   S    
C29   H19   S    
C33   H37   S    
C23   H9    S    
C22   H1    S    
N4    C28   S    
C31   H27   S    
C15   N1    A    
C3    N8    S    
C20   O6    A    
C11   N4    S    
O2    Zn2   S    
C14   C19   S    
N8    C32   S    
C30   H23   S    
C32   H33   S    
C31   H29   S    
C20   O5    A    
C6    C7    A    
C16   H6    S    
C27   H13   S    
C8    H4    S    
C2    C3    S    
C5    C10   A    
C11   C13   S    
C28   H15   S    
C18   H7    S    
O1    Zn1   S    
C10   C11   S    
C1    O2    A    
N5    H18   S    
C34   H41   S    
C13   F2    S    
N3    H10   S    
C22   C26   S    
C2    C23   S    
C15   N5    S    
C22   C23   S    
C19   N6    S    
N6    C30   S    
N2    Zn1   S    
O6    Zn2   S    
