data_mof_unit_59304.cif
_audit_creation_date              2012-12-10T18:58:46-0500
_audit_creation_method            fapswitch 2.2
_symmetry_space_group_name_H-M    P1
_symmetry_Int_Tables_number       1
_space_group_crystal_system       triclinic
_cell_length_a                    13.047051
_cell_length_b                    10.825936
_cell_length_c                    9.535393
_cell_angle_alpha                 89.845165
_cell_angle_beta                  95.815271
_cell_angle_gamma                 90.155961
_cell_volume                      1339.90111392

loop_
_atom_site_label
_atom_site_type_symbol
_atom_type_description
_atom_site_fract_x
_atom_site_fract_y
_atom_site_fract_z
_atom_type_partial_charge
C1    C     C_R   0.501538 0.262353 0.500367 0.797192
C2    C     C_R   0.026563 0.511596 0.561990 -0.062697
C3    C     C_R   0.972273 0.483985 0.428891 -0.087806
C4    C     C_R   0.864566 0.475208 0.419710 0.591176
C5    C     C_R   0.866820 0.525141 0.668573 -0.284859
C6    C     C_R   0.973267 0.531219 0.680336 -0.098350
C7    C     C_R   0.504256 0.063450 0.626823 0.137690
C8    C     C_R   0.510803 0.129348 0.502099 -0.093092
C9    C     C_R   0.530317 0.065010 0.379853 -0.193779
C10   C     C_R   0.529767 0.936316 0.379661 -0.206654
C11   C     C_R   0.510032 0.871023 0.501690 -0.093099
C12   C     C_R   0.300651 0.500396 0.474136 0.861112
C13   C     C_R   0.503839 0.936216 0.626688 0.110509
C14   C     C_3   0.423998 0.929922 0.728438 -0.439771
C15   C     C_3   0.424798 0.070101 0.728780 -0.466812
C16   C     C_R   0.585144 0.537708 0.085246 0.355749
C17   C     C_R   0.420526 0.449951 0.063596 -0.083948
C18   C     C_R   0.420572 0.449816 0.914723 -0.035011
C19   C     C_R   0.585217 0.537529 0.937895 0.264209
C20   C     C_3   0.635935 0.661033 0.938236 -0.506763
C21   C     C_3   0.635414 0.661505 0.097383 -0.484194
C22   C     C_R   0.501260 0.737755 0.500083 0.797024
C23   C     C_R   0.699363 0.498570 0.525625 0.847058
C24   C     C_R   0.811905 0.498638 0.538618 -0.174456
C25   C     C_R   0.188173 0.498326 0.459083 -0.204185
C26   C     C_R   0.028075 0.466753 0.310359 0.243266
C27   C     C_R   0.134980 0.473730 0.327315 -0.329489
C28   C     C_R   0.133686 0.519003 0.576026 0.561918
Cu1   Cu    Cu3+1 0.499990 0.499980 0.640670 0.976909
Cu2   Cu    Cu3+1 0.500010 0.500020 0.359330 0.977508
H1    H     H_    0.454337 0.889427 0.831473 0.197696
H2    H     H_    0.351201 0.111483 0.681836 0.200653
H3    H     H_    0.456246 0.110076 0.831565 0.204084
H4    H     H_    0.355510 0.411037 0.110261 0.151985
H5    H     H_    0.355644 0.410565 0.850424 0.182603
H6    H     H_    0.714739 0.656192 0.904214 0.207565
H7    H     H_    0.585805 0.733070 0.884380 0.212843
H8    H     H_    0.713856 0.657402 0.154794 0.239044
H9    H     H_    0.584242 0.733319 0.134658 0.194185
H10   H     H_    0.827520 0.542354 0.761214 0.194481
H11   H     H_    0.013648 0.552344 0.782393 0.223326
H12   H     H_    0.176810 0.458874 0.236343 0.201807
H13   H     H_    0.541375 0.113477 0.282983 0.175100
H14   H     H_    0.540222 0.888834 0.282677 0.158006
H15   H     H_    0.349984 0.889614 0.681070 0.214735
N1    N     N_R   0.500660 0.500930 0.148010 -0.204583
N2    N     N_R   0.500660 0.500890 0.852110 -0.200807
O1    O     O_R   0.500000 0.319640 0.618810 -0.585794
O2    O     O_R   0.500010 0.319680 0.381230 -0.582651
O3    O     O_R   0.348990 0.499960 0.599490 -0.528378
O4    O     O_R   0.349000 0.500000 0.361910 -0.601947
O5    O     O_R   0.499990 0.680320 0.618770 -0.578753
O6    O     O_R   0.500000 0.680360 0.381190 -0.591542
O7    O     O_R   0.651000 0.500000 0.638090 -0.595326
O8    O     O_R   0.651010 0.500040 0.400510 -0.522879
F1    F     F_    0.810200 0.440825 0.297310 -0.649002
I1    I     I_    0.963822 0.433513 0.098899 -0.316383
F2    F     F_    0.184373 0.547282 0.703772 -0.676425

loop_
_geom_bond_atom_site_label_1
_geom_bond_atom_site_label_2
_ccdc_geom_bond_type
C12   O3    A    
C23   C24   S    
C1    O1    A    
C23   O8    A    
Cu1   Cu2   S    
C28   F2    S    
C22   O6    A    
C1    C8    S    
Cu2   O8    S    
C14   H1    S    
C11   C22   S    
C19   C20   S    
C21   H9    S    
C12   C25   S    
Cu2   O4    S    
C10   C11   A    
C18   N2    A    
C7    C15   S    
C17   C18   A    
C17   N1    A    
C7    C8    A    
Cu1   O5    S    
C13   C14   S    
C4    F1    S    
C25   C28   A    
C20   H7    S    
C11   C13   A    
C27   H12   S    
C26   C27   A    
C2    C6    A    
C5    C24   A    
Cu1   N2    S    
C16   C19   A    
C18   H5    S    
Cu2   O6    S    
Cu2   O2    S    
Cu2   N1    S    
C2    C3    A    
C14   H15   S    
Cu1   O3    S    
C5    C6    A    
C4    C24   A    
C26   I1    S    
C19   N2    A    
C9    H13   S    
C25   C27   A    
C17   H4    S    
Cu1   O1    S    
C10   H14   S    
C3    C4    A    
C20   H6    S    
C9    C10   A    
C7    C13   A    
C12   O4    A    
C20   C21   S    
C23   O7    A    
C22   O5    A    
Cu1   O7    S    
C5    H10   S    
C16   N1    A    
C16   C21   S    
C14   C15   S    
C2    C28   A    
C1    O2    A    
C15   H3    S    
C3    C26   A    
C21   H8    S    
C8    C9    A    
C6    H11   S    
C15   H2    S    
