data_mof_unit_30996.cif
_audit_creation_date              2012-12-11T14:25:47-0500
_audit_creation_method            fapswitch 2.2
_symmetry_space_group_name_H-M    P1
_symmetry_Int_Tables_number       1
_space_group_crystal_system       triclinic
_cell_length_a                    6.988129
_cell_length_b                    14.801044
_cell_length_c                    16.31653
_cell_angle_alpha                 90.330414
_cell_angle_beta                  89.907966
_cell_angle_gamma                 90.017662
_cell_volume                      1687.61456797

loop_
_atom_site_label
_atom_site_type_symbol
_atom_type_description
_atom_site_fract_x
_atom_site_fract_y
_atom_site_fract_z
_atom_type_partial_charge
O1    O     O_R   0.494490 0.416160 0.413410 -0.527453
O2    O     O_R   0.823830 0.407240 0.585990 -0.526433
O3    O     O_R   0.994160 0.583840 0.586590 -0.515494
C1    C     C_R   0.655092 0.385985 0.614027 0.813967
O4    O     O_R   0.824200 0.405280 0.414020 -0.543942
O5    O     O_R   0.994530 0.581860 0.413390 -0.521088
C2    C     C_R   0.655744 0.386092 0.383919 0.716271
O6    O     O_R   0.494110 0.418140 0.586610 -0.534885
O7    O     O_3   0.660810 0.557940 0.500000 -0.348981
V1    V     V_3+5 0.935650 0.489250 0.500000 1.645756
O8    O     O_R   0.324250 0.592760 0.414010 -0.557582
C3    C     C_R   0.155754 0.611691 0.384118 0.725284
O9    O     O_R   0.323880 0.594720 0.585980 -0.500406
C4    C     C_R   0.155413 0.619262 0.612164 0.858300
V2    V     V_3+5 0.435660 0.510750 0.500000 1.629236
O10   O     O_3   0.160630 0.442060 0.500000 -0.373828
C5    C     C_3   0.066006 0.640152 0.763270 0.181335
C6    C     C_3   0.072392 0.708327 0.841753 0.152650
H1    H     H_    0.869333 0.738496 0.649102 0.198196
C7    C     C_3   0.009550 0.770411 0.659675 -0.348605
C8    C     C_3   0.353492 0.733227 0.698677 0.199792
C9    C     C_3   0.148940 0.689515 0.682026 -0.323604
C10   C     C_3   0.126610 0.807970 0.809036 -0.195250
C11   C     C_3   0.983445 0.837327 0.736827 0.182718
C12   C     C_3   0.340100 0.804311 0.773175 0.444041
C13   C     C_2   0.998544 0.720332 0.289720 0.294002
C14   C     C_2   0.148626 0.665572 0.307098 0.170458
C15   C     C_2   0.982435 0.764660 0.207520 -0.071987
C16   C     C_2   0.121578 0.821580 0.181502 -0.312097
H2    H     H_    0.247920 0.830334 0.219518 0.163955
C17   C     C_2   0.745536 0.235734 0.802283 -0.133536
C18   C     C_2   0.623693 0.164342 0.805762 0.171847
C19   C     C_2   0.783468 0.278887 0.721595 0.031166
C20   C     C_2   0.641086 0.327346 0.686958 -0.297070
H3    H     H_    0.504762 0.328451 0.718508 0.146731
C21   C     C_2   0.766055 0.216185 0.206524 0.342977
C22   C     C_2   0.612148 0.165299 0.185783 0.167038
C23   C     C_2   0.770075 0.264524 0.287679 -0.139945
C24   C     C_2   0.646991 0.333990 0.305448 -0.200593
O11   O     O_R   0.770850 0.076180 0.907410 -0.540716
O12   O     O_R   0.440600 0.088970 0.079950 -0.548206
O13   O     O_R   0.270430 0.912340 0.080550 -0.542984
C25   C     C_R   0.608593 0.108461 0.109848 0.713967
O14   O     O_R   0.441120 0.087010 0.907980 -0.532988
O15   O     O_R   0.270950 0.910370 0.907350 -0.554678
C26   C     C_R   0.610342 0.106930 0.879480 0.699480
O16   O     O_R   0.770320 0.078150 0.080620 -0.519005
O17   O     O_3   0.604200 0.936340 0.994000 -0.391651
V3    V     V_3+5 0.329300 0.004970 0.993950 1.537223
O18   O     O_R   0.941240 0.899420 0.907920 -0.532134
C27   C     C_R   0.111422 0.876850 0.880016 0.797594
O19   O     O_R   0.940720 0.901380 0.079890 -0.543780
C28   C     C_R   0.109445 0.880394 0.108271 0.798750
V4    V     V_3+5 0.829310 0.983370 0.993880 1.543877
O20   O     O_3   0.104280 0.052120 0.993920 -0.359825
O21   O     O_3   0.876205 0.614025 0.745586 -0.600068
H4    H     H_    0.790783 0.665584 0.752450 0.412314
O22   O     O_3   0.390796 0.891396 0.744917 -0.617658
H5    H     H_    0.459244 0.927502 0.786781 0.307211
C29   C     C_2   0.037402 0.810160 0.573430 0.785689
O23   O     O_2   0.017612 0.760616 0.513846 -0.563461
O24   O     O_R   0.079148 0.901203 0.559788 -0.593994
H6    H     H_    0.090499 0.916371 0.499440 0.329994
C30   C     C_2   0.987191 0.939151 0.715923 0.899382
O25   O     O_2   0.862296 0.969780 0.671387 -0.515927
O26   O     O_R   0.114048 0.999678 0.753058 -0.662233
H7    H     H_    0.091450 0.064482 0.735928 0.311078
O27   O     O_3   0.855883 0.732583 0.347553 -0.621810
H8    H     H_    0.769786 0.781186 0.328279 0.317340
O28   O     O_3   0.289626 0.653967 0.248426 -0.642814
H9    H     H_    0.379710 0.606598 0.266898 0.310708
C31   C     C_2   0.815198 0.741145 0.155681 0.808484
O29   O     O_2   0.838282 0.722559 0.083265 -0.529649
O30   O     O_R   0.632096 0.738083 0.189688 -0.663858
H10   H     H_    0.530856 0.723862 0.147068 0.335409
C32   C     C_2   0.837544 0.275520 0.876778 0.821098
O31   O     O_2   0.980381 0.322488 0.869772 -0.489434
O32   O     O_R   0.757104 0.262853 0.954450 -0.657785
H11   H     H_    0.831747 0.294552 0.999421 0.339122
O33   O     O_3   0.531770 0.137228 0.734762 -0.619851
H12   H     H_    0.457119 0.081970 0.746540 0.330173
C33   C     C_2   0.969181 0.259363 0.680882 0.817439
O34   O     O_2   0.977863 0.249887 0.606579 -0.543033
O35   O     O_R   0.132675 0.245658 0.728120 -0.654707
H13   H     H_    0.247574 0.230283 0.692921 0.322598
C34   C     C_2   0.149706 0.547355 0.783015 0.873553
O36   O     O_2   0.082665 0.505563 0.840924 -0.470423
O37   O     O_R   0.287505 0.505418 0.733954 -0.667464
H14   H     H_    0.323225 0.443822 0.755518 0.305968
O38   O     O_3   0.922427 0.220410 0.154673 -0.633126
H15   H     H_    0.016119 0.263288 0.178740 0.323503
O39   O     O_3   0.457952 0.163721 0.239339 -0.628753
H16   H     H_    0.363793 0.118249 0.220275 0.316762
C35   C     C_2   0.899195 0.224945 0.350159 0.814039
O40   O     O_2   0.055052 0.194799 0.329570 -0.532729
O41   O     O_R   0.838042 0.216515 0.431306 -0.635116
H17   H     H_    0.933122 0.181823 0.465768 0.347116
C36   C     C_2   0.510091 0.368766 0.242658 0.818540
O42   O     O_2   0.557215 0.372991 0.170538 -0.540547
O43   O     O_R   0.328531 0.398813 0.266586 -0.654375
H18   H     H_    0.249601 0.421444 0.218833 0.296408
C37   C     C_2   0.208537 0.681422 0.913503 0.804743
O44   O     O_2   0.196113 0.722056 0.978825 -0.553935
O45   O     O_R   0.348972 0.614506 0.906612 -0.643105
H19   H     H_    0.426572 0.606824 0.958577 0.347336
O46   O     O_3   0.886319 0.707713 0.876787 -0.575380
H20   H     H_    0.881026 0.744227 0.927612 0.359652
O47   O     O_3   0.798821 0.824594 0.767709 -0.630722
H21   H     H_    0.707923 0.834022 0.722292 0.331534
C38   C     C_2   0.444157 0.774680 0.620284 0.825792
O48   O     O_2   0.418451 0.853190 0.600660 -0.509379
O49   O     O_R   0.568167 0.722740 0.571981 -0.624557
H22   H     H_    0.617820 0.756432 0.522356 0.312710
O50   O     O_3   0.480244 0.662719 0.717445 -0.616784
H23   H     H_    0.455903 0.639255 0.772564 0.363733
O51   O     O_3   0.470485 0.775787 0.834741 -0.631435
H24   H     H_    0.529287 0.826093 0.865706 0.346818

loop_
_geom_bond_atom_site_label_1
_geom_bond_atom_site_label_2
_ccdc_geom_bond_type
O14   V3    S    
H1    C7    S    
C1    O6    A    
C8    C38   S    
C17   C32   S    
C13   C15   S    
O47   H21   S    
O17   V4    S    
C13   C14   D    
O24   H6    S    
C21   C22   D    
C32   O32   S    
O13   C28   A    
O5    C3    A    
C23   C24   D    
C37   O45   S    
C34   O37   S    
O46   H20   S    
O15   C27   A    
V2    O10   S    
O21   H4    S    
C29   O24   S    
C20   H3    S    
C6    C37   S    
C38   O48   D    
O43   H18   S    
O8    V2    S    
C7    C11   S    
O14   C26   A    
O27   H8    S    
C10   C11   S    
C17   C19   S    
O28   H9    S    
C11   O47   S    
C7    C29   S    
C19   C33   S    
O26   H7    S    
C11   C30   S    
O9    C4    A    
O12   C25   A    
C15   C31   S    
O12   V3    S    
O45   H19   S    
O19   V4    S    
O18   C27   A    
C1    C20   S    
O30   H10   S    
C3    C14   S    
C6    C10   S    
C32   O31   D    
C31   O30   S    
C12   O51   S    
O4    C2    A    
C34   O36   D    
C31   O29   D    
C24   C36   S    
O22   H5    S    
V3    O20   S    
C5    C34   S    
C29   O23   D    
C30   O26   S    
C22   C25   S    
O2    C1    A    
C6    O46   S    
C16   H2    S    
C8    O50   S    
C18   O33   S    
C10   C27   S    
C17   C18   D    
O15   V3    S    
O41   H17   S    
C23   C35   S    
C5    C6    S    
C35   O40   D    
O18   V4    S    
O35   H13   S    
C35   O41   S    
C14   O28   S    
C5    O21   S    
O3    C4    A    
O16   V4    S    
O1    V2    S    
O17   V3    S    
C7    C9    S    
C33   O34   D    
O6    V2    S    
C33   O35   S    
O9    V2    S    
C12   O22   S    
O11   C26   A    
O2    V1    S    
O19   C28   A    
O7    V1    S    
C21   O38   S    
C8    C12   S    
V4    O20   S    
C15   C16   D    
C22   O39   S    
O1    C2    A    
C18   C26   S    
O33   H12   S    
O5    V1    S    
O8    C3    A    
O50   H23   S    
O11   V4    S    
C5    C9    S    
C13   O27   S    
C30   O25   D    
C4    C9    S    
C21   C23   S    
O7    V2    S    
O4    V1    S    
O3    V1    S    
V1    O10   S    
O32   H11   S    
O38   H15   S    
C16   C28   S    
O39   H16   S    
C19   C20   D    
O51   H24   S    
O49   H22   S    
C10   C12   S    
C37   O44   D    
C36   O43   S    
C38   O49   S    
O13   V3    S    
O37   H14   S    
C36   O42   D    
C2    C24   S    
C8    C9    S    
C25   O16   A    
