data_mof_unit_27406.cif
_audit_creation_date              2012-12-10T18:23:03-0500
_audit_creation_method            fapswitch 2.2
_symmetry_space_group_name_H-M    P1
_symmetry_Int_Tables_number       1
_space_group_crystal_system       triclinic
_cell_length_a                    14.955459
_cell_length_b                    14.039612
_cell_length_c                    10.526831
_cell_angle_alpha                 90.502525
_cell_angle_beta                  90.061175
_cell_angle_gamma                 90.007919
_cell_volume                      2210.22021347

loop_
_atom_site_label
_atom_site_type_symbol
_atom_type_description
_atom_site_fract_x
_atom_site_fract_y
_atom_site_fract_z
_atom_type_partial_charge
C1    C     C_R   0.326904 0.499982 0.500068 1.031314
C2    C     C_R   0.673103 0.500006 0.500023 1.032807
C3    C     C_R   0.953329 0.499738 0.500586 -0.093287
C4    C     C_R   0.046706 0.499939 0.499267 -0.092362
C5    C     C_R   0.906378 0.558809 0.415394 -0.061612
C6    C     C_R   0.093662 0.440839 0.584418 -0.054377
C7    C     C_R   0.954612 0.384317 0.674282 0.526200
C8    C     C_R   0.045425 0.615325 0.325526 0.523036
C9    C     C_R   0.047631 0.383331 0.670081 -0.240111
C10   C     C_R   0.952412 0.616237 0.329636 -0.228322
C11   C     C_R   0.528978 0.797558 0.395342 0.072672
C12   C     C_R   0.469651 0.202634 0.604035 0.072908
C13   C     C_R   0.469563 0.798701 0.603959 0.028258
C14   C     C_R   0.529671 0.201128 0.395815 0.043020
C15   C     C_R   0.465450 0.899432 0.605521 -0.122532
C16   C     C_R   0.529345 0.100450 0.392423 -0.112323
C17   C     C_R   0.528164 0.898184 0.391673 -0.116106
C18   C     C_R   0.466513 0.101907 0.606020 -0.136647
C19   C     C_R   0.496575 0.949448 0.498516 -0.047846
C20   C     C_R   0.496867 0.050516 0.498662 -0.051591
C21   C     C_R   0.431944 0.951092 0.711462 0.426831
C22   C     C_R   0.561394 0.049032 0.285961 0.412858
C23   C     C_R   0.557830 0.948312 0.283807 0.367338
C24   C     C_R   0.434029 0.051864 0.712609 0.422188
C25   C     C_R   0.499889 0.499505 0.257552 1.100663
C26   C     C_R   0.499777 0.500468 0.742431 1.100475
C27   C     C_3   0.425175 0.542119 0.042777 0.453490
C28   C     C_3   0.574024 0.457696 0.957169 0.455892
C29   C     C_3   0.497040 0.590559 0.961751 0.456894
C30   C     C_3   0.502134 0.409226 0.038160 0.477796
C31   C     C_3   0.427631 0.453053 0.956954 0.446085
C32   C     C_3   0.571569 0.546788 0.042923 0.451332
C33   C     C_3   0.499531 0.501409 0.876513 -0.582456
C34   C     C_3   0.499701 0.498423 0.123440 -0.600483
C35   C     C_R   0.813753 0.559202 0.416886 0.551551
C36   C     C_R   0.186289 0.440516 0.582991 0.539806
C37   C     C_R   0.768520 0.500017 0.500590 -0.365145
C38   C     C_R   0.231501 0.499899 0.499494 -0.358592
C39   C     C_R   0.813614 0.440894 0.584979 0.557224
C40   C     C_R   0.186402 0.559010 0.415113 0.552710
C41   C     C_R   0.906817 0.440842 0.587261 -0.122446
C42   C     C_R   0.093212 0.558893 0.412655 -0.123042
H1    H     H_    0.083532 0.337483 0.734872 0.213555
H2    H     H_    0.916522 0.662008 0.264744 0.223954
H3    H     H_    0.553135 0.756715 0.314843 0.209845
H4    H     H_    0.447034 0.243865 0.685013 0.204367
H5    H     H_    0.448698 0.758413 0.685628 0.209943
H6    H     H_    0.553981 0.241044 0.315563 0.213856
N1    N     N_R   0.500000 0.750030 0.500000 -0.138488
N2    N     N_R   0.500000 0.249970 0.500000 -0.140524
O1    O     O_R   0.367850 0.580280 0.500030 -0.600918
O2    O     O_R   0.632150 0.419720 0.499970 -0.596962
O3    O     O_R   0.632150 0.580280 0.499970 -0.589648
O4    O     O_R   0.367850 0.419720 0.500030 -0.597392
O5    O     O_R   0.499970 0.580260 0.313950 -0.592228
O6    O     O_R   0.500030 0.419740 0.686050 -0.588357
O7    O     O_R   0.500030 0.580260 0.686050 -0.622068
O8    O     O_R   0.499970 0.419740 0.313950 -0.622948
Zn1   Zn    Zn3+2 0.500000 0.607200 0.500000 1.049486
Zn2   Zn    Zn3+2 0.500000 0.392800 0.500000 1.050388
F1    F     F_    0.353944 0.405290 0.908968 -0.577802
F2    F     F_    0.645238 0.594648 0.090795 -0.552258
F3    F     F_    0.348957 0.585159 0.090422 -0.567438
F4    F     F_    0.650268 0.414715 0.909510 -0.556672
F5    F     F_    0.494152 0.683500 0.919780 -0.617104
F6    F     F_    0.504708 0.316041 0.079482 -0.569932
F7    F     F_    0.767231 0.614791 0.334603 -0.605763
F8    F     F_    0.232821 0.384811 0.665141 -0.631699
F9    F     F_    0.765756 0.385668 0.665869 -0.563384
F10   F     F_    0.234249 0.614384 0.334387 -0.569723
O9    O     O_3   0.910974 0.325571 0.758874 -0.547746
C43   C     C_3   0.911574 0.369780 0.879741 -0.118007
H7    H     H_    0.872378 0.325188 0.946007 0.210650
H8    H     H_    0.879371 0.441289 0.877227 0.184775
H9    H     H_    0.980686 0.375569 0.918285 0.106492
O10   O     O_3   0.089048 0.674051 0.240897 -0.548540
C44   C     C_3   0.088825 0.629586 0.120194 -0.121034
H10   H     H_    0.121328 0.558242 0.123083 0.183564
H11   H     H_    0.127935 0.674227 0.053881 0.208732
H12   H     H_    0.019797 0.623375 0.081455 0.112018
O11   O     O_3   0.401922 0.904311 0.818441 -0.591073
C45   C     C_3   0.312235 0.875889 0.799066 -0.237050
H13   H     H_    0.270505 0.932186 0.754584 0.125280
H14   H     H_    0.282277 0.859480 0.892702 0.212058
H15   H     H_    0.308530 0.810175 0.740005 0.166274
O12   O     O_3   0.591767 0.096983 0.180188 -0.560658
C46   C     C_3   0.685440 0.106088 0.189359 -0.158176
H16   H     H_    0.718838 0.035271 0.187261 0.185803
H17   H     H_    0.705317 0.146538 0.276367 0.128395
H18   H     H_    0.709625 0.146622 0.106193 0.215054
O13   O     O_3   0.589053 0.899181 0.178413 -0.613497
C47   C     C_3   0.518700 0.890929 0.089741 -0.036603
H19   H     H_    0.493396 0.961888 0.059940 0.203332
H20   H     H_    0.463025 0.847107 0.128022 0.160728
H21   H     H_    0.544547 0.854415 0.003497 0.253694
O14   O     O_3   0.412693 0.100564 0.823466 -0.561328
C48   C     C_3   0.323109 0.132132 0.818042 -0.182615
H22   H     H_    0.300123 0.151343 0.720728 0.136044
H23   H     H_    0.316816 0.197059 0.878186 0.254502
H24   H     H_    0.278166 0.077506 0.858593 0.160776

loop_
_geom_bond_atom_site_label_1
_geom_bond_atom_site_label_2
_ccdc_geom_bond_type
C46   H16   S    
C23   O13   S    
O5    Zn1   S    
C27   C29   S    
C31   F1    S    
C19   C20   A    
C6    C9    A    
C48   H22   S    
O3    Zn1   S    
C39   C41   A    
O4    Zn2   S    
C44   H10   S    
C15   C19   A    
C17   C23   A    
C40   F10   S    
C18   C24   A    
C35   C37   A    
C8    C42   A    
C29   C32   S    
C24   O14   S    
C7    O9    S    
C30   C31   S    
O7    Zn1   S    
O8    Zn2   S    
C29   C33   S    
C8    O10   S    
O2    Zn2   S    
C46   H18   S    
C11   C17   A    
C7    C41   A    
C31   C33   S    
C18   C20   A    
C25   C34   S    
C40   C42   A    
C43   H9    S    
C48   H23   S    
O11   C45   S    
C44   H11   S    
C27   C34   S    
C9    H1    S    
C30   C34   S    
C27   C31   S    
C28   C32   S    
O10   C44   S    
C4    C6    A    
O13   C47   S    
C13   H5    S    
O12   C46   S    
C14   H6    S    
C10   H2    S    
C47   H21   S    
O6    Zn2   S    
C12   H4    S    
C32   C34   S    
C1    O4    A    
C11   N1    A    
C26   C33   S    
C35   F7    S    
C16   C20   A    
O14   C48   S    
C47   H20   S    
C39   F9    S    
C1    O1    A    
C30   F6    S    
C2    O2    A    
C1    C38   S    
C13   N1    A    
C28   F4    S    
C43   H8    S    
C21   O11   S    
C28   C33   S    
C45   H14   S    
C13   C15   A    
C29   F5    S    
C11   H3    S    
O1    Zn1   S    
C25   O8    A    
C3    C4    A    
C48   H24   S    
C44   H12   S    
C7    C9    A    
C3    C41   A    
C16   C22   A    
C25   O5    A    
C43   H7    S    
C3    C5    A    
C2    O3    A    
C26   O6    A    
C12   N2    A    
C36   F8    S    
C45   H15   S    
N1    Zn1   S    
N2    Zn2   S    
C36   C38   A    
C32   F2    S    
C5    C10   A    
C37   C39   A    
C38   C40   A    
C2    C37   S    
C14   N2    A    
C15   C21   A    
C4    C42   A    
C5    C35   A    
C28   C30   S    
C47   H19   S    
C17   C19   A    
C6    C36   A    
C14   C16   A    
C22   O12   S    
C26   O7    A    
O9    C43   S    
C8    C10   A    
C45   H13   S    
C21   C24   A    
C12   C18   A    
C46   H17   S    
C22   C23   A    
C27   F3    S    
