data_mof_unit_23808.cif
_audit_creation_date              2012-12-10T20:43:59-0500
_audit_creation_method            fapswitch 2.2
_symmetry_space_group_name_H-M    P1
_symmetry_Int_Tables_number       1
_space_group_crystal_system       triclinic
_cell_length_a                    17.488568
_cell_length_b                    10.728334
_cell_length_c                    9.881651
_cell_angle_alpha                 89.650492
_cell_angle_beta                  90.229156
_cell_angle_gamma                 90.534221
_cell_volume                      1853.89747508

loop_
_atom_site_label
_atom_site_type_symbol
_atom_type_description
_atom_site_fract_x
_atom_site_fract_y
_atom_site_fract_z
_atom_type_partial_charge
C1    C     C_R   0.500435 0.260180 0.500285 0.878061
C2    C     C_R   0.886827 0.560058 0.507420 0.113530
C3    C     C_1   0.967566 0.569232 0.505493 -0.028879
C4    C     C_1   0.035436 0.568889 0.500355 -0.098083
C5    C     C_R   0.159648 0.608816 0.600414 -0.174110
C6    C     C_R   0.237836 0.588760 0.602236 -0.206286
C7    C     C_R   0.271522 0.518450 0.499623 -0.017853
C8    C     C_R   0.226841 0.469837 0.394239 -0.221030
C9    C     C_R   0.148657 0.490066 0.392447 -0.167719
C10   C     C_R   0.115584 0.559169 0.495660 0.169637
C11   C     C_R   0.472122 0.061303 0.611806 0.104662
C12   C     C_R   0.353574 0.502050 0.499849 0.849912
C13   C     C_R   0.496566 0.128216 0.498670 -0.116930
C14   C     C_R   0.512289 0.064963 0.378152 -0.234527
C15   C     C_R   0.510926 0.936345 0.376861 -0.227459
C16   C     C_R   0.494273 0.870945 0.496516 -0.092414
C17   C     C_R   0.469282 0.934605 0.609648 0.084081
C18   C     C_3   0.485718 0.920949 0.757385 -0.487581
C19   C     C_3   0.488938 0.063186 0.761167 -0.118797
C20   C     C_R   0.434546 0.520954 0.070084 0.210278
C21   C     C_R   0.566213 0.486587 0.072336 -0.147732
C22   C     C_R   0.566108 0.485446 0.928659 -0.156326
C23   C     C_R   0.499734 0.739628 0.499427 0.885122
C24   C     C_R   0.434933 0.525575 0.927919 0.173572
C25   C     C_3   0.359910 0.459139 0.916975 -0.506804
C26   C     C_3   0.361145 0.447133 0.070837 -0.102874
C27   C     C_R   0.646694 0.501979 0.500381 0.887152
C28   C     C_R   0.845184 0.565523 0.630522 0.174796
C29   C     C_R   0.766654 0.542722 0.624763 -0.294488
C30   C     C_R   0.729520 0.516967 0.502417 -0.080047
C31   C     C_R   0.770850 0.513362 0.382221 -0.244788
C32   C     C_R   0.849462 0.534332 0.383040 0.085083
H1    H     H_    0.527256 0.888959 0.285010 0.169855
H2    H     H_    0.435930 0.881174 0.812978 0.180246
H3    H     H_    0.540570 0.873219 0.778736 0.209214
H4    H     H_    0.439465 0.100622 0.817161 0.145938
H5    H     H_    0.619413 0.473522 0.126279 0.145688
H6    H     H_    0.619161 0.471066 0.875562 0.143465
H7    H     H_    0.314253 0.522350 0.880546 0.170007
H8    H     H_    0.362774 0.370622 0.859627 0.220843
H9    H     H_    0.314104 0.500370 0.117980 0.134851
H10   H     H_    0.733966 0.546907 0.717640 0.154190
H11   H     H_    0.741999 0.493417 0.287415 0.150350
H12   H     H_    0.133550 0.661573 0.680911 0.134249
H13   H     H_    0.272062 0.629737 0.682213 0.141643
H14   H     H_    0.251967 0.414689 0.315184 0.128411
H15   H     H_    0.113906 0.450074 0.312406 0.137425
H16   H     H_    0.530111 0.113743 0.287443 0.167673
N1    N     N_R   0.499490 0.499140 0.142800 -0.102841
N2    N     N_R   0.499490 0.499180 0.857150 -0.102878
O1    O     O_R   0.500010 0.316790 0.614690 -0.621351
O2    O     O_R   0.500000 0.316760 0.385350 -0.626055
O3    O     O_R   0.389120 0.500020 0.614710 -0.617353
O4    O     O_R   0.389110 0.499990 0.385370 -0.627075
O5    O     O_R   0.500000 0.683240 0.614650 -0.616186
O6    O     O_R   0.499990 0.683210 0.385310 -0.620904
O7    O     O_R   0.610890 0.500010 0.614630 -0.628495
O8    O     O_R   0.610880 0.499980 0.385290 -0.629117
Zn1   Zn    Zn3+2 0.500010 0.500020 0.653130 0.927939
Zn2   Zn    Zn3+2 0.499990 0.499980 0.346870 0.931562
C33   C     C_3   0.875968 0.593753 0.772479 -0.414695
C34   C     C_3   0.960773 0.623543 0.791924 -0.879192
H17   H     H_    0.995944 0.540695 0.769354 0.268126
H18   H     H_    0.978071 0.705392 0.729530 0.263605
H19   H     H_    0.971287 0.647673 0.899619 0.244548
H20   H     H_    0.843887 0.674703 0.812150 0.204098
H21   H     H_    0.861829 0.512912 0.838973 0.198155
C35   C     C_3   0.566366 0.118588 0.810205 -0.354197
C36   C     C_3   0.636660 0.089292 0.722838 -0.296634
C37   C     C_3   0.709130 0.145741 0.784642 -0.920498
H22   H     H_    0.704073 0.248714 0.791330 0.261813
H23   H     H_    0.719250 0.106540 0.887399 0.259438
H24   H     H_    0.758981 0.123852 0.720023 0.255085
H25   H     H_    0.644339 0.987160 0.713816 0.216396
H26   H     H_    0.630017 0.129114 0.619853 0.222348
H27   H     H_    0.560800 0.221187 0.818076 0.222425
H28   H     H_    0.576565 0.083543 0.914799 0.193891
C38   C     C_3   0.364923 0.310815 0.123450 -0.305950
C39   C     C_3   0.434058 0.235731 0.076900 -0.850799
H29   H     H_    0.446310 0.251655 0.968848 0.244389
H30   H     H_    0.485859 0.261986 0.134667 0.273882
H31   H     H_    0.422990 0.134770 0.093822 0.230982
H32   H     H_    0.364348 0.310179 0.235587 0.222801
H33   H     H_    0.312027 0.261730 0.089727 0.185657
C40   C     C_3   0.892141 0.526340 0.249840 -0.424268
C41   C     C_3   0.927390 0.397043 0.232392 -0.329523
C42   C     C_3   0.972839 0.389621 0.101270 -0.904550
H34   H     H_    0.934603 0.403964 0.012806 0.267578
H35   H     H_    0.019068 0.461327 0.099893 0.259773
H36   H     H_    0.999120 0.296173 0.093167 0.249959
H37   H     H_    0.966188 0.375692 0.318548 0.224885
H38   H     H_    0.881190 0.325154 0.230624 0.220998
H39   H     H_    0.852603 0.544583 0.163588 0.192486
H40   H     H_    0.937170 0.600018 0.244609 0.204535

loop_
_geom_bond_atom_site_label_1
_geom_bond_atom_site_label_2
_ccdc_geom_bond_type
C42   H34   S    
C6    H13   S    
O5    Zn1   S    
C29   H10   S    
C21   N1    A    
O3    Zn1   S    
C7    C8    A    
O4    Zn2   S    
C40   C41   S    
C11   C19   S    
C34   H17   S    
N1    Zn2   S    
C31   H11   S    
C5    C6    A    
N2    Zn1   S    
C28   C29   A    
C19   H4    S    
C25   H8    S    
C30   C31   A    
O7    Zn1   S    
O8    Zn2   S    
C15   C16   A    
C22   H6    S    
C2    C32   A    
C18   C19   S    
C34   H18   S    
O2    Zn2   S    
C40   H39   S    
C38   H32   S    
C20   C24   A    
C8    C9    A    
C37   H22   S    
C18   H3    S    
C12   O3    A    
C22   N2    A    
C28   C33   S    
C21   C22   A    
C27   C30   S    
C36   C37   S    
C33   H20   S    
C24   N2    A    
C7    C12   S    
C36   H25   S    
C24   C25   S    
C27   O7    A    
C39   H30   S    
C41   C42   S    
C35   C36   S    
C14   H16   S    
C25   C26   S    
O6    Zn2   S    
C29   C30   A    
C20   N1    A    
C18   H2    S    
C40   H40   S    
C33   H21   S    
C31   C32   A    
C37   H24   S    
C17   C18   S    
C21   H5    S    
C19   C35   S    
C26   C38   S    
C1    O1    A    
C23   O6    A    
C5    H12   S    
C9    H15   S    
C16   C23   S    
C42   H35   S    
O1    Zn1   S    
C4    C10   S    
C3    C4    T    
C9    C10   A    
C35   H28   S    
C11   C17   A    
C34   H19   S    
C38   C39   S    
C27   O8    A    
C39   H31   S    
C37   H23   S    
C23   O5    A    
C6    C7    A    
C35   H27   S    
C41   H37   S    
C2    C3    S    
C5    C10   A    
C41   H38   S    
C25   H7    S    
C11   C13   A    
C16   C17   A    
C20   C26   S    
C32   C40   S    
C36   H26   S    
C33   C34   S    
C1    O2    A    
C8    H14   S    
C39   H29   S    
C38   H33   S    
C1    C13   S    
C42   H36   S    
C14   C15   A    
C2    C28   A    
C13   C14   A    
C15   H1    S    
C12   O4    A    
C26   H9    S    
