data_mof_unit_28623.cif
_audit_creation_date              2013-03-05T15:56:36-0500
_audit_creation_method            fapswitch 2.2
_symmetry_space_group_name_H-M    P1
_symmetry_Int_Tables_number       1
_space_group_crystal_system       triclinic
_cell_length_a                    6.953755
_cell_length_b                    14.518964
_cell_length_c                    16.013993
_cell_angle_alpha                 90.346829
_cell_angle_beta                  89.948206
_cell_angle_gamma                 89.611816
_cell_volume                      1616.72639826

loop_
_atom_site_label
_atom_site_type_symbol
_atom_site_description
_atom_site_fract_x
_atom_site_fract_y
_atom_site_fract_z
_atom_type_partial_charge
O1    O     O_R   0.361600 0.167310 0.164620 -0.607701
O2    O     O_R   0.638400 0.832690 0.835380 -0.607703
O3    O     O_R   0.691080 0.157570 0.338750 -0.548368
O4    O     O_R   0.308920 0.842430 0.661250 -0.548369
O5    O     O_R   0.861410 0.336420 0.339360 -0.562824
O6    O     O_R   0.138590 0.663580 0.660640 -0.562824
C1    C     C_R   0.523033 0.134570 0.366807 1.043141
C2    C     C_R   0.476967 0.865430 0.633193 1.043144
O7    O     O_R   0.691320 0.156280 0.165240 -0.606492
O8    O     O_R   0.308680 0.843720 0.834760 -0.606492
O9    O     O_R   0.861640 0.335130 0.164600 -0.612670
O10   O     O_R   0.138360 0.664870 0.835400 -0.612670
C3    C     C_R   0.522579 0.133771 0.136128 0.908195
C4    C     C_R   0.477420 0.866229 0.863872 0.908194
O11   O     O_R   0.361370 0.168600 0.339370 -0.578873
O12   O     O_R   0.638630 0.831400 0.660630 -0.578874
O13   O     O_3   0.527990 0.310540 0.251980 -0.260979
O14   O     O_3   0.472010 0.689460 0.748020 -0.260977
V1    V     V_3+5 0.802830 0.240980 0.251990 1.267878
V2    V     V_3+5 0.197170 0.759020 0.748010 1.267880
O15   O     O_R   0.191360 0.346160 0.165220 -0.609069
O16   O     O_R   0.808640 0.653840 0.834780 -0.609069
C5    C     C_R   0.022132 0.368197 0.136146 0.898974
C6    C     C_R   0.977868 0.631803 0.863854 0.898977
O17   O     O_R   0.191130 0.347440 0.338740 -0.566462
O18   O     O_R   0.808870 0.652560 0.661260 -0.566458
C7    C     C_R   0.021670 0.369780 0.366907 1.115307
C8    C     C_R   0.978330 0.630220 0.633092 1.115309
V3    V     V_3+5 0.302840 0.262750 0.251990 1.253692
V4    V     V_3+5 0.697160 0.737250 0.748010 1.253698
O19   O     O_3   0.027820 0.193180 0.251990 -0.257541
O20   O     O_3   0.972180 0.806820 0.748010 -0.257543
C9    C     C_3   0.971747 0.416233 0.529354 0.274577
C10   C     C_3   0.028253 0.583767 0.470646 0.274580
C11   C     C_3   0.137349 0.479641 0.557895 -0.289946
C12   C     C_3   0.862651 0.520359 0.442104 -0.289944
H1    H     H_    0.241553 0.460643 0.607048 0.247055
H2    H     H_    0.758451 0.539357 0.392950 0.247058
C13   C     C_3   0.990639 0.561227 0.563218 -0.479929
C14   C     C_3   0.009361 0.438773 0.436782 -0.479943
C15   C     C_3   0.828460 0.496617 0.535377 0.371514
C16   C     C_3   0.171540 0.503383 0.464623 0.371506
C17   C     C_R   0.821286 0.525384 0.967139 -0.111478
C18   C     C_R   0.178714 0.474616 0.032861 -0.111481
H3    H     H_    0.681005 0.543902 0.942946 0.123605
H4    H     H_    0.318995 0.456097 0.057054 0.123604
C19   C     C_R   0.832090 0.462350 0.032903 -0.114064
C20   C     C_R   0.167910 0.537650 0.967097 -0.114063
H5    H     H_    0.699678 0.434142 0.057126 0.124653
H6    H     H_    0.300321 0.565858 0.942874 0.124653
C21   C     C_R   0.010960 0.436055 0.066740 -0.112478
C22   C     C_R   0.989040 0.563945 0.933260 -0.112478
C23   C     C_R   0.654057 0.994397 0.443155 0.395596
C24   C     C_R   0.345943 0.005603 0.556844 0.395597
C25   C     C_R   0.636958 0.929917 0.507481 -0.110820
C26   C     C_R   0.363042 0.070083 0.492519 -0.110824
H7    H     H_    0.743618 0.875407 0.512056 0.205031
H8    H     H_    0.256382 0.124592 0.487944 0.205031
C27   C     C_R   0.484876 0.934452 0.565089 -0.367158
C28   C     C_R   0.515124 0.065548 0.434911 -0.367158
C29   C     C_R   0.679048 0.025208 0.032354 -0.109461
C30   C     C_R   0.320952 0.974792 0.967646 -0.109461
H9    H     H_    0.819477 0.043544 0.056132 0.124708
H10   H     H_    0.180523 0.956456 0.943868 0.124708
C31   C     C_R   0.667667 0.961262 0.966632 -0.107109
C32   C     C_R   0.332333 0.038738 0.033368 -0.107109
H11   H     H_    0.800061 0.932221 0.942052 0.126276
H12   H     H_    0.199939 0.067779 0.057947 0.126276
C33   C     C_R   0.488446 0.935106 0.933277 -0.118775
C34   C     C_R   0.511554 0.064894 0.066723 -0.118775
N1    N     N_R   0.941067 0.324593 0.563548 0.274431
O21   O     O_R   0.935399 0.313311 0.644004 -0.305408
O22   O     O_R   0.928666 0.253221 0.514458 -0.370955
N2    N     N_R   0.058931 0.675407 0.436452 0.274436
O23   O     O_R   0.064597 0.686689 0.355996 -0.305417
O24   O     O_R   0.071334 0.746779 0.485542 -0.370948
N3    N     N_R   0.641990 0.493516 0.576440 0.254048
O25   O     O_R   0.532090 0.566328 0.577201 -0.380398
O26   O     O_R   0.590713 0.420710 0.617525 -0.359874
N4    N     N_R   0.358009 0.506487 0.423560 0.254046
O27   O     O_R   0.409308 0.579307 0.382499 -0.359863
O28   O     O_R   0.467911 0.433676 0.422793 -0.380414
N5    N     N_R   0.810158 0.984339 0.385471 0.235538
O29   O     O_R   0.960847 0.036156 0.393723 -0.354208
O30   O     O_R   0.822147 0.910388 0.339460 -0.341173
N6    N     N_R   0.189842 0.015661 0.614529 0.235539
O31   O     O_R   0.039152 0.963845 0.606277 -0.354208
O32   O     O_R   0.177854 0.089611 0.660540 -0.341175

loop_
_geom_bond_atom_site_label_1
_geom_bond_atom_site_label_2
_geom_bond_distance
_ccdc_geom_bond_type
C29   C34   1.406200 A    
C6    C22   1.491461 S    
C32   H12   1.082760 S    
C16   N4    1.454433 S    
C25   C27   1.403693 A    
O13   V3    1.716795 S    
C10   C16   1.531960 S    
O4    C2    1.298102 A    
V1    O19   1.707241 S    
C19   H5    1.082772 S    
N3    O25   1.300241 A    
O9    V1    2.005994 S    
N2    O24   1.300280 A    
C11   H1    1.105294 S    
O3    C1    1.298102 A    
C2    C27   1.486815 S    
C15   N3    1.454434 S    
N6    O32   1.300671 A    
C17   C22   1.407107 A    
C3    C34   1.492995 S    
O12   V4    2.002230 S    
C29   H9    1.082778 S    
C11   C16   1.553418 S    
O7    C3    1.305869 A    
C30   H10   1.082778 S    
C9    C11   1.546856 S    
O5    C7    1.294884 A    
O7    V1    2.009395 S    
O6    C8    1.294884 A    
O8    V2    2.009395 S    
C31   H11   1.082761 S    
O3    V1    2.007979 S    
O14   V4    1.716796 S    
C10   C12   1.546853 S    
C14   C16   1.536475 S    
C2    O12   1.302650 A    
C12   C15   1.553418 S    
C23   C28   1.416445 A    
C18   H4    1.082750 S    
O11   V3    2.002232 S    
C24   C27   1.416444 A    
C23   C25   1.401660 A    
O15   C5    1.304460 A    
O17   V3    2.002426 S    
C24   C26   1.401659 A    
C9    C14   1.542560 S    
N2    O23   1.300363 A    
C30   C32   1.401866 A    
C10   C13   1.542558 S    
C12   C14   1.559942 S    
N4    O28   1.300240 A    
O8    C4    1.305869 A    
C24   N6    1.430856 S    
N6    O31   1.300456 A    
C19   C21   1.408457 A    
C1    O11   1.302652 A    
C8    C13   1.499318 S    
O15   V3    2.001980 S    
C26   C28   1.403693 A    
C30   C33   1.406200 A    
C11   C13   1.559943 S    
C5    C21   1.491461 S    
N5    O29   1.300455 A    
C7    C14   1.499318 S    
O10   V2    2.005997 S    
O1    V3    2.003125 S    
N3    O26   1.300210 A    
C20   H6    1.082772 S    
C17   H3    1.082750 S    
C10   N2    1.458795 S    
C18   C21   1.407106 A    
N5    O30   1.300673 A    
O18   V4    2.002425 S    
C25   H7    1.083823 S    
C4    C33   1.492995 S    
O16   C6    1.304459 A    
O1    C3    1.298992 A    
C1    C28   1.486814 S    
N1    O22   1.300281 A    
V2    O20   1.707241 S    
O16   V4    2.001983 S    
N4    O27   1.300211 A    
O5    V1    2.007207 S    
O17   C7    1.299748 A    
O6    V2    2.007206 S    
O10   C6    1.301003 A    
O18   C8    1.299749 A    
O2    V4    2.003128 S    
C23   N5    1.430856 S    
C9    C15   1.531961 S    
C12   H2    1.105294 S    
N1    O21   1.300370 A    
V3    O19   2.168826 S    
V4    O20   2.168824 S    
C32   C34   1.409908 A    
C31   C33   1.409909 A    
O9    C5    1.301003 A    
O13   V1    2.155550 S    
C26   H8    1.083823 S    
O14   V2    2.155551 S    
O2    C4    1.298990 A    
C9    N1    1.458795 S    
O4    V2    2.007976 S    
C29   C31   1.401865 A    
C20   C22   1.408457 A    
C13   C15   1.536475 S    
C17   C19   1.401141 A    
C18   C20   1.401142 A    
