data_mof_unit_20636.cif
_audit_creation_date              2012-12-11T15:53:34-0500
_audit_creation_method            fapswitch 2.2
_symmetry_space_group_name_H-M    P1
_symmetry_Int_Tables_number       1
_space_group_crystal_system       triclinic
_cell_length_a                    6.931409
_cell_length_b                    14.53633
_cell_length_c                    15.976258
_cell_angle_alpha                 90.488034
_cell_angle_beta                  90.062954
_cell_angle_gamma                 90.039879
_cell_volume                      1609.66403198

loop_
_atom_site_label
_atom_site_type_symbol
_atom_type_description
_atom_site_fract_x
_atom_site_fract_y
_atom_site_fract_z
_atom_type_partial_charge
O1    O     O_R   0.361600 0.167310 0.164620 -0.544596
O2    O     O_R   0.638400 0.832690 0.835380 -0.544596
O3    O     O_R   0.691080 0.157570 0.338750 -0.537296
O4    O     O_R   0.308920 0.842430 0.661250 -0.537296
O5    O     O_R   0.861410 0.336420 0.339360 -0.524086
O6    O     O_R   0.138590 0.663580 0.660640 -0.524087
C1    C     C_R   0.522058 0.135249 0.367519 0.730214
C2    C     C_R   0.477941 0.864751 0.632481 0.730214
O7    O     O_R   0.691320 0.156280 0.165240 -0.547367
O8    O     O_R   0.308680 0.843720 0.834760 -0.547367
O9    O     O_R   0.861640 0.335130 0.164600 -0.545594
O10   O     O_R   0.138360 0.664870 0.835400 -0.545594
C3    C     C_R   0.522206 0.133805 0.136081 0.676473
C4    C     C_R   0.477794 0.866195 0.863919 0.676473
O11   O     O_R   0.361370 0.168600 0.339370 -0.542075
O12   O     O_R   0.638630 0.831400 0.660630 -0.542075
O13   O     O_3   0.527990 0.310540 0.251980 -0.368369
O14   O     O_3   0.472010 0.689460 0.748020 -0.368369
V1    V     V_3+5 0.802830 0.240980 0.251990 1.451791
V2    V     V_3+5 0.197170 0.759020 0.748010 1.451790
O15   O     O_R   0.191360 0.346160 0.165220 -0.546615
O16   O     O_R   0.808640 0.653840 0.834780 -0.546616
C5    C     C_R   0.022284 0.368237 0.136056 0.674628
C6    C     C_R   0.977716 0.631763 0.863944 0.674629
O17   O     O_R   0.191130 0.347440 0.338740 -0.540314
O18   O     O_R   0.808870 0.652560 0.661260 -0.540313
C7    C     C_R   0.022405 0.369642 0.367530 0.772855
C8    C     C_R   0.977595 0.630358 0.632470 0.772855
V3    V     V_3+5 0.302840 0.262750 0.251990 1.445182
V4    V     V_3+5 0.697160 0.737250 0.748010 1.445182
O19   O     O_3   0.027820 0.193180 0.251990 -0.376157
O20   O     O_3   0.972180 0.806820 0.748010 -0.376157
C9    C     C_3   0.918261 0.421745 0.522994 0.445179
C10   C     C_3   0.081739 0.578255 0.477006 0.445179
C11   C     C_3   0.091991 0.467090 0.567848 -0.219052
C12   C     C_3   0.908009 0.532910 0.432152 -0.219052
H1    H     H_    0.166144 0.439732 0.623992 0.159031
H2    H     H_    0.833856 0.560268 0.376008 0.159031
C13   C     C_3   0.987896 0.560739 0.562425 -0.143201
C14   C     C_3   0.012104 0.439261 0.437575 -0.143201
C15   C     C_3   0.812941 0.515174 0.518649 -0.191603
C16   C     C_3   0.187059 0.484826 0.481351 -0.191603
H3    H     H_    0.659073 0.527055 0.534584 0.159882
H4    H     H_    0.340927 0.472945 0.465416 0.159882
C17   C     C_R   0.820579 0.525132 0.967302 -0.145315
C18   C     C_R   0.179421 0.474868 0.032698 -0.145315
H5    H     H_    0.679804 0.543454 0.943228 0.117181
H6    H     H_    0.320195 0.456546 0.056772 0.117180
C19   C     C_R   0.831584 0.462103 0.033011 -0.144021
C20   C     C_R   0.168416 0.537897 0.966989 -0.144021
H7    H     H_    0.698748 0.433683 0.057326 0.118470
H8    H     H_    0.301252 0.566317 0.942674 0.118470
C21   C     C_R   0.011164 0.436067 0.066688 -0.042195
C22   C     C_R   0.988836 0.563933 0.933312 -0.042195
C23   C     C_R   0.679580 0.026983 0.468816 -0.102336
C24   C     C_R   0.320420 0.973017 0.531184 -0.102336
H9    H     H_    0.820399 0.046708 0.445803 0.123982
H10   H     H_    0.179601 0.953292 0.554196 0.123982
C25   C     C_R   0.668651 0.961751 0.532531 -0.125740
C26   C     C_R   0.331349 0.038248 0.467468 -0.125740
H11   H     H_    0.801581 0.933172 0.556640 0.126158
H12   H     H_    0.198419 0.066827 0.443360 0.126158
C27   C     C_R   0.488926 0.933932 0.564617 -0.046642
C28   C     C_R   0.511074 0.066068 0.435383 -0.046642
C29   C     C_R   0.679426 0.025633 0.032833 -0.148139
C30   C     C_R   0.320574 0.974367 0.967167 -0.148139
H13   H     H_    0.820173 0.044347 0.057038 0.116909
H14   H     H_    0.179827 0.955653 0.942962 0.116909
C31   C     C_R   0.668489 0.961563 0.967067 -0.143694
C32   C     C_R   0.331511 0.038437 0.032933 -0.143694
H15   H     H_    0.801316 0.932721 0.942795 0.118311
H16   H     H_    0.198683 0.067279 0.057205 0.118311
C33   C     C_R   0.488912 0.935054 0.933294 -0.042588
C34   C     C_R   0.511088 0.064946 0.066706 -0.042588
Cl1   Cl    Cl    0.807890 0.316669 0.553784 -0.669247
Cl2   Cl    Cl    0.192109 0.683331 0.446216 -0.669247

loop_
_geom_bond_atom_site_label_1
_geom_bond_atom_site_label_2
_ccdc_geom_bond_type
C30   H14   S    
O11   V3    S    
C23   C25   A    
O13   V3    S    
C10   C16   S    
O4    C2    A    
V1    O19   S    
C13   C15   S    
O9    V1    S    
C20   C22   A    
C11   H1    S    
O3    C1    A    
C19   C21   A    
O12   V4    S    
C26   H12   S    
C31   H15   S    
C11   C16   S    
O7    C3    A    
O13   V1    S    
O5    C7    A    
O7    V1    S    
O6    C8    A    
O8    V2    S    
C19   H7    S    
C32   C34   A    
C20   H8    S    
O3    V1    S    
O14   V4    S    
C10   C12   S    
C1    O11   A    
C2    O12   A    
C15   H3    S    
C12   C15   S    
C16   H4    S    
C9    Cl1   S    
C5    C21   S    
C17   H5    S    
O15   C5    A    
O17   V3    S    
C18   H6    S    
C25   H11   S    
C9    C14   S    
C10   C13   S    
C4    C33   S    
C12   C14   S    
O8    C4    A    
C8    C13   S    
C29   H13   S    
C30   C33   A    
O15   V3    S    
C29   C34   A    
C24   C26   A    
C11   C13   S    
C17   C19   A    
C7    C14   S    
C23   C28   A    
O10   V2    S    
O1    V3    S    
C24   C27   A    
C31   C33   A    
C17   C22   A    
O18   V4    S    
C23   H9    S    
O16   C6    A    
O1    C3    A    
V2    O20   S    
C18   C20   A    
O16   V4    S    
C25   C27   A    
C14   C16   S    
O5    V1    S    
O17   C7    A    
O6    V2    S    
O10   C6    A    
O18   C8    A    
O2    V4    S    
C26   C28   A    
C9    C15   S    
C12   H2    S    
V3    O19   S    
V4    O20   S    
C30   C32   A    
C29   C31   A    
C18   C21   A    
O9    C5    A    
C9    C11   S    
C24   H10   S    
O14   V2    S    
O2    C4    A    
C1    C28   S    
C2    C27   S    
O4    V2    S    
C3    C34   S    
C32   H16   S    
C6    C22   S    
C10   Cl2   S    
