data_mof_unit_45222.cif
_audit_creation_date              2012-12-10T17:19:56-0500
_audit_creation_method            fapswitch 2.2
_symmetry_space_group_name_H-M    P1
_symmetry_Int_Tables_number       1
_space_group_crystal_system       triclinic
_cell_length_a                    9.583874
_cell_length_b                    10.843165
_cell_length_c                    15.419362
_cell_angle_alpha                 87.575306
_cell_angle_beta                  74.133837
_cell_angle_gamma                 89.836926
_cell_volume                      1539.88374519

loop_
_atom_site_label
_atom_site_type_symbol
_atom_type_description
_atom_site_fract_x
_atom_site_fract_y
_atom_site_fract_z
_atom_type_partial_charge
C1    C     C_R   0.003998 0.262491 0.493609 0.826402
C2    C     C_R   0.689692 0.528451 0.918119 -0.030815
C3    C     C_R   0.776959 0.459543 0.963219 -0.018182
C4    C     C_R   0.554589 0.574663 0.970634 0.095823
C5    C     C_R   0.490705 0.520880 0.057683 0.101592
C6    C     C_R   0.579457 0.452243 0.100611 -0.175130
C7    C     C_R   0.722391 0.427342 0.055362 -0.177512
C8    C     C_R   0.485001 0.676652 0.941323 -0.212153
C9    C     C_R   0.345740 0.709658 0.988549 -0.217134
C10   C     C_R   0.272382 0.642448 0.066769 0.099502
C11   C     C_R   0.343306 0.545483 0.101921 0.007582
C12   C     C_R   0.917699 0.499582 0.672939 0.887598
C13   C     C_R   0.129326 0.671931 0.110555 -0.193433
C14   C     C_R   0.059830 0.612679 0.192396 -0.256239
C15   C     C_R   0.264294 0.472881 0.177842 0.426067
C16   C     C_R   0.274360 0.110938 0.482897 -0.172684
C17   C     C_R   0.380888 0.048798 0.512721 -0.281867
C18   C     C_R   0.348057 0.937216 0.562049 -0.056802
C19   C     C_R   0.211266 0.881992 0.574509 0.496299
C20   C     C_R   0.112069 0.935963 0.529895 -0.031452
C21   C     C_R   0.133003 0.060335 0.499326 -0.012543
C22   C     C_R   0.011769 0.127612 0.486183 -0.216257
C23   C     C_R   0.997083 0.736913 0.506694 0.844098
C24   C     C_R   0.889796 0.062635 0.476804 0.500611
C25   C     C_R   0.884547 0.935215 0.487817 -0.279716
C26   C     C_R   0.994871 0.870826 0.513087 -0.177116
C27   C     C_R   0.696049 0.666060 0.382242 -0.153308
C28   C     C_R   0.649125 0.749302 0.325638 -0.222041
C29   C     C_R   0.505369 0.750225 0.325725 -0.203918
C30   C     C_R   0.407854 0.667881 0.382364 -0.143849
C31   C     C_R   0.450484 0.582598 0.442421 0.212483
C32   C     C_R   0.600127 0.582158 0.442349 0.199656
C33   C     C_R   0.549095 0.420684 0.554535 0.056097
C34   C     C_R   0.082163 0.498859 0.327745 0.740392
C35   C     C_R   0.401465 0.421011 0.554142 -0.113431
C36   C     C_R   0.872686 0.495977 0.773644 -0.271838
C37   C     C_R   0.128897 0.518147 0.229326 -0.103055
C38   C     C_R   0.915022 0.419046 0.915332 0.396752
C39   C     C_R   0.966834 0.444735 0.821798 0.354882
C40   C     C_R   0.733467 0.537592 0.822200 -0.166456
Cu1   Cu    Cu3+1 0.140660 0.499990 0.500010 0.958577
Cu2   Cu    Cu3+1 0.859340 0.500010 0.499990 0.971044
H1    H     H_    0.787510 0.376907 0.092039 0.185589
H2    H     H_    0.074219 0.746000 0.084278 0.139799
H3    H     H_    0.307596 0.195466 0.443280 0.170802
H4    H     H_    0.487551 0.090296 0.499973 0.209018
H5    H     H_    0.793418 0.886961 0.475543 0.190823
H6    H     H_    0.808817 0.670891 0.375540 0.191325
H7    H     H_    0.725433 0.812773 0.280777 0.138724
H8    H     H_    0.469065 0.814485 0.280923 0.150067
H9    H     H_    0.301174 0.675214 0.375223 0.193357
H10   H     H_    0.325422 0.356488 0.598107 0.172431
H11   H     H_    0.955509 0.646797 0.229531 0.155596
H12   H     H_    0.294680 0.787219 0.963113 0.146694
H13   H     H_    0.541927 0.422772 0.170930 0.161100
H14   H     H_    0.539535 0.734933 0.883448 0.162419
N1    N     N_R   0.648320 0.501210 0.499140 -0.215147
N2    N     N_R   0.352470 0.501290 0.499110 -0.198396
O1    O     O_R   0.118810 0.319640 0.500010 -0.602331
O2    O     O_R   0.881240 0.319660 0.500000 -0.524134
O3    O     O_R   0.055570 0.499980 0.629840 -0.512102
O4    O     O_R   0.818000 0.500010 0.629830 -0.577592
O5    O     O_R   0.118760 0.680340 0.500000 -0.561211
O6    O     O_R   0.881190 0.680360 0.499990 -0.606777
O7    O     O_R   0.182000 0.499990 0.370170 -0.623490
O8    O     O_R   0.944430 0.500020 0.370160 -0.597648
O9    O     O_3   0.773038 0.122739 0.458453 -0.572929
C41   C     C_3   0.796342 0.132595 0.364092 -0.338407
H15   H     H_    0.800612 0.039933 0.335064 0.150084
H16   H     H_    0.896886 0.186430 0.330768 0.161964
H17   H     H_    0.703880 0.182806 0.349297 0.183715
C42   C     C_1   0.456037 0.879982 0.599193 0.313829
N3    N     N_1   0.543410 0.834657 0.628741 -0.263089
O10   O     O_3   0.174756 0.779129 0.632896 -0.565711
C43   C     C_3   0.070217 0.813298 0.711874 -0.352003
H18   H     H_    0.965126 0.836739 0.698029 0.168269
H19   H     H_    0.109600 0.891430 0.743798 0.160288
H20   H     H_    0.049429 0.733830 0.761421 0.176039
C44   C     C_1   0.592447 0.333319 0.614826 0.345579
N4    N     N_1   0.626302 0.262753 0.663611 -0.284675
O11   O     O_3   0.295948 0.346968 0.176762 -0.577840
C45   C     C_3   0.289870 0.292425 0.262125 -0.321096
H21   H     H_    0.353000 0.346128 0.298454 0.168575
H22   H     H_    0.341799 0.200671 0.251982 0.179397
H23   H     H_    0.176025 0.275051 0.302059 0.153514
O12   O     O_3   0.001735 0.355355 0.960287 -0.568913
C46   C     C_3   0.983268 0.227605 0.952565 -0.278438
H24   H     H_    0.023453 0.200543 0.881304 0.194133
H25   H     H_    0.047975 0.176807 0.991876 0.187582
H26   H     H_    0.867908 0.198376 0.980972 0.140541
O13   O     O_3   0.100473 0.399020 0.775947 -0.576179
C47   C     C_3   0.210960 0.477684 0.786795 -0.206242
H27   H     H_    0.199819 0.497850 0.858563 0.184077
H28   H     H_    0.214799 0.565123 0.746028 0.195794
H29   H     H_    0.316441 0.431025 0.761385 0.181021
C48   C     C_1   0.628213 0.572719 0.773737 0.312908
N5    N     N_1   0.543919 0.600139 0.735240 -0.289224

loop_
_geom_bond_atom_site_label_1
_geom_bond_atom_site_label_2
_ccdc_geom_bond_type
C27   H6    S    
C8    C9    A    
C46   H24   S    
C16   C21   A    
C34   C37   S    
Cu1   Cu2   S    
C19   C20   A    
Cu1   O3    S    
C6    H13   S    
C4    C8    A    
C34   O8    A    
O11   C45   S    
C15   O11   S    
C38   O12   S    
C35   N2    A    
C5    C6    A    
C31   N2    A    
C28   C29   A    
C30   H9    S    
Cu1   N2    S    
C5    C11   A    
C3    C7    A    
C1    O1    A    
C30   C31   A    
Cu2   N1    S    
C18   C19   A    
C23   C26   S    
C15   C37   A    
C24   O9    S    
C11   C15   A    
C3    C38   A    
C16   C17   A    
C7    H1    S    
C12   C36   S    
C9    C10   A    
C25   H5    S    
C23   O5    A    
C1    C22   S    
C21   C22   A    
C8    H14   S    
C32   N1    A    
C40   C48   S    
C34   O7    A    
C39   O13   S    
C29   H8    S    
C36   C39   A    
C18   C42   S    
O10   C43   S    
O9    C41   S    
C36   C40   A    
C24   C25   A    
Cu1   O1    S    
C1    O2    A    
Cu2   O2    S    
O13   C47   S    
O12   C46   S    
C41   H15   S    
Cu1   O7    S    
C25   C26   A    
C47   H29   S    
C2    C4    A    
C43   H18   S    
C29   C30   A    
C12   O4    A    
C28   H7    S    
C31   C32   A    
C48   N5    T    
C47   H28   S    
C17   C18   A    
C17   H4    S    
C43   H19   S    
C23   O6    A    
C45   H22   S    
C46   H25   S    
C22   C24   A    
Cu1   O5    S    
Cu2   O6    S    
C35   H10   S    
Cu2   O4    S    
C33   N1    A    
C27   C32   A    
C19   O10   S    
C33   C44   S    
C42   N3    T    
C10   C13   A    
C16   H3    S    
C6    C7    A    
C45   H23   S    
C2    C3    A    
C14   C37   A    
C12   O3    A    
C38   C39   A    
C20   C26   A    
C41   H17   S    
C47   H27   S    
C33   C35   A    
C43   H20   S    
C10   C11   A    
C44   N4    T    
C2    C40   A    
C4    C5    A    
C14   H11   S    
C20   C21   A    
C41   H16   S    
C45   H21   S    
C46   H26   S    
C27   C28   A    
Cu2   O8    S    
C9    H12   S    
C13   C14   A    
C13   H2    S    
