data_mof_unit_53033.cif
_audit_creation_date              2012-12-10T20:28:46-0500
_audit_creation_method            fapswitch 2.2
_symmetry_space_group_name_H-M    P1
_symmetry_Int_Tables_number       1
_space_group_crystal_system       triclinic
_cell_length_a                    10.597477
_cell_length_b                    10.668686
_cell_length_c                    9.885312
_cell_angle_alpha                 90.035237
_cell_angle_beta                  90.260481
_cell_angle_gamma                 90.150438
_cell_volume                      1117.6291653

loop_
_atom_site_label
_atom_site_type_symbol
_atom_type_description
_atom_site_fract_x
_atom_site_fract_y
_atom_site_fract_z
_atom_type_partial_charge
C1    C     C_R   0.496932 0.260017 0.499915 0.836075
C2    C     C_R   0.445772 0.935105 0.617705 -0.250027
C3    C     C_R   0.476930 0.871338 0.498495 -0.053237
C4    C     C_R   0.260614 0.499606 0.499619 0.890254
C5    C     C_R   0.483897 0.936217 0.376654 -0.003274
C6    C     C_3   0.578238 0.929790 0.264825 0.491061
C7    C     C_3   0.578078 0.071947 0.264817 -0.521233
C8    C     C_R   0.432927 0.411994 0.070949 0.152534
C9    C     C_R   0.574940 0.579737 0.072852 -0.174273
C10   C     C_R   0.573942 0.581536 0.928347 0.234286
C11   C     C_R   0.433303 0.411313 0.928475 0.091787
C12   C     C_R   0.065855 0.377179 0.507957 0.087776
C13   C     C_3   0.293429 0.391028 0.923987 0.010341
C14   C     C_3   0.294191 0.391396 0.078162 -0.530096
C15   C     C_R   0.496261 0.739943 0.499885 0.953446
C16   C     C_R   0.739376 0.498950 0.500194 0.982358
C17   C     C_R   0.131221 0.262199 0.513013 -0.193360
C18   C     C_R   0.065809 0.149196 0.523866 -0.156967
C19   C     C_R   0.933905 0.148306 0.532500 0.268141
C20   C     C_R   0.868372 0.262166 0.523810 -0.239545
C21   C     C_R   0.933955 0.377163 0.511217 -0.015086
C22   C     C_3   0.636886 0.799061 0.897859 -0.809964
C23   C     C_R   0.128431 0.493285 0.498259 -0.168563
C24   C     C_3   0.126682 0.242916 0.863290 -0.756656
C25   C     C_3   0.897762 0.960337 0.664949 -0.693646
C26   C     C_R   0.064914 0.606395 0.485785 -0.318112
C27   C     C_R   0.935826 0.606338 0.485261 0.618759
C28   C     C_R   0.871661 0.493251 0.500319 -0.243172
C29   C     C_R   0.483797 0.063926 0.376608 0.020068
C30   C     C_R   0.477860 0.128543 0.498635 -0.065732
C31   C     C_R   0.447165 0.064714 0.618032 -0.224946
F1    F     F_    0.872861 0.716156 0.469816 -0.633528
F2    F     F_    0.692669 0.880700 0.307106 -0.609730
H1    H     H_    0.115652 0.694387 0.476210 0.163665
H2    H     H_    0.118501 0.062430 0.525848 0.154013
H3    H     H_    0.766429 0.260059 0.527828 0.117461
H4    H     H_    0.432407 0.113767 0.712415 0.173422
H5    H     H_    0.428566 0.885880 0.711526 0.173322
H6    H     H_    0.741148 0.641310 0.844744 0.229710
H7    H     H_    0.668402 0.860931 0.814577 0.251961
H8    H     H_    0.696560 0.817899 0.988299 0.245813
H9    H     H_    0.536948 0.822074 0.920487 0.228131
H10   H     H_    0.313341 0.195709 0.903409 0.219777
H11   H     H_    0.075744 0.317259 0.806664 0.255183
H12   H     H_    0.539644 0.886658 0.171079 0.052437
H13   H     H_    0.088588 0.236578 0.967577 0.238805
H14   H     H_    0.110299 0.151912 0.811592 0.237484
H15   H     H_    0.770612 0.039902 0.530192 0.252482
H16   H     H_    0.841376 0.872644 0.665101 0.281294
H17   H     H_    0.875731 0.014497 0.757961 0.206864
H18   H     H_    0.998926 0.933709 0.665421 0.229980
H19   H     H_    0.669102 0.114545 0.297757 0.223040
H20   H     H_    0.536641 0.112620 0.171157 0.161819
H21   H     H_    0.633900 0.644605 0.128824 0.196980
H22   H     H_    0.241327 0.470498 0.877071 0.173305
H23   H     H_    0.243481 0.472941 0.121780 0.209710
H24   H     H_    0.270916 0.299720 0.125499 0.205613
H25   H     H_    0.232923 0.258795 0.508343 0.145888
N1    N     N_R   0.499160 0.499140 0.142800 -0.116671
N2    N     N_R   0.499160 0.499180 0.857150 -0.137951
N3    N     N_2   0.648869 0.669440 0.856570 -0.243135
N4    N     N_2   0.260477 0.269676 0.867139 -0.276672
N5    N     N_2   0.866685 0.033134 0.545911 -0.246173
O1    O     O_R   0.500020 0.316790 0.614690 -0.622403
O2    O     O_R   0.500000 0.316760 0.385350 -0.614282
O3    O     O_R   0.316770 0.500020 0.614690 -0.621058
O4    O     O_R   0.316760 0.499980 0.385350 -0.622631
O5    O     O_R   0.500000 0.683240 0.614650 -0.604665
O6    O     O_R   0.499980 0.683210 0.385310 -0.610779
O7    O     O_R   0.683240 0.500020 0.614650 -0.623554
O8    O     O_R   0.683230 0.499980 0.385310 -0.594415
Zn1   Zn    Zn3+2 0.500010 0.500020 0.653130 0.962525
Zn2   Zn    Zn3+2 0.499990 0.499980 0.346870 0.967966

loop_
_geom_bond_atom_site_label_1
_geom_bond_atom_site_label_2
_ccdc_geom_bond_type
C12   C17   A    
C16   C28   S    
C4    O4    A    
C10   N2    A    
C25   H18   S    
O6    Zn2   S    
C6    C7    S    
C7    C29   S    
C6    H12   S    
C29   C30   A    
C9    C10   A    
N1    Zn2   S    
C14   H23   S    
C19   C20   A    
C6    F2    S    
C17   H25   S    
O5    Zn1   S    
C22   H7    S    
C3    C5    A    
C17   C18   A    
O2    Zn2   S    
C13   C14   S    
C22   N3    S    
C4    O3    A    
C11   C13   S    
C12   C23   A    
C26   C27   A    
C22   H9    S    
C16   O8    A    
C24   N4    S    
C8    C11   A    
O4    Zn2   S    
C15   O5    A    
C12   C21   A    
C1    C30   S    
C21   C28   A    
C7    H19   S    
C2    C3    A    
C5    C29   A    
O1    Zn1   S    
C8    N1    A    
C25   N5    S    
C5    C6    S    
C24   H11   S    
C15   O6    A    
C8    C14   S    
C22   H8    S    
N2    Zn1   S    
C11   N2    A    
C10   N3    S    
C1    O1    A    
C31   H4    S    
H6    N3    S    
C16   O7    A    
C20   C21   A    
C18   C19   A    
C18   H2    S    
C23   C26   A    
C27   C28   A    
O8    Zn2   S    
C14   H24   S    
C2    H5    S    
C30   C31   A    
C2    C31   A    
C3    C15   S    
O7    Zn1   S    
C9    H21   S    
C7    H20   S    
C9    N1    A    
C27   F1    S    
C25   H17   S    
C24   H14   S    
C1    O2    A    
C26   H1    S    
C4    C23   S    
O3    Zn1   S    
C13   N4    S    
H15   N5    S    
H10   N4    S    
C19   N5    S    
C24   H13   S    
C13   H22   S    
C25   H16   S    
C20   H3    S    
