data_mof_unit_53847.cif
_audit_creation_date              2012-12-10T18:57:10-0500
_audit_creation_method            fapswitch 2.2
_symmetry_space_group_name_H-M    P1
_symmetry_Int_Tables_number       1
_space_group_crystal_system       triclinic
_cell_length_a                    10.707736
_cell_length_b                    9.8453
_cell_length_c                    10.655821
_cell_angle_alpha                 90.062802
_cell_angle_beta                  90.133573
_cell_angle_gamma                 89.95614
_cell_volume                      1123.34190052

loop_
_atom_site_label
_atom_site_type_symbol
_atom_type_description
_atom_site_fract_x
_atom_site_fract_y
_atom_site_fract_z
_atom_type_partial_charge
C1    C     C_R   0.259927 0.499968 0.499952 0.904219
C2    C     C_R   0.538026 0.607527 0.936493 0.102217
C3    C     C_R   0.479955 0.502992 0.128527 -0.273136
C4    C     C_R   0.479935 0.503175 0.871276 -0.274432
C5    C     C_R   0.399917 0.412061 0.065157 0.321660
C6    C     C_R   0.400061 0.411968 0.933946 0.326506
C7    C     C_3   0.669489 0.657786 0.929289 -0.450863
C8    C     C_3   0.669591 0.657583 0.071702 -0.439946
C9    C     C_R   0.064168 0.380692 0.531089 -0.128192
C10   C     C_R   0.936206 0.380659 0.531102 -0.182820
C11   C     C_R   0.872533 0.499877 0.499983 -0.017102
C12   C     C_R   0.740075 0.499915 0.500035 0.853662
C13   C     C_R   0.127490 0.499943 0.499948 -0.007988
C14   C     C_R   0.935868 0.619115 0.468825 -0.188460
C15   C     C_R   0.063822 0.619144 0.468800 -0.176476
C16   C     C_R   0.584832 0.071953 0.570127 -0.043215
C17   C     C_R   0.414921 0.071875 0.430244 -0.029198
C18   C     C_R   0.584780 0.928076 0.570198 -0.063915
C19   C     C_R   0.415051 0.928038 0.430050 -0.061678
C20   C     C_R   0.495267 0.500093 0.260215 0.959177
C21   C     C_R   0.495403 0.500191 0.739740 0.956354
C22   C     C_R   0.538106 0.607376 0.063851 0.096716
Cl1   Cl    Cl    0.300800 0.299658 0.147440 -0.571817
Cl2   Cl    Cl    0.301921 0.298569 0.850702 -0.543171
H1    H     H_    0.734375 0.581944 0.887603 0.198798
H2    H     H_    0.346638 0.126221 0.374781 0.179452
H3    H     H_    0.652503 0.873597 0.626415 0.127586
H4    H     H_    0.347127 0.873555 0.374077 0.137929
H5    H     H_    0.675212 0.761089 0.113120 0.215447
H6    H     H_    0.675016 0.761405 0.888317 0.210068
H7    H     H_    0.734524 0.581610 0.113263 0.199577
H8    H     H_    0.113167 0.288270 0.556302 0.178692
H9    H     H_    0.887484 0.288219 0.556312 0.156074
H10   H     H_    0.886885 0.711552 0.443639 0.160291
H11   H     H_    0.112541 0.711586 0.443589 0.158475
H12   H     H_    0.652636 0.126442 0.626239 0.127276
N1    N     N_R   0.500000 0.857200 0.500000 -0.086596
N2    N     N_R   0.500000 0.142810 0.500000 -0.084460
O1    O     O_R   0.316770 0.614620 0.499990 -0.636970
O2    O     O_R   0.683230 0.614620 0.500010 -0.635242
O3    O     O_R   0.316800 0.385290 0.500000 -0.602986
O4    O     O_R   0.683200 0.385290 0.500000 -0.635394
O5    O     O_R   0.500000 0.614690 0.316780 -0.623241
O6    O     O_R   0.500000 0.614690 0.683220 -0.616498
O7    O     O_R   0.500020 0.385360 0.316780 -0.581106
O8    O     O_R   0.499980 0.385360 0.683220 -0.581150
Zn1   Zn    Zn3+2 0.500000 0.653120 0.500000 0.959555
Zn2   Zn    Zn3+2 0.500000 0.346880 0.500000 1.006318

loop_
_geom_bond_atom_site_label_1
_geom_bond_atom_site_label_2
_ccdc_geom_bond_type
C14   H10   S    
O2    Zn1   S    
C8    C22   S    
C11   C12   S    
C2    C22   A    
C4    C21   S    
N1    Zn1   S    
C21   O6    A    
C9    C10   A    
C1    O1    A    
C2    C4    A    
C2    C7    S    
C7    H1    S    
O6    Zn1   S    
C6    Cl2   S    
C7    C8    S    
C7    H6    S    
O4    Zn2   S    
C16   H12   S    
C19   H4    S    
C17   H2    S    
O1    Zn1   S    
C17   C19   A    
C18   N1    A    
N2    Zn2   S    
C10   H9    S    
C17   N2    A    
C13   C15   A    
C5    C6    A    
C11   C14   A    
O8    Zn2   S    
C1    C13   S    
C10   C11   A    
C8    H5    S    
C3    C20   S    
C20   O5    A    
C4    C6    A    
C21   O8    A    
O7    Zn2   S    
C1    O3    A    
C15   H11   S    
C9    C13   A    
C14   C15   A    
C3    C22   A    
C12   O4    A    
C12   O2    A    
C19   N1    A    
C9    H8    S    
C8    H7    S    
O5    Zn1   S    
O3    Zn2   S    
C16   C18   A    
C18   H3    S    
C20   O7    A    
C16   N2    A    
C3    C5    A    
C5    Cl1   S    
