data_mof_unit_8851.cif
_audit_creation_date              2013-03-05T15:49:19-0500
_audit_creation_method            fapswitch 2.2
_symmetry_space_group_name_H-M    P1
_symmetry_Int_Tables_number       1
_space_group_crystal_system       triclinic
_cell_length_a                    10.545524
_cell_length_b                    11.97991
_cell_length_c                    12.858484
_cell_angle_alpha                 93.229567
_cell_angle_beta                  89.572351
_cell_angle_gamma                 88.352797
_cell_volume                      1621.15192703

loop_
_atom_site_label
_atom_site_type_symbol
_atom_site_description
_atom_site_fract_x
_atom_site_fract_y
_atom_site_fract_z
_atom_type_partial_charge
O1    O     O_R   0.506170 0.421690 0.658830 -0.610031
O2    O     O_R   0.491330 0.609320 0.646410 -0.624827
C1    C     C_R   0.498900 0.522170 0.700201 0.951802
O3    O     O_R   0.690660 0.406170 0.506210 -0.626824
O4    O     O_R   0.675810 0.593790 0.493790 -0.619464
C2    C     C_R   0.741055 0.501079 0.492159 0.943039
Zn1   Zn    Zn3+2 0.509910 0.374720 0.508290 1.031243
Zn2   Zn    Zn3+2 0.490090 0.625280 0.491710 1.042410
O5    O     O_R   0.508670 0.390680 0.353590 -0.603914
O6    O     O_R   0.493830 0.578310 0.341170 -0.599266
O7    O     O_R   0.324190 0.406210 0.506210 -0.606183
O8    O     O_R   0.309340 0.593830 0.493790 -0.590691
C3    C     C_R   0.506800 0.478514 0.299835 0.942274
C4    C     C_R   0.261394 0.500101 0.517965 0.942691
H1    H     H_    0.874109 0.675747 0.553905 0.209093
C5    C     C_R   0.907495 0.308502 0.413326 0.290601
C6    C     C_R   0.960560 0.203995 0.434392 -0.341393
H2    H     H_    0.925564 0.129681 0.393688 0.249032
C7    C     C_R   0.051353 0.193640 0.512440 0.292110
C8    C     C_R   0.103172 0.291738 0.560404 0.377622
C9    C     C_R   0.063804 0.396870 0.523834 -0.197274
C10   C     C_R   0.949889 0.404599 0.470599 -0.077407
C11   C     C_R   0.877184 0.504887 0.488446 -0.081186
C12   C     C_R   0.931327 0.600746 0.534591 -0.255402
C13   C     C_R   0.057633 0.598096 0.561983 0.439999
C14   C     C_R   0.127528 0.497305 0.544352 -0.113769
C15   C     C_R   0.509478 0.466454 0.188523 -0.132524
C16   C     C_R   0.504030 0.537073 0.811014 -0.090672
C17   C     C_R   0.571456 0.642450 0.964749 0.343974
C18   C     C_R   0.555867 0.632995 0.857619 -0.263315
C19   C     C_R   0.461225 0.452215 0.869844 -0.152084
C20   C     C_R   0.476497 0.458885 0.976089 0.083826
C21   C     C_R   0.537723 0.551923 0.024841 -0.063234
C22   C     C_R   0.563967 0.549924 0.131170 0.265833
C23   C     C_R   0.446402 0.377309 0.139822 -0.182720
C24   C     C_R   0.433031 0.371931 0.033288 -0.120419
H3    H     H_    0.405581 0.312912 0.184444 0.175677
H4    H     H_    0.385366 0.301582 0.995929 0.169715
H5    H     H_    0.584310 0.700639 0.810786 0.187767
H6    H     H_    0.417850 0.379671 0.832496 0.188717
N1    N     N_R   0.523130 0.207800 0.519340 -0.085942
N2    N     N_R   0.476870 0.792180 0.480660 -0.111532
C25   C     C_R   0.392150 0.950802 0.395367 -0.188433
C26   C     C_R   0.401068 0.835194 0.406537 0.194371
C27   C     C_R   0.547028 0.860210 0.544908 0.005322
C28   C     C_R   0.541405 0.977008 0.536495 0.078355
C29   C     C_R   0.462314 0.022721 0.460930 0.079041
C30   C     C_R   0.454564 0.139649 0.453967 0.099911
C31   C     C_R   0.602209 0.164606 0.591164 0.076014
C32   C     C_R   0.612435 0.048885 0.601443 -0.247868
H7    H     H_    0.393295 0.176659 0.397271 0.105014
H8    H     H_    0.656741 0.220288 0.641281 0.145734
H9    H     H_    0.330629 0.983579 0.336538 0.166271
H10   H     H_    0.674845 0.016081 0.659661 0.190964
H11   H     H_    0.347075 0.779524 0.355986 0.147625
H12   H     H_    0.607406 0.823232 0.602239 0.131715
N3    N     N_R   0.816206 0.316578 0.331217 0.227794
O9    O     O_R   0.809575 0.405448 0.277631 -0.367300
O10   O     O_R   0.748861 0.231063 0.302389 -0.364610
S1    S     S_3+6 0.087664 0.056306 0.549315 0.100249
O11   O     O_2   0.078270 0.975793 0.455889 -0.252518
O12   O     O_2   0.218706 0.046004 0.593295 -0.257651
O13   O     O_3   0.979789 0.022897 0.638686 -0.488321
H13   H     H_    0.029084 0.004836 0.701140 0.421966
S2    S     S_3+6 0.180009 0.288217 0.683449 0.067759
O14   O     O_2   0.185814 0.403333 0.735769 -0.286274
O15   O     O_2   0.106471 0.216172 0.752912 -0.263219
O16   O     O_3   0.328085 0.234668 0.668379 -0.530963
H14   H     H_    0.352188 0.209659 0.737978 0.367306
S3    S     S_3+6 0.119505 0.714222 0.633722 0.085339
O17   O     O_2   0.178917 0.790578 0.559948 -0.239628
O18   O     O_2   0.014773 0.776888 0.694034 -0.261701
O19   O     O_3   0.229558 0.670081 0.717209 -0.531526
H15   H     H_    0.269202 0.739068 0.745842 0.386919
N4    N     N_R   0.661653 0.618255 0.176458 0.231608
O20   O     O_R   0.778174 0.602202 0.143847 -0.288830
O21   O     O_R   0.633365 0.705323 0.238205 -0.315414
N5    N     N_R   0.610428 0.747461 0.010863 0.240680
O22   O     O_R   0.708859 0.795199 0.973501 -0.307832
O23   O     O_R   0.531503 0.806651 0.071236 -0.335227

loop_
_geom_bond_atom_site_label_1
_geom_bond_atom_site_label_2
_geom_bond_distance
_ccdc_geom_bond_type
C9    C14   1.407926 A    
O19   H15   0.990571 S    
C7    C8    1.421400 A    
C25   C26   1.400983 A    
C27   C28   1.409056 A    
Zn1   O7    1.984503 S    
C32   H10   1.083338 S    
S1    O13   1.683271 S    
C20   C24   1.394605 A    
C1    C16   1.427638 S    
C23   H3    1.083954 S    
Zn2   N2    2.013379 S    
O4    C2    1.288659 A    
O7    C4    1.289610 A    
N5    O23   1.300990 A    
N3    O10   1.301634 A    
C17   C21   1.418539 A    
C19   H6    1.083622 S    
S1    O12   1.501472 D    
O5    C3    1.290871 A    
C25   H9    1.083273 S    
C30   H7    1.082823 S    
C17   N5    1.432634 S    
C29   C30   1.408739 A    
C27   H12   1.082903 S    
C5    C6    1.397921 A    
S2    O15   1.503028 D    
C11   C12   1.401020 A    
S3    O17   1.500333 D    
C22   N4    1.440187 S    
S2    O16   1.676715 S    
C9    C10   1.390416 A    
N2    C26   1.362343 A    
O3    Zn1   1.953859 S    
N1    C31   1.362601 A    
C6    H2    1.082595 S    
C15   C22   1.408477 A    
C8    S2    1.785016 S    
C12   C13   1.380222 A    
O3    C2    1.290078 A    
N5    O22   1.301144 A    
O16   H14   0.992227 S    
C15   C23   1.395275 A    
C13   C14   1.402907 A    
S1    O11   1.503337 D    
O1    C1    1.288329 A    
N2    C27   1.364559 A    
N4    O20   1.300898 A    
C17   C18   1.387188 A    
C19   C20   1.374923 A    
Zn2   O8    1.953857 S    
C31   H8    1.081716 S    
S3    O19   1.681145 S    
C21   C22   1.398371 A    
C4    C14   1.451191 S    
N4    O21   1.301012 A    
H1    C12   1.083764 S    
O8    C4    1.297202 A    
C31   C32   1.401175 A    
Zn1   O5    2.009171 S    
C28   C29   1.409057 A    
C5    C10   1.416524 A    
O1    Zn1   1.984953 S    
C16   C19   1.384696 A    
O2    Zn2   2.009172 S    
O6    C3    1.283921 A    
O4    Zn2   1.984503 S    
C13   S3    1.768783 S    
C7    S1    1.769946 S    
C28   C32   1.401919 A    
C20   C21   1.421564 A    
C16   C18   1.393514 A    
O2    C1    1.285390 A    
C26   H11   1.081664 S    
N3    O9    1.300863 A    
C2    C11   1.438113 S    
C24   H4    1.084458 S    
C6    C7    1.400288 A    
N1    C30   1.364443 A    
C18   H5    1.084245 S    
C5    N3    1.439510 S    
Zn1   N1    2.013616 S    
O13   H13   0.990614 S    
C8    C9    1.421031 A    
Zn2   O6    1.984954 S    
S2    O14   1.503046 D    
C10   C11   1.413263 A    
C3    C15   1.430441 S    
S3    O18   1.502927 D    
C23   C24   1.376239 A    
C25   C29   1.401660 A    
