data_mof_unit_33181.cif
_audit_creation_date              2012-12-10T19:13:01-0500
_audit_creation_method            fapswitch 2.2
_symmetry_space_group_name_H-M    P1
_symmetry_Int_Tables_number       1
_space_group_crystal_system       triclinic
_cell_length_a                    8.781178
_cell_length_b                    16.025278
_cell_length_c                    14.771313
_cell_angle_alpha                 89.952996
_cell_angle_beta                  97.151853
_cell_angle_gamma                 89.995432
_cell_volume                      2062.45809472

loop_
_atom_site_label
_atom_site_type_symbol
_atom_type_description
_atom_site_fract_x
_atom_site_fract_y
_atom_site_fract_z
_atom_type_partial_charge
C1    C     C_R   0.500004 0.341000 0.500012 0.819640
C2    C     C_R   0.499996 0.659000 0.499988 0.819640
C3    C     C_R   0.498377 0.500249 0.902717 -0.310562
C4    C     C_R   0.501615 0.499753 0.097282 -0.310560
C5    C     C_R   0.400095 0.446485 0.945009 0.336170
C6    C     C_R   0.599896 0.553517 0.054990 0.336176
C7    C     C_1   0.499139 0.500090 0.802537 0.257907
C8    C     C_1   0.500858 0.499910 0.197463 0.257887
C9    C     C_R   0.204130 0.497703 0.477820 0.878982
C10   C     C_R   0.795870 0.502296 0.522180 0.878981
C11   C     C_2   0.041889 0.483087 0.468897 -0.018681
C12   C     C_2   0.958111 0.516914 0.531102 -0.018681
C13   C     C_R   0.372633 0.955073 0.525562 0.137484
C14   C     C_R   0.627367 0.044927 0.474439 0.137486
C15   C     C_R   0.501765 0.912585 0.499996 0.041968
C16   C     C_R   0.498234 0.087415 0.500004 0.041966
C17   C     C_R   0.629637 0.956616 0.474619 0.147319
C18   C     C_R   0.370361 0.043384 0.525381 0.147322
C19   C     C_1   0.501465 0.822657 0.499927 -0.004146
C20   C     C_1   0.498534 0.177342 0.500073 -0.004146
C21   C     C_1   0.499320 0.252200 0.500037 -0.177038
C22   C     C_1   0.500679 0.747800 0.499963 -0.177038
C23   C     C_R   0.597704 0.553885 0.958648 0.338551
C24   C     C_R   0.402287 0.446117 0.041351 0.338542
Cu1   Cu    Cu3+1 0.500040 0.500000 0.589220 0.969510
Cu2   Cu    Cu3+1 0.499960 0.500000 0.410780 0.969508
N1    N     N_1   0.500050 0.499980 0.276720 -0.169572
N2    N     N_1   0.499950 0.500020 0.723280 -0.169570
O1    O     O_R   0.500070 0.380310 0.575330 -0.567976
O2    O     O_R   0.499930 0.619690 0.424670 -0.567976
O3    O     O_R   0.500000 0.380310 0.424640 -0.572448
O4    O     O_R   0.500000 0.619690 0.575360 -0.572449
O5    O     O_R   0.274870 0.500000 0.557960 -0.586210
O6    O     O_R   0.725130 0.500000 0.442040 -0.586211
O7    O     O_R   0.274790 0.500000 0.407270 -0.584089
O8    O     O_R   0.725210 0.500000 0.592730 -0.584089
C25   C     C_3   0.978824 0.420385 0.396581 -0.864865
H1    H     H_    0.072483 0.386848 0.367814 0.227814
H2    H     H_    0.909102 0.372170 0.426511 0.230866
H3    H     H_    0.908894 0.452546 0.339291 0.247401
C26   C     C_3   0.021176 0.579617 0.603416 -0.864861
H4    H     H_    0.927516 0.613155 0.632180 0.227810
H5    H     H_    0.091104 0.547457 0.660707 0.247403
H6    H     H_    0.090900 0.627831 0.573485 0.230865
C27   C     C_3   0.231458 0.089686 0.551849 -0.834624
H7    H     H_    0.240065 0.158482 0.548129 0.232876
H8    H     H_    0.127742 0.071667 0.505208 0.228893
H9    H     H_    0.215174 0.074115 0.623266 0.239407
C28   C     C_3   0.768538 0.910314 0.448148 -0.834625
H10   H     H_    0.759928 0.841518 0.451865 0.232877
H11   H     H_    0.784820 0.925887 0.376731 0.239409
H12   H     H_    0.872255 0.928331 0.494788 0.228893
C29   C     C_3   0.239142 0.904133 0.552612 -0.836752
H13   H     H_    0.143950 0.941488 0.573831 0.233812
H14   H     H_    0.190438 0.864910 0.494117 0.229796
H15   H     H_    0.280515 0.862871 0.610971 0.238398
C30   C     C_3   0.760860 0.095866 0.447390 -0.836751
H16   H     H_    0.856056 0.058512 0.426176 0.233810
H17   H     H_    0.719490 0.137127 0.389029 0.238398
H18   H     H_    0.809558 0.135092 0.505884 0.229796
O9    O     O_3   0.693384 0.610341 0.106046 -0.527365
C31   C     C_3   0.822881 0.568663 0.151709 0.080678
H19   H     H_    0.865417 0.517602 0.110201 0.093186
H20   H     H_    0.794711 0.541994 0.216898 0.151443
C32   C     C_3   0.952671 0.630989 0.174001 -0.761317
H21   H     H_    0.915137 0.682344 0.216565 0.258150
H22   H     H_    0.053315 0.599369 0.212356 0.196641
H23   H     H_    0.986914 0.657488 0.110036 0.246448
O10   O     O_3   0.306606 0.389663 0.893953 -0.527360
C33   C     C_3   0.177108 0.431343 0.848295 0.080684
H24   H     H_    0.205283 0.458033 0.783116 0.151424
H25   H     H_    0.134555 0.482388 0.889815 0.093189
C34   C     C_3   0.047333 0.369013 0.825975 -0.761298
H26   H     H_    0.013093 0.342488 0.889928 0.246464
H27   H     H_    0.946683 0.400637 0.787631 0.196643
H28   H     H_    0.084881 0.317678 0.783390 0.258137
O11   O     O_3   0.683385 0.613045 0.919075 -0.524498
C35   C     C_3   0.822490 0.576849 0.899861 0.088305
H29   H     H_    0.803255 0.518176 0.859755 0.126780
H30   H     H_    0.898606 0.563281 0.963975 0.129302
C36   C     C_3   0.904425 0.638254 0.844025 -0.758632
H31   H     H_    0.931807 0.696309 0.883749 0.256360
H32   H     H_    0.012770 0.610473 0.826519 0.181053
H33   H     H_    0.829850 0.653922 0.779933 0.253629
O12   O     O_3   0.316611 0.386954 0.080925 -0.524500
C37   C     C_3   0.177509 0.423148 0.100148 0.088319
H34   H     H_    0.101397 0.436735 0.036038 0.129283
H35   H     H_    0.196754 0.481810 0.140272 0.126791
C38   C     C_3   0.095563 0.361730 0.155964 -0.758613
H36   H     H_    0.170131 0.346043 0.220052 0.253623
H37   H     H_    0.987221 0.389510 0.173478 0.181054
H38   H     H_    0.068171 0.303687 0.116221 0.256354

loop_
_geom_bond_atom_site_label_1
_geom_bond_atom_site_label_2
_ccdc_geom_bond_type
C1    C21   S    
C26   H5    S    
C34   H26   S    
C3    C23   A    
C4    C8    S    
C36   H31   S    
O12   C37   S    
Cu1   N2    S    
C15   C19   S    
Cu2   N1    S    
C31   H19   S    
C13   C18   A    
C6    O9    S    
C25   H1    S    
C25   H3    S    
C3    C7    S    
C4    C24   A    
C35   H30   S    
C30   H17   S    
C1    O3    A    
C2    O4    A    
C26   H4    S    
C11   C25   S    
C31   H20   S    
Cu2   O6    S    
C28   H11   S    
C2    C22   S    
C5    O10   S    
C33   H24   S    
C38   H37   S    
C24   O12   S    
O11   C35   S    
C28   H12   S    
Cu1   O4    S    
C27   H8    S    
Cu2   O3    S    
C9    O5    A    
C34   H27   S    
C14   C17   A    
O10   C33   S    
C36   H32   S    
C13   C29   S    
C29   H14   S    
Cu1   O1    S    
C19   C22   T    
C4    C6    A    
C17   C28   S    
C35   H29   S    
C30   H18   S    
C27   H9    S    
C32   H22   S    
Cu1   Cu2   S    
C29   H13   S    
C7    N2    T    
C12   C26   S    
C16   C20   S    
C32   H23   S    
C33   C34   S    
C1    O1    A    
C10   O6    A    
C23   O11   S    
C38   H38   S    
C9    C11   S    
C10   C12   S    
Cu2   O2    S    
C13   C15   A    
C34   H28   S    
C14   C16   A    
C18   C27   S    
C36   H33   S    
C29   H15   S    
C15   C17   A    
C14   C30   S    
C31   C32   S    
C37   H34   S    
C3    C5    A    
C37   C38   S    
C10   O8    A    
C11   C12   D    
C2    O2    A    
C25   H2    S    
C35   C36   S    
C30   H16   S    
C5    C24   A    
C6    C23   A    
C26   H6    S    
C37   H35   S    
C32   H21   S    
O9    C31   S    
Cu1   O8    S    
C27   H7    S    
Cu2   O7    S    
C20   C21   T    
C16   C18   A    
C28   H10   S    
C9    O7    A    
C8    N1    T    
C33   H25   S    
C38   H36   S    
Cu1   O5    S    
