data_mof_unit_42650.cif
_audit_creation_date              2012-12-10T18:48:23-0500
_audit_creation_method            fapswitch 2.2
_symmetry_space_group_name_H-M    P1
_symmetry_Int_Tables_number       1
_space_group_crystal_system       triclinic
_cell_length_a                    10.57636
_cell_length_b                    10.066374
_cell_length_c                    11.492829
_cell_angle_alpha                 91.873896
_cell_angle_beta                  92.815248
_cell_angle_gamma                 88.386227
_cell_volume                      1221.02829124

loop_
_atom_site_label
_atom_site_type_symbol
_atom_type_description
_atom_site_fract_x
_atom_site_fract_y
_atom_site_fract_z
_atom_type_partial_charge
C1    C     C_R   0.260998 0.501762 0.499895 0.963994
C2    C     C_R   0.938387 0.505516 0.608901 0.318738
C3    C     C_R   0.928077 0.499283 0.394518 0.261593
C4    C     C_R   0.069722 0.511216 0.610297 0.281614
C5    C     C_R   0.871453 0.496413 0.501371 -0.240391
C6    C     C_R   0.128046 0.506354 0.502267 -0.267693
C7    C     C_R   0.580025 0.072180 0.575647 0.124615
C8    C     C_R   0.416413 0.929425 0.429028 0.099235
C9    C     C_R   0.430669 0.069194 0.416852 0.103322
C10   C     C_R   0.574350 0.929370 0.580425 0.135809
C11   C     C_3   0.689067 0.141126 0.641789 -0.366045
C12   C     C_R   0.738804 0.498580 0.500770 1.090528
C13   C     C_3   0.814695 0.111061 0.582518 -0.387647
C14   C     C_3   0.928645 0.146825 0.662859 -0.840291
C15   C     C_3   0.288851 0.874605 0.386978 -0.365602
C16   C     C_3   0.288246 0.791337 0.272091 -0.261146
C17   C     C_3   0.169722 0.819324 0.194487 -0.890548
C18   C     C_3   0.408386 0.117660 0.293011 -0.370769
C19   C     C_3   0.284840 0.198021 0.267381 -0.294343
C20   C     C_3   0.261800 0.215441 0.136303 -0.874163
C21   C     C_3   0.636876 0.860516 0.685254 -0.364076
C22   C     C_3   0.547493 0.856884 0.787647 -0.305460
C23   C     C_R   0.500232 0.498280 0.282513 0.941625
C24   C     C_3   0.540378 0.985600 0.861236 -0.896064
C25   C     C_R   0.500858 0.501650 0.717537 0.893254
C26   C     C_1   0.500673 0.495764 0.161800 -0.160507
C27   C     C_1   0.500841 0.504182 0.838297 -0.174693
C28   C     C_1   0.500859 0.497966 0.059428 -0.004715
C29   C     C_1   0.500848 0.502244 0.940692 0.005239
C30   C     C_R   0.059931 0.499868 0.394754 0.277972
H1    H     H_    0.071790 0.449593 0.230474 0.348594
H2    H     H_    0.674298 0.248149 0.650401 0.266952
H3    H     H_    0.697268 0.113053 0.733736 0.194343
H4    H     H_    0.083501 0.797109 0.241031 0.275002
H5    H     H_    0.165081 0.924854 0.169450 0.258992
H6    H     H_    0.172092 0.755342 0.114007 0.266561
H7    H     H_    0.373300 0.809012 0.222435 0.210738
H8    H     H_    0.287166 0.684753 0.291593 0.281438
H9    H     H_    0.246668 0.821934 0.457341 0.213090
H10   H     H_    0.219523 0.958209 0.377623 0.175923
H11   H     H_    0.340852 0.269264 0.100958 0.272234
H12   H     H_    0.930577 0.517780 0.779162 0.389502
H13   H     H_    0.253798 0.117435 0.089811 0.253370
H14   H     H_    0.172414 0.273293 0.119095 0.261424
H15   H     H_    0.201855 0.149784 0.300748 0.203129
H16   H     H_    0.289643 0.297529 0.308789 0.291436
H17   H     H_    0.492397 0.169989 0.267093 0.222308
H18   H     H_    0.408328 0.030590 0.231342 0.184365
H19   H     H_    0.635671 0.011206 0.898741 0.259572
H20   H     H_    0.499223 0.068140 0.808670 0.271793
H21   H     H_    0.477859 0.971912 0.934565 0.251530
H22   H     H_    0.449815 0.833407 0.754787 0.244926
H23   H     H_    0.895067 0.555379 0.235491 0.345060
H24   H     H_    0.581948 0.776674 0.846317 0.224543
H25   H     H_    0.666830 0.759082 0.660207 0.242774
H26   H     H_    0.728592 0.902554 0.715670 0.180805
H27   H     H_    0.227121 0.534478 0.706389 0.330310
H28   H     H_    0.919730 0.251112 0.695784 0.297397
H29   H     H_    0.935678 0.080238 0.738225 0.256403
H30   H     H_    0.016744 0.134775 0.614389 0.250407
H31   H     H_    0.824123 0.003890 0.557175 0.218178
H32   H     H_    0.816793 0.167944 0.501492 0.249679
N1    N     N_R   0.500000 0.857200 0.500000 -0.131092
N2    N     N_R   0.500000 0.142800 0.500000 -0.129382
O1    O     O_R   0.316770 0.614620 0.499990 -0.642336
O2    O     O_3   0.871587 0.510880 0.709831 -0.801983
O3    O     O_3   0.851960 0.504121 0.293295 -0.780176
O4    O     O_3   0.136599 0.519434 0.716940 -0.776149
O5    O     O_R   0.683230 0.385380 0.500010 -0.639613
O6    O     O_R   0.683230 0.614620 0.500010 -0.628824
O7    O     O_R   0.316770 0.385380 0.499990 -0.619621
O8    O     O_R   0.500020 0.614670 0.334450 -0.622516
O9    O     O_R   0.499980 0.385330 0.665550 -0.627396
O10   O     O_R   0.499980 0.614670 0.665550 -0.647440
O11   O     O_R   0.500020 0.385330 0.334450 -0.627911
O12   O     O_3   0.125114 0.492496 0.293241 -0.817720
Zn1   Zn    Zn3+2 0.500000 0.653120 0.500000 0.928461
Zn2   Zn    Zn3+2 0.500000 0.346880 0.500000 0.937537

loop_
_geom_bond_atom_site_label_1
_geom_bond_atom_site_label_2
_ccdc_geom_bond_type
C7    C10   A    
C2    C4    A    
C12   O5    A    
C19   H15   S    
C2    O2    S    
O8    Zn1   S    
C17   H6    S    
C3    C30   A    
C9    N2    A    
C30   O12   S    
C26   C28   T    
C19   C20   S    
C16   H7    S    
O9    Zn2   S    
C18   H17   S    
C24   H21   S    
C20   H11   S    
H1    O12   S    
C19   H16   S    
C13   H31   S    
C22   H24   S    
C13   C14   S    
O6    Zn1   S    
C7    C11   S    
C14   H29   S    
C11   C13   S    
C21   H26   S    
C15   H9    S    
O5    Zn2   S    
C1    O7    A    
N2    Zn2   S    
C14   H28   S    
C23   O8    A    
C4    C6    A    
C28   C29   S    
C6    C30   A    
C11   H2    S    
C18   C19   S    
C8    C15   S    
C25   O9    A    
C10   C21   S    
C24   H20   S    
H23   O3    S    
O11   Zn2   S    
C22   C24   S    
C15   H10   S    
C2    C5    A    
C25   C27   S    
C17   H4    S    
C8    N1    A    
C15   C16   S    
C9    C18   S    
C11   H3    S    
C20   H13   S    
O1    Zn1   S    
C27   C29   T    
C5    C12   S    
C22   H22   S    
C25   O10   A    
N1    Zn1   S    
C23   C26   S    
C16   H8    S    
C24   H19   S    
C21   H25   S    
C12   O6    A    
C16   C17   S    
C14   H30   S    
C7    N2    A    
C17   H5    S    
C20   H14   S    
C21   C22   S    
H27   O4    S    
C4    O4    S    
C1    O1    A    
C10   N1    A    
O7    Zn2   S    
C3    O3    S    
C13   H32   S    
C1    C6    S    
H12   O2    S    
C23   O11   A    
C8    C9    A    
C3    C5    A    
O10   Zn1   S    
C18   H18   S    
