data_mof_unit_55987.cif
_audit_creation_date              2012-12-10T20:27:10-0500
_audit_creation_method            fapswitch 2.2
_symmetry_space_group_name_H-M    P1
_symmetry_Int_Tables_number       1
_space_group_crystal_system       triclinic
_cell_length_a                    10.754082
_cell_length_b                    10.679477
_cell_length_c                    9.924137
_cell_angle_alpha                 89.780873
_cell_angle_beta                  103.784552
_cell_angle_gamma                 91.556697
_cell_volume                      1106.52741513

loop_
_atom_site_label
_atom_site_type_symbol
_atom_type_description
_atom_site_fract_x
_atom_site_fract_y
_atom_site_fract_z
_atom_type_partial_charge
C1    C     C_R   0.498699 0.260143 0.500063 0.891440
C2    C     C_R   0.487068 0.127790 0.499775 -0.117963
C3    C     C_R   0.430166 0.062743 0.377333 -0.160022
C4    C     C_R   0.426760 0.933297 0.377809 -0.140030
C5    C     C_R   0.484622 0.870815 0.499609 -0.123373
C6    C     C_R   0.523631 0.936030 0.624326 0.130594
C7    C     C_3   0.647122 0.930539 0.731630 -0.424969
C8    C     C_3   0.648819 0.072507 0.731464 -0.449729
C9    C     C_R   0.409795 0.431109 0.047718 0.100499
C10   C     C_R   0.576137 0.583960 0.087762 0.444493
C11   C     C_R   0.576758 0.579758 0.944884 -0.179231
C12   C     C_R   0.258992 0.496119 0.442153 0.962577
C13   C     C_R   0.411631 0.430100 0.906479 0.137237
C14   C     C_3   0.389843 0.292264 0.894002 -0.520011
C15   C     C_3   0.382766 0.292843 0.045656 0.281778
C16   C     C_R   0.497720 0.739553 0.499622 0.889879
C17   C     C_R   0.740733 0.495304 0.557919 0.951800
C18   C     C_2   0.121808 0.479877 0.409696 -0.305647
C19   C     C_2   0.066729 0.448182 0.512019 -0.165551
C20   C     C_2   0.876920 0.478197 0.590420 -0.332216
C21   C     C_2   0.930405 0.448273 0.487457 -0.116470
C22   C     C_R   0.524545 0.063840 0.624580 0.115279
H1    H     H_    0.874518 0.435345 0.381300 0.200076
H2    H     H_    0.727831 0.115122 0.690417 0.209061
H3    H     H_    0.636676 0.643486 0.901668 0.198280
H4    H     H_    0.298696 0.266946 0.818155 0.242417
H5    H     H_    0.474813 0.243634 0.877157 0.179445
H6    H     H_    0.459634 0.239387 0.114870 0.084049
H7    H     H_    0.121944 0.433325 0.617733 0.205166
H8    H     H_    0.933360 0.491666 0.696158 0.182005
H9    H     H_    0.066078 0.494893 0.304352 0.187290
H10   H     H_    0.393466 0.110786 0.281071 0.222873
H11   H     H_    0.384666 0.882921 0.282733 0.212186
H12   H     H_    0.634018 0.889316 0.830505 0.246329
H13   H     H_    0.725388 0.890166 0.691190 0.201657
H14   H     H_    0.638225 0.112932 0.830933 0.215390
N1    N     N_R   0.499160 0.499140 0.142600 -0.200752
N2    N     N_R   0.499160 0.499180 0.856960 -0.133823
O1    O     O_R   0.500020 0.316790 0.614700 -0.620908
O2    O     O_R   0.500000 0.316760 0.385350 -0.620401
O3    O     O_R   0.317820 0.500020 0.571850 -0.619856
O4    O     O_R   0.317800 0.499980 0.342510 -0.562228
O5    O     O_R   0.500000 0.683240 0.614650 -0.622797
O6    O     O_R   0.499980 0.683210 0.385300 -0.547773
O7    O     O_R   0.682200 0.500020 0.657490 -0.620230
O8    O     O_R   0.682180 0.499980 0.428150 -0.564043
Zn1   Zn    Zn3+2 0.500010 0.500020 0.653140 0.965600
Zn2   Zn    Zn3+2 0.499990 0.499980 0.346860 1.045575
S1    S     S_3+6 0.657991 0.720157 0.173719 0.032878
O9    O     O_2   0.753962 0.767610 0.096128 -0.324945
O10   O     O_2   0.560345 0.819309 0.166337 -0.328743
O11   O     O_3   0.738338 0.703022 0.339014 -0.528430
H15   H     H_    0.760069 0.789342 0.374757 0.368196
S2    S     S_3+6 0.223686 0.254985 0.063371 0.016211
O12   O     O_2   0.129651 0.341749 0.975848 -0.303037
O13   O     O_2   0.189576 0.122331 0.015753 -0.289712
O14   O     O_3   0.216221 0.268185 0.229755 -0.576271
H16   H     H_    0.128678 0.238160 0.231550 0.378900

loop_
_geom_bond_atom_site_label_1
_geom_bond_atom_site_label_2
_ccdc_geom_bond_type
C2    C22   A    
C11   N2    A    
C8    C22   S    
C17   O8    A    
C12   O3    A    
C14   H5    S    
C16   O6    A    
S1    O11   S    
C9    N1    A    
C2    C3    A    
O3    Zn1   S    
C7    C8    S    
C20   H8    S    
C13   C14   S    
C14   H4    S    
N1    Zn2   S    
C16   O5    A    
N2    Zn1   S    
C6    C7    S    
C7    H13   S    
C10   N1    A    
C5    C6    A    
C19   C21   S    
C13   N2    A    
C1    C2    S    
O4    Zn2   S    
S2    O13   D    
O7    Zn1   S    
C21   H1    S    
C9    C15   S    
C3    H10   S    
C7    H12   S    
O8    Zn2   S    
C10   C11   A    
C1    O1    A    
C17   O7    A    
C15   H6    S    
C3    C4    A    
C6    C22   A    
C15   S2    S    
C17   C20   S    
C9    C13   A    
C20   C21   D    
O1    Zn1   S    
S1    O9    D    
C8    H14   S    
C12   C18   S    
S2    O12   D    
O2    Zn2   S    
C11   H3    S    
C4    H11   S    
C18   C19   D    
C5    C16   S    
C12   O4    A    
C18   H9    S    
C1    O2    A    
C8    H2    S    
O14   H16   S    
C14   C15   S    
C10   S1    S    
O5    Zn1   S    
O6    Zn2   S    
O11   H15   S    
C4    C5    A    
S1    O10   D    
S2    O14   S    
C19   H7    S    
