data_mof_unit_6179.cif
_audit_creation_date              2012-12-10T18:57:49-0500
_audit_creation_method            fapswitch 2.2
_symmetry_space_group_name_H-M    P1
_symmetry_Int_Tables_number       1
_space_group_crystal_system       monoclinic
_cell_length_a                    10.724891
_cell_length_b                    9.917234
_cell_length_c                    8.907796
_cell_angle_alpha                 90.0
_cell_angle_beta                  91.072404
_cell_angle_gamma                 90.0
_cell_volume                      947.27839796

loop_
_atom_site_label
_atom_site_type_symbol
_atom_type_description
_atom_site_fract_x
_atom_site_fract_y
_atom_site_fract_z
_atom_type_partial_charge
C1    C     C_R   0.260073 0.500000 0.499840 0.882656
C2    C     C_R   0.063848 0.622968 0.499979 -0.135631
C3    C     C_R   0.872509 0.500000 0.500103 -0.040804
C4    C     C_R   0.127491 0.500000 0.499897 -0.040804
C5    C     C_R   0.578003 0.071756 0.594564 0.319064
C6    C     C_R   0.421997 0.928244 0.405436 0.319064
C7    C     C_R   0.421997 0.071756 0.405436 0.319064
C8    C     C_R   0.578003 0.928244 0.594564 0.319064
C9    C     C_R   0.739927 0.500000 0.500160 0.882656
C10   C     C_R   0.499817 0.500000 0.218860 0.938675
C11   C     C_R   0.500182 0.500000 0.781140 0.938675
C12   C     C_1   0.499929 0.500000 0.065433 -0.103957
C13   C     C_1   0.500071 0.500000 0.934567 -0.103956
C14   C     C_R   0.063848 0.377032 0.499979 -0.135631
C15   C     C_R   0.936152 0.622968 0.500021 -0.135631
C16   C     C_R   0.936152 0.377032 0.500021 -0.135631
Cl1   Cl    Cl    0.679608 0.158729 0.717973 -0.494102
Cl2   Cl    Cl    0.320392 0.841271 0.282027 -0.494102
Cl3   Cl    Cl    0.320392 0.158729 0.282027 -0.494102
Cl4   Cl    Cl    0.679608 0.841271 0.717973 -0.494102
H1    H     H_    0.112167 0.281097 0.500078 0.201973
H2    H     H_    0.887832 0.718902 0.499922 0.201973
H3    H     H_    0.887832 0.281097 0.499922 0.201973
H4    H     H_    0.112167 0.718902 0.500078 0.201973
N1    N     N_R   0.500000 0.857200 0.500000 -0.193227
N2    N     N_R   0.500000 0.142800 0.500000 -0.193226
O1    O     O_R   0.316770 0.614620 0.499990 -0.594682
O2    O     O_R   0.683230 0.385380 0.500010 -0.594682
O3    O     O_R   0.683230 0.614620 0.500010 -0.594682
O4    O     O_R   0.316770 0.385380 0.499990 -0.594682
O5    O     O_R   0.500010 0.614640 0.285340 -0.572013
O6    O     O_R   0.499990 0.385360 0.714660 -0.572014
O7    O     O_R   0.499990 0.614640 0.714660 -0.572014
O8    O     O_R   0.500010 0.385360 0.285340 -0.572013
Zn1   Zn    Zn3+2 0.500000 0.653120 0.500000 1.067440
Zn2   Zn    Zn3+2 0.500000 0.346880 0.500000 1.067440

loop_
_geom_bond_atom_site_label_1
_geom_bond_atom_site_label_2
_ccdc_geom_bond_type
C5    C8    A    
C2    C4    A    
C6    C7    A    
C8    N1    A    
C14   C16   A    
C9    O3    A    
O3    Zn1   S    
O8    Zn2   S    
O4    Zn2   S    
C1    C4    S    
C10   O8    A    
C4    C14   A    
C2    C15   A    
C11   C13   S    
C8    Cl4   S    
C7    N2    A    
C10   C12   S    
N1    Zn1   S    
C3    C9    S    
O6    Zn2   S    
C14   H1    S    
N2    Zn2   S    
C1    O4    A    
O7    Zn1   S    
C11   O6    A    
C16   H3    S    
C7    Cl3   S    
C2    H4    S    
C6    Cl2   S    
O5    Zn1   S    
C6    N1    A    
C5    Cl1   S    
C5    N2    A    
C11   O7    A    
C3    C15   A    
C12   C13   T    
O2    Zn2   S    
C1    O1    A    
O1    Zn1   S    
C10   O5    A    
C15   H2    S    
C3    C16   A    
C9    O2    A    
