data_mof_unit_37480.cif
_audit_creation_date              2012-12-10T18:57:05-0500
_audit_creation_method            fapswitch 2.2
_symmetry_space_group_name_H-M    P1
_symmetry_Int_Tables_number       1
_space_group_crystal_system       triclinic
_cell_length_a                    10.714247
_cell_length_b                    9.878286
_cell_length_c                    10.754101
_cell_angle_alpha                 90.022348
_cell_angle_beta                  91.261781
_cell_angle_gamma                 90.04838
_cell_volume                      1137.92031158

loop_
_atom_site_label
_atom_site_type_symbol
_atom_type_description
_atom_site_fract_x
_atom_site_fract_y
_atom_site_fract_z
_atom_type_partial_charge
C1    C     C_R   0.260015 0.499912 0.500089 0.890430
C2    C     C_R   0.739982 0.499987 0.500322 0.879968
C3    C     C_R   0.591754 0.070127 0.562998 0.437331
C4    C     C_R   0.408254 0.069893 0.437032 0.433391
C5    C     C_R   0.591842 0.927175 0.560904 -0.031537
C6    C     C_R   0.408136 0.926956 0.439156 -0.070948
C7    C     C_R   0.510339 0.498858 0.260731 0.902782
C8    C     C_R   0.496513 0.498971 0.740258 0.890612
C9    C     C_R   0.558197 0.609006 0.063018 0.069694
C10   C     C_R   0.543767 0.608950 0.936991 0.017556
C11   C     C_R   0.536145 0.491619 0.130260 -0.158068
C12   C     C_R   0.506499 0.492917 0.873262 -0.148545
C13   C     C_R   0.530846 0.365593 0.065826 -0.122083
C14   C     C_R   0.503619 0.367067 0.937919 -0.121747
C15   C     C_3   0.500979 0.753354 0.933018 -0.281091
C16   C     C_3   0.520184 0.754312 0.075227 -0.280793
C17   C     C_R   0.063257 0.379062 0.477431 -0.149745
C18   C     C_R   0.935414 0.379115 0.477382 -0.135998
C19   C     C_R   0.872492 0.499978 0.500656 -0.032018
C20   C     C_R   0.127494 0.499866 0.500655 -0.028511
C21   C     C_R   0.936693 0.620731 0.524298 -0.152460
C22   C     C_R   0.064583 0.620672 0.524332 -0.160825
H1    H     H_    0.566479 0.817036 0.879779 0.200681
H2    H     H_    0.433359 0.768587 0.128598 0.169433
H3    H     H_    0.111297 0.285125 0.458511 0.205217
H4    H     H_    0.886261 0.285213 0.458347 0.200890
H5    H     H_    0.888526 0.714623 0.543355 0.172041
H6    H     H_    0.113782 0.714535 0.543436 0.169315
H7    H     H_    0.664664 0.872073 0.610424 0.160873
H8    H     H_    0.335313 0.871685 0.389636 0.167989
N1    N     N_R   0.500000 0.857200 0.500000 -0.135041
N2    N     N_R   0.500000 0.142810 0.500000 -0.188882
O1    O     O_R   0.316770 0.614620 0.499990 -0.628387
O2    O     O_R   0.683230 0.614620 0.500010 -0.613977
O3    O     O_R   0.316800 0.385290 0.500000 -0.618659
O4    O     O_R   0.683200 0.385290 0.500000 -0.623286
O5    O     O_R   0.500000 0.614690 0.316780 -0.592109
O6    O     O_R   0.500000 0.614690 0.683220 -0.610344
O7    O     O_R   0.500020 0.385360 0.316780 -0.645105
O8    O     O_R   0.499980 0.385360 0.683220 -0.643170
Zn1   Zn    Zn3+2 0.500000 0.653120 0.500000 0.997452
Zn2   Zn    Zn3+2 0.500000 0.346880 0.500000 1.003048
C23   C     C_2   0.546624 0.232823 0.129897 1.015151
O9    O     O_2   0.643391 0.208625 0.188100 -0.603618
O10   O     O_R   0.450281 0.137285 0.124917 -0.775332
H9    H     H_    0.471063 0.052534 0.173995 0.339915
C24   C     C_2   0.464413 0.238124 0.877075 1.015703
O11   O     O_2   0.358824 0.226854 0.832654 -0.571004
O12   O     O_R   0.548155 0.130082 0.871923 -0.758024
H10   H     H_    0.511161 0.048888 0.827012 0.362258
C25   C     C_2   0.366511 0.769526 0.890169 0.983682
O13   O     O_2   0.283450 0.705341 0.939703 -0.606480
O14   O     O_R   0.337933 0.857178 0.791682 -0.798249
H11   H     H_    0.245449 0.858803 0.769692 0.353195
C26   C     C_2   0.628025 0.839595 0.123078 0.942532
O15   O     O_2   0.660965 0.830719 0.232338 -0.602699
O16   O     O_R   0.689528 0.929073 0.044385 -0.752103
H12   H     H_    0.760468 0.979061 0.088264 0.378436
O17   O     O_3   0.685990 0.132020 0.630435 -0.738237
H13   H     H_    0.656739 0.222423 0.654094 0.386623
O18   O     O_3   0.314184 0.131527 0.369378 -0.754798
H14   H     H_    0.343350 0.222102 0.346056 0.387680

loop_
_geom_bond_atom_site_label_1
_geom_bond_atom_site_label_2
_ccdc_geom_bond_type
C25   O14   S    
C23   O9    D    
C14   C24   S    
C15   C25   S    
C4    N2    A    
C11   C13   A    
C9    C10   A    
O4    Zn2   S    
C24   O11   D    
C18   H4    S    
C8    C12   S    
C17   H3    S    
C2    O2    A    
C26   O15   D    
C15   H1    S    
C17   C18   A    
C7    O5    A    
C16   C26   S    
O1    Zn1   S    
O17   H13   S    
C24   O12   S    
C26   O16   S    
C22   H6    S    
O14   H11   S    
C7    C11   S    
C23   O10   S    
O16   H12   S    
C3    N2    A    
O2    Zn1   S    
C10   C12   A    
C8    O6    A    
O8    Zn2   S    
C19   C21   A    
C9    C16   S    
C12   C14   A    
C6    N1    A    
O7    Zn2   S    
C5    H7    S    
C10   C15   S    
C9    C11   A    
O5    Zn1   S    
O18   H14   S    
C21   H5    S    
C5    N1    A    
C4    C6    A    
N1    Zn1   S    
C1    O1    A    
C15   C16   S    
O10   H9    S    
C13   C23   S    
C17   C20   A    
C1    O3    A    
O6    Zn1   S    
C16   H2    S    
C18   C19   A    
C2    O4    A    
O12   H10   S    
O3    Zn2   S    
N2    Zn2   S    
C1    C20   S    
C7    O7    A    
C8    O8    A    
C13   C14   A    
C6    H8    S    
C2    C19   S    
C21   C22   A    
C4    O18   S    
C25   O13   D    
C20   C22   A    
C3    C5    A    
C3    O17   S    
