data_mof_unit_16003.cif
_audit_creation_date              2012-12-10T16:44:39-0500
_audit_creation_method            fapswitch 2.2
_symmetry_space_group_name_H-M    P1
_symmetry_Int_Tables_number       1
_space_group_crystal_system       triclinic
_cell_length_a                    14.965671
_cell_length_b                    8.676547
_cell_length_c                    7.453049
_cell_angle_alpha                 102.842603
_cell_angle_beta                  93.91667
_cell_angle_gamma                 92.36377
_cell_volume                      939.782332771

loop_
_atom_site_label
_atom_site_type_symbol
_atom_type_description
_atom_site_fract_x
_atom_site_fract_y
_atom_site_fract_z
_atom_type_partial_charge
C1    C     C_R   0.497307 0.199818 0.453376 0.876892
C2    C     C_R   0.502693 0.800182 0.546624 0.876892
C3    C     C_R   0.033307 0.226926 0.313705 0.148831
C4    C     C_R   0.966692 0.773075 0.686293 0.148831
C5    C     C_2   0.496002 0.031936 0.427114 -0.372410
C6    C     C_2   0.503998 0.968063 0.572886 -0.372410
C7    C     C_R   0.329097 0.499228 0.502782 0.799531
C8    C     C_R   0.670902 0.500772 0.497218 0.799531
C9    C     C_R   0.819252 0.635523 0.590277 -0.232164
C10   C     C_R   0.180748 0.364477 0.409723 -0.232163
C11   C     C_R   0.767092 0.502844 0.491587 -0.061456
C12   C     C_R   0.232908 0.497156 0.508413 -0.061456
C13   C     C_R   0.806524 0.370472 0.393669 -0.221434
C14   C     C_R   0.193476 0.629528 0.606330 -0.221434
C15   C     C_R   0.899654 0.367631 0.398474 0.089407
C16   C     C_R   0.100346 0.632370 0.601524 0.089406
C17   C     C_R   0.953161 0.501473 0.497627 0.013115
C18   C     C_R   0.046839 0.498528 0.502372 0.013115
C19   C     C_R   0.912815 0.638042 0.591906 0.107597
C20   C     C_R   0.087185 0.361959 0.408094 0.107597
C21   C     C_R   0.939695 0.231986 0.308160 -0.246897
C22   C     C_R   0.060305 0.768015 0.691838 -0.246897
Cu1   Cu    Cu3+1 0.510010 0.517380 0.684380 0.954996
Cu2   Cu    Cu3+1 0.489990 0.482620 0.315620 0.954996
H1    H     H_    0.786096 0.736130 0.664883 0.159577
H2    H     H_    0.213904 0.263869 0.335117 0.159578
H3    H     H_    0.764576 0.268238 0.318997 0.136034
H4    H     H_    0.235423 0.731762 0.681002 0.136034
H5    H     H_    0.897936 0.129201 0.234726 0.151335
H6    H     H_    0.102064 0.870800 0.765272 0.151334
H7    H     H_    0.488451 0.960549 0.286565 0.180641
H8    H     H_    0.511549 0.039451 0.713435 0.180641
H9    H     H_    0.430119 0.377825 0.948853 0.227432
H10   H     H_    0.569881 0.622175 0.051146 0.227432
N1    N     N_2   0.474890 0.456420 0.038520 -0.215273
N2    N     N_2   0.525110 0.543580 0.961480 -0.215273
O1    O     O_R   0.506510 0.286130 0.619770 -0.583382
O2    O     O_R   0.493490 0.713870 0.380230 -0.583382
O3    O     O_R   0.489600 0.256770 0.308360 -0.588600
O4    O     O_R   0.510400 0.743230 0.691640 -0.588599
O5    O     O_R   0.378710 0.514640 0.655720 -0.586482
O6    O     O_R   0.621290 0.485360 0.344280 -0.586483
O7    O     O_R   0.361800 0.485290 0.344300 -0.574817
O8    O     O_R   0.638200 0.514710 0.655700 -0.574817
N3    N     N_3   0.073730 0.084964 0.225571 -0.606512
H11   H     H_    0.024510 0.998546 0.158418 0.228247
H12   H     H_    0.105775 0.039036 0.329703 0.215793
N4    N     N_3   0.926270 0.915037 0.774428 -0.606513
H13   H     H_    0.975490 0.001456 0.841575 0.228246
H14   H     H_    0.894222 0.960962 0.670298 0.215793

loop_
_geom_bond_atom_site_label_1
_geom_bond_atom_site_label_2
_ccdc_geom_bond_type
Cu2   O2    S    
Cu1   Cu2   S    
C7    O7    A    
C11   C13   A    
C2    O2    A    
C6    H8    S    
N1    N2    D    
Cu1   O5    S    
C1    O1    A    
C8    O6    A    
C14   H4    S    
C10   H2    S    
C7    O5    A    
C17   C18   A    
C9    H1    S    
C3    C20   A    
N3    H11   S    
Cu2   O6    S    
C9    C11   A    
C2    C6    S    
C10   C12   A    
C8    C11   S    
C1    C5    S    
N4    H14   S    
N4    H13   S    
H9    N1    S    
C12   C14   A    
H10   N2    S    
C13   C15   A    
C5    C6    D    
C14   C16   A    
C7    C12   S    
C3    C21   A    
Cu2   N1    S    
C1    O3    A    
Cu1   O4    S    
C2    O4    A    
C15   C21   A    
Cu2   O3    S    
C4    C22   A    
C18   C20   A    
C16   C18   A    
Cu1   N2    S    
C4    N4    S    
N3    H12   S    
C15   C17   A    
Cu2   O7    S    
C13   H3    S    
C16   C22   A    
C22   H6    S    
C17   C19   A    
Cu1   O1    S    
C4    C19   A    
C21   H5    S    
C3    N3    S    
Cu1   O8    S    
C8    O8    A    
C9    C19   A    
C10   C20   A    
C5    H7    S    
