data_mof_unit_40049.cif
_audit_creation_date              2013-03-05T16:45:22-0500
_audit_creation_method            fapswitch 2.2
_symmetry_space_group_name_H-M    P1
_symmetry_Int_Tables_number       1
_space_group_crystal_system       triclinic
_cell_length_a                    8.89515
_cell_length_b                    10.72312
_cell_length_c                    9.908988
_cell_angle_alpha                 89.81563
_cell_angle_beta                  90.489536
_cell_angle_gamma                 91.167549
_cell_volume                      944.921442393

loop_
_atom_site_label
_atom_site_type_symbol
_atom_site_description
_atom_site_fract_x
_atom_site_fract_y
_atom_site_fract_z
_atom_type_partial_charge
O1    O     O_R   0.500020 0.316790 0.614690 -0.623506
O2    O     O_R   0.500000 0.316760 0.385350 -0.622233
C1    C     C_R   0.505716 0.260151 0.500037 0.879508
O3    O     O_R   0.285350 0.500020 0.614650 -0.626248
O4    O     O_R   0.285340 0.499980 0.385310 -0.576130
C2    C     C_R   0.218876 0.500078 0.499581 0.938295
Zn1   Zn    Zn3+2 0.500010 0.500020 0.653130 0.971068
Zn2   Zn    Zn3+2 0.499990 0.499980 0.346870 0.996693
O5    O     O_R   0.500000 0.683240 0.614650 -0.622702
O6    O     O_R   0.499980 0.683210 0.385310 -0.621574
O7    O     O_R   0.714660 0.500020 0.614690 -0.621918
O8    O     O_R   0.714650 0.499980 0.385350 -0.602870
C3    C     C_R   0.504419 0.740011 0.499933 0.873418
C4    C     C_R   0.781150 0.500348 0.500321 0.927840
C5    C     C_1   0.065478 0.500518 0.499224 -0.109597
C6    C     C_1   0.934572 0.500584 0.500250 -0.118330
C7    C     C_R   0.548051 0.064457 0.620277 0.070941
C8    C     C_R   0.531554 0.129251 0.499333 -0.100002
C9    C     C_R   0.543353 0.065456 0.376591 -0.174101
H1    H     H_    0.542508 0.113937 0.280482 0.181109
C10   C     C_R   0.541784 0.936388 0.376890 -0.187989
H2    H     H_    0.540732 0.888218 0.280925 0.187178
C11   C     C_R   0.527624 0.871848 0.499849 -0.108513
C12   C     C_R   0.544494 0.936597 0.621446 0.043084
C13   C     C_3   0.458773 0.931717 0.752178 -0.077848
C14   C     C_3   0.465433 0.074856 0.749988 -0.304705
H3    H     H_    0.354557 0.119481 0.736414 0.149916
C15   C     C_R   0.370755 0.475157 0.070539 0.164388
N1    N     N_R   0.499010 0.499140 0.142800 -0.142987
C16   C     C_R   0.622692 0.538897 0.073741 -0.102994
H4    H     H_    0.721639 0.569897 0.129559 0.187468
C17   C     C_R   0.622772 0.540630 0.930538 0.009574
N2    N     N_R   0.499010 0.499180 0.857150 -0.136670
C18   C     C_R   0.370175 0.475051 0.928090 0.136376
C19   C     C_3   0.275255 0.358210 0.923960 -0.390787
C20   C     C_3   0.275572 0.359352 0.078537 0.070968
H5    H     H_    0.335385 0.279054 0.881785 0.143227
H6    H     H_    0.335223 0.279274 0.124639 0.117472
N3    N     N_R   0.129072 0.381367 0.140132 0.240859
O9    O     O_R   0.069689 0.296799 0.218752 -0.392265
O10   O     O_R   0.060915 0.486744 0.123279 -0.401318
C21   C     C_1   0.304526 0.879916 0.738432 0.187904
N4    N     N_1   0.183542 0.839048 0.727680 -0.177682
C22   C     C_1   0.541751 0.873841 0.864717 0.222662
N5    N     N_1   0.606353 0.831328 0.955046 -0.225294
C23   C     C_1   0.562839 0.135555 0.853306 0.233296
N6    N     N_1   0.638937 0.183311 0.934074 -0.183418
C24   C     C_1   0.753153 0.594285 0.866147 0.310021
N7    N     N_1   0.858545 0.639554 0.816862 -0.171004
C25   C     C_1   0.128083 0.374978 0.858297 0.364472
N8    N     N_1   0.011994 0.386485 0.806807 -0.185054

loop_
_geom_bond_atom_site_label_1
_geom_bond_atom_site_label_2
_geom_bond_distance
_ccdc_geom_bond_type
C13   C21   1.475076 S    
O4    Zn2   1.950155 S    
Zn1   O7    1.950156 S    
C11   C12   1.398010 A    
N1    C16   1.360981 A    
Zn1   N2    2.021718 S    
C19   C20   1.531773 S    
C7    C8    1.391511 A    
Zn2   O8    1.943934 S    
C17   N2    1.380865 A    
C19   C25   1.470963 S    
C20   H6    1.113317 S    
O2    C1    1.287782 A    
C2    C5    1.364580 S    
C15   C18   1.411495 A    
N3    O10   1.302784 A    
C10   H2    1.083488 S    
C22   N5    1.156917 T    
C16   C17   1.419062 A    
C17   C24   1.437445 S    
C15   C20   1.490916 S    
C14   H3    1.111908 S    
C16   H4    1.082607 S    
O3    Zn1   1.943934 S    
Zn2   N1    2.022120 S    
C13   C22   1.474332 S    
O3    C2    1.279923 A    
C24   N7    1.157915 T    
C19   H5    1.098082 S    
O8    C4    1.279150 A    
N2    C18   1.369279 A    
O1    C1    1.291826 A    
C10   C11   1.404619 A    
O4    C2    1.281846 A    
O7    C4    1.282764 A    
C4    C6    1.364667 S    
C7    C12   1.370789 A    
C21   N4    1.157873 T    
C7    C14   1.491621 S    
C5    C6    1.164574 T    
C8    C9    1.403102 A    
C12   C13   1.509000 S    
C3    C11   1.424521 S    
C1    C8    1.427009 S    
Zn2   O6    2.002583 S    
C18   C19   1.496978 S    
N3    O9    1.300481 A    
Zn1   O5    2.000144 S    
O5    C3    1.288262 A    
C23   N6    1.157681 T    
C15   N1    1.362222 A    
C25   N8    1.156574 T    
C13   C14   1.534918 S    
O1    Zn1   2.002583 S    
C14   C23   1.479400 S    
C20   N3    1.467463 S    
O2    Zn2   2.000146 S    
C9    H1    1.083573 S    
C9    C10   1.383797 A    
O6    C3    1.290463 A    
