data_mof_unit_41380.cif
_audit_creation_date              2012-12-11T14:49:50-0500
_audit_creation_method            fapswitch 2.2
_symmetry_space_group_name_H-M    P1
_symmetry_Int_Tables_number       1
_space_group_crystal_system       triclinic
_cell_length_a                    16.998983
_cell_length_b                    16.751402
_cell_length_c                    19.453522
_cell_angle_alpha                 117.863997
_cell_angle_beta                  62.39256
_cell_angle_gamma                 100.769927
_cell_volume                      4336.55721127

loop_
_atom_site_label
_atom_site_type_symbol
_atom_type_description
_atom_site_fract_x
_atom_site_fract_y
_atom_site_fract_z
_atom_type_partial_charge
C1    C     C_R   0.035549 0.760533 0.015319 0.462821
C2    C     C_R   0.237370 0.577939 0.836012 0.682175
C3    C     C_R   0.181252 0.492505 0.090241 -0.111183
C4    C     C_R   0.748683 0.476841 0.175315 -0.141538
C5    C     C_R   0.046074 0.327340 0.751199 -0.109300
C6    C     C_R   0.253464 0.544851 0.069522 0.040800
C7    C     C_R   0.037526 0.240605 0.744680 0.069283
C8    C     C_R   0.237675 0.556701 0.758116 -0.083031
C9    C     C_R   0.002198 0.227795 0.030727 0.091000
C10   C     C_R   0.072728 0.074413 0.667707 -0.176281
C11   C     C_R   0.083156 0.158693 0.665988 0.069990
C12   C     C_R   0.744058 0.542283 0.255005 0.094267
C13   C     C_R   0.131544 0.163652 0.586973 -0.234664
C14   C     C_R   0.154177 0.085624 0.510008 0.166810
C15   C     C_R   0.131833 0.001080 0.511969 -0.012784
C16   C     C_R   0.805643 0.546782 0.946615 -0.120853
C17   C     C_R   0.096763 0.994713 0.590621 0.029461
C18   C     C_R   0.190552 0.091802 0.431796 -0.201851
C19   C     C_R   0.195033 0.016144 0.357299 -0.162903
C20   C     C_R   0.163527 0.933993 0.360708 0.158780
C21   C     C_R   0.136701 0.924660 0.436720 -0.011732
C22   C     C_R   0.108035 0.841068 0.439296 -0.046620
C23   C     C_R   0.723483 0.523545 0.995293 0.063532
C24   C     C_R   0.087925 0.832576 0.514460 -0.361191
C25   C     C_R   0.080203 0.909396 0.590995 0.530142
C26   C     C_R   0.149808 0.864602 0.292255 -0.329568
C27   C     C_R   0.107852 0.786291 0.298745 0.008059
C28   C     C_R   0.014260 0.656855 0.239522 -0.134514
C29   C     C_R   0.095457 0.770212 0.368449 0.481024
C30   C     C_R   0.381955 0.621932 0.698246 -0.194035
C31   C     C_R   0.301667 0.588173 0.693990 0.106169
C32   C     C_R   0.286669 0.579066 0.625476 -0.164902
C33   C     C_R   0.354915 0.594848 0.557070 0.030290
C34   C     C_R   0.067460 0.729862 0.238607 0.108176
C35   C     C_R   0.437515 0.622613 0.559918 -0.003747
C36   C     C_R   0.448997 0.640652 0.632985 0.132121
C37   C     C_R   0.344210 0.578174 0.483880 0.491433
C38   C     C_R   0.418624 0.580936 0.411109 -0.315599
C39   C     C_R   0.502939 0.599098 0.410724 0.019687
C40   C     C_R   0.738841 0.463081 0.017990 -0.144412
C41   C     C_R   0.511077 0.624715 0.487148 -0.044533
C42   C     C_R   0.594489 0.645887 0.489042 0.160238
C43   C     C_R   0.602679 0.673061 0.565142 -0.167362
C44   C     C_R   0.530137 0.669977 0.636874 -0.183127
C45   C     C_R   0.248636 0.570517 0.013547 -0.117092
C46   C     C_R   0.580017 0.586797 0.334403 0.481249
C47   C     C_R   0.664126 0.590099 0.334221 -0.073533
C48   C     C_R   0.670067 0.629493 0.412881 -0.282699
C49   C     C_R   0.636975 0.562824 0.026250 0.108163
C50   C     C_R   0.318872 0.573664 0.104647 0.132707
C51   C     C_R   0.403373 0.531822 0.154714 -0.207331
C52   C     C_R   0.083763 0.734089 0.163605 -0.104375
C53   C     C_R   0.323808 0.533100 0.151510 -0.146388
C54   C     C_R   0.387420 0.627937 0.076474 -0.268022
C55   C     C_R   0.469263 0.620084 0.072331 0.174675
C56   C     C_R   0.977215 0.246925 0.825982 -0.126580
C57   C     C_R   0.478084 0.567435 0.107753 0.191332
C58   C     C_R   0.561923 0.541342 0.086321 -0.247536
C59   C     C_R   0.628266 0.622629 0.998021 -0.161914
C60   C     C_R   0.544382 0.652477 0.022287 -0.203304
C61   C     C_R   0.798720 0.171230 0.159071 0.072312
C62   C     C_R   0.954023 0.864208 0.001986 -0.056780
C63   C     C_R   0.894707 0.953958 0.966360 0.617120
C64   C     C_R   0.829779 0.551128 0.247919 -0.095191
C65   C     C_R   0.937893 0.874071 0.941396 0.349871
C66   C     C_R   0.932825 0.936377 0.084259 -0.187965
C67   C     C_R   0.160715 0.509771 0.758333 -0.250592
C68   C     C_R   0.890689 0.016506 0.109355 -0.045727
C69   C     C_R   0.869075 0.023835 0.050442 -0.142793
C70   C     C_R   0.820758 0.100382 0.077086 -0.273095
C71   C     C_R   0.822636 0.167233 0.216958 0.350195
C72   C     C_R   0.866249 0.087561 0.193543 0.380291
C73   C     C_R   0.957340 0.691295 0.939615 -0.197526
C74   C     C_R   0.983361 0.775880 0.984506 0.105868
C75   C     C_R   0.036829 0.310765 0.066512 -0.115152
C76   C     C_R   0.955656 0.242289 0.994226 -0.124627
F1    F     F_    0.281533 0.645470 0.875379 -0.754925
F2    F     F_    0.876624 0.963104 0.909172 -0.703446
H1    H     H_    0.953197 0.191810 0.843316 0.111421
H2    H     H_    0.693139 0.447366 0.161132 0.135757
H3    H     H_    0.217490 0.023378 0.298538 0.138575
H4    H     H_    0.163984 0.876760 0.237839 0.155552
H5    H     H_    0.073523 0.767656 0.516057 0.162087
H6    H     H_    0.396647 0.627309 0.748490 0.191815
H7    H     H_    0.224010 0.555077 0.622953 0.176156
H8    H     H_    0.411221 0.563878 0.353447 0.184867
H9    H     H_    0.818336 0.585745 0.911905 0.091409
H10   H     H_    0.733498 0.638568 0.415251 0.140571
H11   H     H_    0.666424 0.690654 0.567354 0.130059
H12   H     H_    0.132995 0.494071 0.713637 0.141503
H13   H     H_    0.538780 0.685648 0.693630 0.138787
H14   H     H_    0.567205 0.498068 0.111361 0.157040
H15   H     H_    0.685314 0.643564 0.954568 0.125798
H16   H     H_    0.408992 0.493652 0.184533 0.142297
H17   H     H_    0.538296 0.694098 0.995788 0.139284
H18   H     H_    0.270066 0.494759 0.178128 0.127508
H19   H     H_    0.382504 0.665106 0.045688 0.126641
H20   H     H_    0.800566 0.106394 0.034443 0.202537
H21   H     H_    0.996385 0.624786 0.281216 0.161925
H22   H     H_    0.945376 0.927973 0.130288 0.229114
H23   H     H_    0.071293 0.326807 0.105932 0.106124
H24   H     H_    0.691602 0.420993 0.044811 0.099879
H25   H     H_    0.135177 0.772065 0.134825 0.111499
H26   H     H_    0.851940 0.596051 0.296359 0.092088
H27   H     H_    0.923121 0.677063 0.900690 0.173605
H28   H     H_    0.286972 0.620445 0.992438 0.160541
H29   H     H_    0.143868 0.785524 0.026599 0.333193
H30   H     H_    0.019816 0.695790 0.423324 0.307588
H31   H     H_    0.043795 0.838743 0.656233 0.328871
H32   H     H_    0.266188 0.545792 0.427299 0.320540
H33   H     H_    0.624732 0.591388 0.225329 0.314206
H34   H     H_    0.912624 0.194649 0.968912 0.120036
H35   H     H_    0.845987 0.244198 0.316531 0.323888
H36   H     H_    0.839469 0.112747 0.310510 0.325983
H37   H     H_    0.950258 0.822122 0.823526 0.372478
H38   H     H_    0.157497 0.471102 0.140824 0.101577
H39   H     H_    0.087331 0.349287 0.701852 0.101188
H40   H     H_    0.040398 0.070550 0.728742 0.182925
H41   H     H_    0.144730 0.227881 0.584035 0.120205
H42   H     H_    0.209582 0.156253 0.429416 0.137104
N1    N     N_R   0.036080 0.671900 0.995420 -0.107723
N2    N     N_R   0.867430 0.509300 0.948100 -0.037655
N3    N     N_R   0.003360 0.617250 0.167070 -0.056647
N4    N     N_R   0.825450 0.461270 0.995400 -0.040025
N5    N     N_R   0.045340 0.665280 0.119770 -0.052462
N6    N     N_R   0.883740 0.497640 0.167070 -0.045182
N7    N     N_R   0.987050 0.628910 0.948110 -0.074458
N8    N     N_R   0.174550 0.538730 0.004600 -0.045444
N9    N     N_R   0.954660 0.334720 0.880230 -0.042756
N10   N     N_R   0.116260 0.502360 0.832930 -0.067787
N11   N     N_R   0.012950 0.371090 0.051890 -0.045467
N12   N     N_R   0.963920 0.328100 0.004580 -0.046681
N13   N     N_R   0.165290 0.545350 0.880240 -0.101547
N14   N     N_R   0.132570 0.490700 0.051900 -0.045254
N15   N     N_R   0.996640 0.382750 0.832930 -0.039552
N16   N     N_R   0.834710 0.454650 0.119760 -0.044139
Ni1   Ni    Ni4+2 0.104370 0.604370 0.000010 0.244578
Ni2   Ni    Ni4+2 0.895630 0.395630 0.999990 0.221788
Ni3   Ni    Ni4+2 0.991920 0.505780 0.891500 0.216952
Ni4   Ni    Ni4+2 0.008080 0.494220 0.108500 0.217520
O1    O     O_3   0.092818 0.821530 0.042936 -0.750059
O2    O     O_3   0.069978 0.686610 0.366863 -0.785835
O3    O     O_3   0.053123 0.902996 0.667058 -0.733052
O4    O     O_3   0.262000 0.555588 0.483281 -0.759037
O5    O     O_3   0.571439 0.569242 0.261597 -0.797086
O6    O     O_3   0.803257 0.242742 0.294644 -0.742623
O7    O     O_3   0.883919 0.076469 0.251184 -0.754536
O8    O     O_3   0.965215 0.805165 0.858623 -0.747766

loop_
_geom_bond_atom_site_label_1
_geom_bond_atom_site_label_2
_ccdc_geom_bond_type
C61   C70   A    
C66   C68   A    
C63   C65   A    
C52   H25   S    
N13   Ni1   S    
C37   O4    S    
C27   C29   A    
C11   C13   A    
C41   C42   A    
C14   C18   A    
C35   C36   A    
N8    Ni1   S    
C3    C6    A    
H30   O2    S    
C28   N3    A    
C39   C41   A    
N15   Ni3   S    
N6    Ni4   S    
C26   C27   A    
C50   C54   A    
C56   H1    S    
C38   H8    S    
C5    N15   A    
C1    C74   A    
N4    Ni2   S    
C6    C45   A    
C24   H5    S    
N2    Ni3   S    
C4    H2    S    
C3    H38   S    
H33   O5    S    
N14   Ni4   S    
C30   C31   A    
C12   C64   A    
C59   H15   S    
C23   C49   S    
C46   O5    S    
C29   O2    S    
C10   C17   A    
C66   H22   S    
C23   C40   A    
C64   H26   S    
C18   C19   A    
C73   C74   A    
N1    Ni1   S    
C16   N2    A    
N11   Ni4   S    
N3    N5    A    
N9    N15   A    
N9    Ni2   S    
C63   C69   A    
C68   C69   A    
C16   H9    S    
C48   H10   S    
C54   H19   S    
C51   C57   A    
C9    C76   A    
C13   C14   A    
C4    C12   A    
C56   N9    A    
C68   C72   A    
C4    N16   A    
C61   C71   A    
C28   C34   A    
C59   C60   A    
C26   H4    S    
C21   C22   A    
C53   H18   S    
C25   O3    S    
N7    Ni3   S    
C7    C56   A    
C12   C47   S    
N10   Ni3   S    
C13   H41   S    
C75   N11   A    
C27   C34   S    
C40   N4    A    
C2    N13   A    
C62   C66   A    
C50   C53   A    
C24   C25   A    
N16   Ni2   S    
C5    C7    A    
N5    Ni1   S    
C73   N7    A    
C40   H24   S    
H37   O8    S    
C67   H12   S    
C33   C37   A    
C49   C58   A    
C5    H39   S    
C51   C53   A    
H35   O6    S    
C7    C11   S    
C43   C44   A    
C37   C38   A    
C10   H40   S    
N8    N14   A    
C73   H27   S    
C47   C48   A    
C76   H34   S    
H31   O3    S    
C42   C48   A    
C6    C50   S    
C65   O8    S    
H32   O4    S    
C44   H13   S    
C39   C46   A    
C28   H21   S    
C16   C23   A    
C64   N6    A    
C55   C57   A    
C22   C24   A    
C36   C44   A    
C67   N10   A    
H29   O1    S    
C42   C43   A    
N2    N4    A    
N11   N12   A    
C18   H42   S    
C45   H28   S    
N12   Ni2   S    
C15   C17   A    
C54   C55   A    
C62   C65   A    
C8    C31   S    
C31   C32   A    
C2    C8    A    
H36   O7    S    
C52   N5    A    
N1    N7    A    
C72   O7    S    
C9    C75   A    
C34   C52   A    
C49   C59   A    
C30   C36   A    
C3    N14   A    
C17   C25   A    
C32   C33   A    
C19   C20   A    
C71   C72   A    
C2    F1    S    
C19   H3    S    
C76   N12   A    
C57   C58   A    
C38   C39   A    
C20   C26   A    
C32   H7    S    
N3    Ni4   S    
C33   C35   A    
C43   H11   S    
C30   H6    S    
C69   C70   A    
C35   C41   A    
C1    N1    A    
C46   C47   A    
C1    O1    S    
C10   C11   A    
C51   H16   S    
N6    N16   A    
N10   N13   A    
C60   H17   S    
C15   C21   A    
C71   O6    S    
C20   C21   A    
C8    C67   A    
C22   C29   A    
C75   H23   S    
C14   C15   A    
C62   C74   S    
C45   N8    A    
C55   C60   A    
C58   H14   S    
C70   H20   S    
C63   F2    S    
