data_mof_unit_10526.cif
_audit_creation_date              2013-03-05T15:41:44-0500
_audit_creation_method            fapswitch 2.2
_symmetry_space_group_name_H-M    P1
_symmetry_Int_Tables_number       1
_space_group_crystal_system       triclinic
_cell_length_a                    6.947965
_cell_length_b                    13.771813
_cell_length_c                    20.46027
_cell_angle_alpha                 102.37331
_cell_angle_beta                  90.140048
_cell_angle_gamma                 90.093028
_cell_volume                      1912.27806851

loop_
_atom_site_label
_atom_site_type_symbol
_atom_site_description
_atom_site_fract_x
_atom_site_fract_y
_atom_site_fract_z
_atom_type_partial_charge
O1    O     O_R   0.506860 0.599390 0.449240 -0.566101
O2    O     O_R   0.180220 0.594600 0.586780 -0.570002
O3    O     O_R   0.004500 0.400610 0.550760 -0.563149
C1    C     C_R   0.348855 0.613947 0.614140 0.881346
O4    O     O_R   0.177490 0.611290 0.451970 -0.534546
O5    O     O_R   0.001750 0.417420 0.414990 -0.506864
C2    C     C_R   0.346250 0.635629 0.433442 0.919932
O6    O     O_R   0.509610 0.582580 0.585010 -0.546966
O7    O     O_3   0.337420 0.436370 0.488020 -0.247228
V1    V     V_3+5 0.064680 0.511800 0.502220 1.264989
O8    O     O_R   0.671710 0.405400 0.413220 -0.522218
C3    C     C_R   0.841076 0.387005 0.385802 0.874916
O9    O     O_R   0.674440 0.388710 0.548030 -0.555702
C4    C     C_R   0.844304 0.363371 0.565091 0.921809
V2    V     V_3+5 0.564010 0.488200 0.497780 1.265620
O10   O     O_3   0.841140 0.563630 0.511980 -0.283704
C5    C     C_R   0.967275 0.123338 0.614040 -0.064626
C6    C     C_R   0.861683 0.286938 0.604487 -0.178471
C7    C     C_R   0.863955 0.311040 0.927504 -0.077503
C8    C     C_R   0.879173 0.387096 0.892928 -0.051108
C9    C     C_R   0.885374 0.365495 0.823366 -0.024559
C10   C     C_R   0.867822 0.266787 0.786188 0.077746
C11   C     C_R   0.861940 0.188074 0.821549 -0.025309
C12   C     C_R   0.869945 0.243317 0.714589 0.025828
C13   C     C_R   0.924659 0.146025 0.682166 0.045423
C14   C     C_R   0.923681 0.069840 0.717029 -0.090250
C15   C     C_R   0.869132 0.088894 0.783809 -0.036268
C16   C     C_R   0.818400 0.311128 0.673826 -0.066870
C17   C     C_R   0.945445 0.194187 0.575222 -0.100705
C18   C     C_R   0.858898 0.211737 0.893041 -0.091561
C19   C     C_2   0.985105 0.275402 0.284833 -0.171695
C20   C     C_2   0.852259 0.345990 0.312679 -0.162950
C21   C     C_2   0.000467 0.239753 0.211276 -0.080251
C22   C     C_2   0.856916 0.183045 0.178941 -0.233813
C23   C     C_2   0.211595 0.762522 0.792061 -0.065468
C24   C     C_2   0.363747 0.817021 0.819342 -0.154998
C25   C     C_2   0.206601 0.700829 0.722390 -0.087929
C26   C     C_2   0.361671 0.677665 0.682322 -0.160008
C27   C     C_R   0.524562 0.871003 0.387613 -0.040707
C28   C     C_R   0.363751 0.716857 0.396952 -0.173310
C29   C     C_R   0.306597 0.692615 0.076337 -0.101441
C30   C     C_R   0.292464 0.618750 0.112819 -0.032944
C31   C     C_R   0.316971 0.641821 0.182002 -0.027922
C32   C     C_R   0.351167 0.740689 0.217205 0.066251
C33   C     C_R   0.384259 0.813550 0.178829 0.011056
C34   C     C_R   0.367767 0.766959 0.288832 0.030120
C35   C     C_R   0.463790 0.857495 0.319228 -0.014880
C36   C     C_R   0.494663 0.929830 0.279455 -0.000176
C37   C     C_R   0.448572 0.907831 0.211266 -0.104447
C38   C     C_R   0.294656 0.704945 0.330790 -0.073650
C39   C     C_R   0.478259 0.799597 0.425270 -0.076699
C40   C     C_R   0.355407 0.789666 0.108272 -0.076590
O11   O     O_R   0.203230 0.917310 0.915020 -0.543801
O12   O     O_R   0.535500 0.888690 0.048040 -0.570982
O13   O     O_R   0.711080 0.082610 0.085000 -0.563532
C41   C     C_R   0.366987 0.864953 0.067037 0.798720
O14   O     O_R   0.532630 0.905370 0.913230 -0.559311
O15   O     O_R   0.708190 0.099410 0.949230 -0.535692
C42   C     C_R   0.364204 0.882275 0.887176 0.892987
O16   O     O_R   0.206120 0.900510 0.050790 -0.568231
O17   O     O_3   0.375360 0.063570 0.011990 -0.259326
V3    V     V_3+5 0.648170 0.988200 0.997780 1.181435
O18   O     O_R   0.038240 0.111390 0.951940 -0.545465
C43   C     C_R   0.869215 0.135732 0.933603 0.831929
O19   O     O_R   0.041120 0.094710 0.086750 -0.554813
C44   C     C_R   0.871589 0.118724 0.111820 0.870186
V4    V     V_3+5 0.148810 0.011930 0.002180 1.201153
O20   O     O_3   0.871750 0.936430 0.988010 -0.288560
C45   C     C_2   0.002594 0.165977 0.503543 0.907699
O21   O     O_2   0.923330 0.203318 0.461552 -0.627483
O22   O     O_R   0.143252 0.093153 0.483714 -0.676212
H1    H     H_    0.166313 0.078009 0.433683 0.393089
C46   C     C_2   0.730211 0.398700 0.270823 0.871576
O23   O     O_2   0.783016 0.407140 0.215316 -0.609769
O24   O     O_R   0.557896 0.443247 0.296648 -0.706353
H2    H     H_    0.489874 0.478035 0.264343 0.314470
C47   C     C_2   0.176709 0.264564 0.177345 0.945535
O25   O     O_2   0.165750 0.284146 0.121882 -0.591074
O26   O     O_R   0.354431 0.268742 0.209721 -0.752751
H3    H     H_    0.462846 0.285145 0.180843 0.316497
H4    H     H_    0.724382 0.177210 0.205784 0.140798
H5    H     H_    0.082084 0.763436 0.821607 0.102345
H6    H     H_    0.496264 0.814297 0.791431 0.081506
H7    H     H_    0.066692 0.671409 0.704210 0.123808
H8    H     H_    0.504468 0.701658 0.700225 0.086745
C48   C     C_2   0.546731 0.812534 0.495968 0.899886
O27   O     O_2   0.432102 0.807630 0.540430 -0.614722
O28   O     O_R   0.741863 0.829691 0.511220 -0.727929
H9    H     H_    0.770042 0.837287 0.560708 0.314080
C49   C     C_2   0.572642 0.030730 0.305405 0.913114
O29   O     O_2   0.716281 0.057139 0.279809 -0.639826
O30   O     O_R   0.482844 0.095947 0.358117 -0.691753
H10   H     H_    0.552606 0.162041 0.371202 0.345268
C50   C     C_2   0.642125 0.956501 0.421877 0.931632
O31   O     O_2   0.807075 0.966801 0.403760 -0.560150
O32   O     O_R   0.564930 0.022180 0.477245 -0.697058
H11   H     H_    0.656419 0.077553 0.497515 0.314613
H12   H     H_    0.942909 0.993483 0.690090 0.098313
C51   C     C_2   0.126363 0.638506 0.309231 0.858509
O33   O     O_2   0.126793 0.552531 0.316219 -0.610345
O34   O     O_R   0.968513 0.674721 0.279295 -0.732858
H13   H     H_    0.862703 0.623311 0.266559 0.322298
H14   H     H_    0.284033 0.673580 0.022672 0.053223
H15   H     H_    0.316100 0.580185 0.206668 0.069192
H16   H     H_    0.263270 0.542804 0.087301 0.101955
H17   H     H_    0.471351 0.964860 0.182844 0.079381
H18   H     H_    0.015503 0.049081 0.590786 0.139692
C52   C     C_2   0.696799 0.399629 0.700730 0.824282
O35   O     O_2   0.739361 0.481231 0.690380 -0.639639
O36   O     O_R   0.534251 0.389124 0.738811 -0.746383
H19   H     H_    0.463148 0.454140 0.754553 0.303415
H20   H     H_    0.863912 0.329533 0.981743 0.090130
H21   H     H_    0.913584 0.426794 0.799551 0.065862
H22   H     H_    0.891591 0.463373 0.920323 0.071512
C53   C     C_2   0.783259 0.005255 0.806670 0.853053
O37   O     O_2   0.611511 0.007574 0.819177 -0.602467
O38   O     O_R   0.893016 0.921542 0.809150 -0.755893
H23   H     H_    0.815670 0.868393 0.824665 0.300379
C54   C     C_2   0.111348 0.221723 0.324605 1.015709
O39   O     O_2   0.206535 0.267348 0.371352 -0.502642
O40   O     O_R   0.133859 0.118522 0.306314 -0.691754
H24   H     H_    0.064820 0.085960 0.263709 0.299345

loop_
_geom_bond_atom_site_label_1
_geom_bond_atom_site_label_2
_geom_bond_distance
_ccdc_geom_bond_type
O15   V3    2.039185 S    
C27   C39   1.410356 A    
O34   H13   1.013884 S    
C18   C43   1.470294 S    
C5    C17   1.392057 A    
C46   O23   1.223267 D    
C4    C6    1.461446 S    
C7    C8    1.387926 A    
C1    O6    1.297625 A    
C24   C42   1.483023 S    
C22   C44   1.469925 S    
O11   C42   1.302044 A    
O14   V3    2.020598 S    
C47   O25   1.223540 D    
C14   C15   1.388741 A    
C23   C25   1.495230 S    
C5    H18   1.085281 S    
O5    C3    1.290874 A    
C48   O28   1.398788 S    
O14   C42   1.295305 A    
C24   H6    1.081094 S    
C53   O37   1.220074 D    
O13   V3    2.016467 S    
C52   O35   1.223304 D    
C29   C30   1.388185 A    
C45   O22   1.398670 S    
O36   H19   1.013971 S    
C31   H15   1.076505 S    
O8    V2    2.004289 S    
C51   O33   1.222689 D    
O16   V4    2.038718 S    
C53   O38   1.393193 S    
C2    C28   1.476995 S    
C19   C21   1.483816 S    
C25   H7    1.086200 S    
O1    V2    2.034856 S    
C22   H4    1.084975 S    
C11   C15   1.418729 A    
O7    V1    2.152733 S    
C29   C40   1.396967 A    
O17   V3    2.152792 S    
C47   O26   1.395090 S    
C36   C49   1.478628 S    
O9    C4    1.299255 A    
C3    C20   1.483912 S    
C46   O24   1.398393 S    
C45   O21   1.222223 D    
C39   C48   1.495436 S    
C23   H5    1.083861 S    
C32   C34   1.436583 A    
C17   C45   1.489495 S    
C54   O40   1.399131 S    
O15   C43   1.293301 A    
O18   V4    2.031250 S    
V2    O10   2.175424 S    
C26   H8    1.083056 S    
V4    O20   2.175408 S    
C11   C18   1.429042 A    
C6    C16   1.419148 A    
C12   C13   1.414863 A    
C9    H21   1.079221 S    
C20   C46   1.498092 S    
O4    C2    1.298556 A    
C48   O27   1.223170 D    
O12   V3    2.037837 S    
C33   C40   1.423822 A    
O19   V4    2.004307 S    
C13   C14   1.389392 A    
C7    H20   1.084086 S    
C41   O16   1.292001 A    
C23   C24   1.344401 D    
O2    C1    1.299632 A    
O24   H2    1.012273 S    
C27   C50   1.478308 S    
C25   C26   1.352046 D    
O17   V4    1.719702 S    
C49   O30   1.396101 S    
C35   C36   1.431151 A    
C33   C37   1.397633 A    
C54   O39   1.218615 D    
O32   H11   1.009549 S    
C21   C22   1.347300 D    
C38   C51   1.489984 S    
C6    C17   1.416044 A    
C8    C9    1.391012 A    
C50   O32   1.398063 S    
C19   C54   1.494816 S    
O40   H24   1.010356 S    
O3    C4    1.285314 A    
C14   H12   1.086218 S    
C36   C37   1.398995 A    
C51   O34   1.398622 S    
C1    C26   1.482750 S    
O6    V2    2.007075 S    
O9    V2    2.031340 S    
C31   C32   1.416675 A    
C10   C12   1.431050 A    
C30   C31   1.392664 A    
O2    V1    2.020592 S    
O13   C44   1.292452 A    
C32   C33   1.419163 A    
C27   C35   1.433838 A    
C34   C35   1.431595 A    
O1    C2    1.291510 A    
C19   C20   1.374666 D    
C12   C16   1.424576 A    
O18   C43   1.298207 A    
O5    V1    2.016462 S    
O8    C3    1.306485 A    
O12   C41   1.297769 A    
C37   H17   1.084347 S    
C28   C39   1.406753 A    
C34   C38   1.428037 A    
V3    O20   1.704537 S    
C5    C13   1.394239 A    
O7    V2    1.720945 S    
O22   H1    1.013146 S    
O3    V1    2.039045 S    
V1    O10   1.704604 S    
O38   H23   1.012155 S    
C8    H22   1.082702 S    
C21   C47   1.484127 S    
C49   O29   1.218832 D    
C16   C52   1.490113 S    
C28   C38   1.411127 A    
O30   H10   1.014222 S    
C52   O36   1.398410 S    
C50   O31   1.222738 D    
O11   V4    2.007544 S    
C30   H16   1.082784 S    
O26   H3    1.013087 S    
C29   H14   1.083791 S    
O4    V1    2.037865 S    
O28   H9    1.013943 S    
O19   C44   1.300552 A    
C10   C11   1.427010 A    
C9    C10   1.413248 A    
C7    C18   1.398268 A    
C40   C41   1.472495 S    
C15   C53   1.459989 S    
