data_mof_unit_13610.cif
_audit_creation_date              2013-03-05T16:13:10-0500
_audit_creation_method            fapswitch 2.2
_symmetry_space_group_name_H-M    P1
_symmetry_Int_Tables_number       1
_space_group_crystal_system       triclinic
_cell_length_a                    8.64292
_cell_length_b                    16.323075
_cell_length_c                    18.818433
_cell_angle_alpha                 112.588559
_cell_angle_beta                  92.271853
_cell_angle_gamma                 83.094134
_cell_volume                      2433.37629321

loop_
_atom_site_label
_atom_site_type_symbol
_atom_site_description
_atom_site_fract_x
_atom_site_fract_y
_atom_site_fract_z
_atom_type_partial_charge
P1    P     P_3+3 0.582960 0.413890 0.320860 0.523583
O1    O     O_2   0.402610 0.439360 0.314250 -0.369620
O2    O     O_3   0.648560 0.446300 0.404730 -0.340467
O3    O     O_3   0.108870 0.604000 0.387500 -0.392320
O4    O     O_2   0.226566 0.522378 0.246355 -0.371194
O5    O     O_3   0.615981 0.298322 0.268591 -0.616555
O6    O     O_3   0.094992 0.685270 0.279463 -0.538299
H1    H     H_    0.217218 0.736761 0.380230 0.188988
C1    C     C_3   0.111455 0.842046 0.345928 -0.845508
H2    H     H_    0.115472 0.896022 0.405121 0.281843
H3    H     H_    0.216340 0.840841 0.313010 0.260793
P2    P     P_3+3 0.071690 0.707860 0.593450 0.574018
P3    P     P_3+3 0.503556 0.767933 0.457230 0.570466
O7    O     O_2   0.241370 0.719440 0.573960 -0.319815
O8    O     O_3   0.507090 0.652150 0.432150 -0.283465
O9    O     O_2   0.362580 0.808605 0.512416 -0.354239
O10   O     O_3   0.060850 0.772082 0.694365 -0.578700
O11   O     O_3   0.448862 0.802439 0.379917 -0.554100
C2    C     C_3   0.548743 0.768410 0.313696 0.375148
C3    C     C_3   0.523345 0.835657 0.272259 -0.803310
H4    H     H_    0.411701 0.829215 0.240499 0.224880
H5    H     H_    0.517145 0.904650 0.316220 0.216104
C4    C     C_3   0.583368 0.775873 0.722379 0.100005
C5    C     C_3   0.525196 0.862428 0.792346 -0.128811
H6    H     H_    0.398347 0.863002 0.799993 0.099813
Ba1   Ba    Ba6+2 0.333520 0.539550 0.472180 1.657654
C6    C     C_3   0.532879 0.248609 0.296553 0.735110
H7    H     H_    0.407244 0.275567 0.305923 0.077038
C7    C     C_3   0.549659 0.151668 0.235695 -0.613642
H8    H     H_    0.473726 0.148536 0.185612 0.262738
H9    H     H_    0.672745 0.133037 0.214015 0.195737
C8    C     C_3   0.103481 0.735757 0.750224 0.349001
C9    C     C_3   0.075216 0.812603 0.829513 -0.893983
H10   H     H_    0.127233 0.872315 0.831029 0.261983
H11   H     H_    0.127935 0.793745 0.876547 0.263188
H12   H     H_    0.948262 0.832056 0.840975 0.265906
P4    P     P_3+3 0.606720 0.586180 0.679160 0.633789
O12   O     O_2   0.787080 0.560670 0.685800 -0.343535
O13   O     O_3   0.541120 0.553770 0.595290 -0.274036
O14   O     O_3   0.080800 0.396070 0.612520 -0.370807
O15   O     O_3   0.575670 0.701451 0.742842 -0.607637
P5    P     P_3+3 0.692353 0.232393 0.546431 0.541297
O16   O     O_3   0.164600 0.390590 0.443970 -0.398122
O17   O     O_3   0.682580 0.347920 0.567870 -0.380530
O18   O     O_2   0.823421 0.190859 0.485295 -0.238932
O19   O     O_3   0.777390 0.207172 0.622981 -0.518901
Ba2   Ba    Ba6+2 0.856270 0.460520 0.527840 1.680384
P6    P     P_3+3 0.082699 0.583754 0.289929 0.497125
C10   C     C_3   0.109158 0.752542 0.352848 0.484039
H13   H     H_    0.011839 0.759049 0.391803 0.082096
H14   H     H_    0.007073 0.856554 0.313650 0.261234
O20   O     O_3   0.025080 0.609480 0.556050 -0.359926
C11   C     C_3   0.045201 0.310513 0.283736 0.224980
H15   H     H_    0.927787 0.332633 0.311405 0.078780
H16   H     H_    0.114213 0.368509 0.301158 0.099950
C12   C     C_3   0.021875 0.275827 0.196652 0.071907
H17   H     H_    0.948372 0.219874 0.178529 0.166151
H18   H     H_    0.962196 0.329932 0.180043 0.072730
P7    P     P_3+3 0.125519 0.278057 0.404267 0.502311
O21   O     O_2   0.948320 0.280590 0.426090 -0.280828
O22   O     O_3   0.124180 0.242056 0.303841 -0.532670
C13   C     C_3   0.679686 0.243401 0.688510 0.283962
H19   H     H_    0.553667 0.246644 0.673270 -0.000093
C14   C     C_3   0.708156 0.182017 0.733535 -0.552559
H20   H     H_    0.824912 0.185496 0.759463 0.259846
H21   H     H_    0.620623 0.202175 0.780779 0.241229
H22   H     H_    0.702646 0.111436 0.694440 0.256840
P8    P     P_3+3 0.105039 0.411879 0.709139 0.459418
C15   C     C_3   0.192383 0.253299 0.706673 0.315443
H23   H     H_    0.291973 0.283910 0.741718 0.042328
O23   O     O_2   0.966884 0.479632 0.752171 -0.341724
O24   O     O_3   0.059193 0.315475 0.719490 -0.490712
H24   H     H_    0.224894 0.226259 0.644484 0.059419
C16   C     C_3   0.154915 0.176701 0.729943 0.006751
H25   H     H_    0.059512 0.142904 0.693335 0.118088
C17   C     C_R   0.506264 0.464467 0.043219 0.005339
C18   C     C_R   0.426542 0.425798 0.083797 0.067101
C19   C     C_R   0.279548 0.399380 0.058637 -0.085330
C20   C     C_R   0.210990 0.408427 0.992556 -0.116903
C21   C     C_R   0.298215 0.439324 0.946787 0.032451
C22   C     C_R   0.444089 0.469772 0.973697 0.036113
C23   C     C_R   0.245908 0.439323 0.874614 -0.214551
C24   C     C_R   0.335178 0.467424 0.828493 -0.012297
C25   C     C_R   0.472607 0.506395 0.859192 0.047315
C26   C     C_R   0.526002 0.507809 0.932343 0.050395
C27   C     C_R   0.290790 0.457067 0.752353 0.116291
C28   C     C_R   0.386033 0.483586 0.707589 -0.495785
C29   C     C_R   0.516074 0.530113 0.738420 0.236916
C30   C     C_R   0.556082 0.544435 0.817515 -0.074944
C31   C     C_R   0.647516 0.498315 0.072530 0.030450
C32   C     C_R   0.707637 0.495022 0.143428 0.012509
C33   C     C_R   0.624647 0.457722 0.185493 -0.060664
C34   C     C_R   0.489799 0.418207 0.151540 -0.055189
H26   H     H_    0.214526 0.375300 0.093144 0.202110
H27   H     H_    0.351100 0.473714 0.649265 0.191386
H28   H     H_    0.138087 0.413723 0.852413 0.192051
H29   H     H_    0.429180 0.383430 0.178306 0.187120
C35   C     C_R   0.675028 0.596233 0.857385 -0.146881
C36   C     C_R   0.730280 0.597727 0.930108 0.019380
C37   C     C_R   0.661267 0.547604 0.964601 0.051166
C38   C     C_R   0.723089 0.541173 0.033736 0.040030
C39   C     C_R   0.854518 0.646642 0.969579 -0.068677
C40   C     C_R   0.925824 0.630102 0.031863 -0.160798
C41   C     C_R   0.860264 0.578679 0.064573 0.087688
C42   C     C_R   0.848491 0.531373 0.172876 -0.020066
C43   C     C_R   0.925817 0.569613 0.130790 -0.191508
C44   C     C_R   0.904059 0.532376 0.245123 0.262724
C45   C     C_R   0.815917 0.500993 0.288289 -0.458495
C46   C     C_R   0.676495 0.464369 0.260829 0.275989
H30   H     H_    0.726216 0.633833 0.830869 0.196524
H31   H     H_    0.025906 0.663694 0.059445 0.175286
H32   H     H_    0.036187 0.594910 0.149528 0.181239
H33   H     H_    0.857914 0.504551 0.344219 0.161353
C47   C     C_2   0.383230 0.236711 0.496023 -0.410332
C48   C     C_R   0.801358 0.751399 0.518845 -0.332100
C49   C     C_2   0.244663 0.115183 0.405864 -0.185525
C50   C     C_2   0.255353 0.202888 0.439719 0.232913
C51   C     C_2   0.509560 0.181623 0.502262 0.234877
C52   C     C_3   0.517040 0.083024 0.450324 -0.086632
C53   C     C_3   0.359473 0.047976 0.421279 0.150752
C54   C     C_2   0.634167 0.017426 0.468978 0.286917
C55   C     C_2   0.598466 0.969489 0.510119 0.370528
C56   C     C_R   0.858786 0.927312 0.556342 0.171005
C57   C     C_R   0.714254 0.901713 0.524234 -0.145325
C58   C     C_R   0.972185 0.866709 0.570269 -0.326856
C59   C     C_R   0.944692 0.778054 0.551702 0.278369
C60   C     C_R   0.683819 0.812534 0.506881 0.226085
H34   H     H_    0.153192 0.090762 0.364486 0.194056
H35   H     H_    0.079051 0.890137 0.598440 0.191472
H36   H     H_    0.381939 0.308403 0.525931 0.156106
H37   H     H_    0.778964 0.683114 0.504803 0.200754
C61   C     C_2   0.602042 0.864590 0.866632 0.691507
H38   H     H_    0.594301 0.809525 0.885113 -0.054575
O25   O     O_2   0.670933 0.927561 0.907100 -0.500859
Cl1   Cl    Cl    0.548666 0.962649 0.776865 -0.612199
Cl2   Cl    Cl    0.622696 0.252738 0.383026 -0.626168
C62   C     C_2   0.511634 0.082512 0.265235 0.550090
H39   H     H_    0.591669 0.064698 0.304577 0.076932
O26   O     O_2   0.395325 0.043550 0.243159 -0.544936
C63   C     C_2   0.264233 0.699843 0.741881 0.334327
H40   H     H_    0.335959 0.708140 0.792142 0.043089
O27   O     O_2   0.305390 0.647326 0.678423 -0.561829
C64   C     C_2   0.024934 0.657385 0.743340 0.599988
H41   H     H_    0.031700 0.600977 0.688745 0.116349
O28   O     O_2   0.975353 0.650360 0.799831 -0.651855
Cl3   Cl    Cl    0.204714 0.237598 0.147345 -0.595233
C65   C     C_2   0.647544 0.826727 0.214928 0.580913
H42   H     H_    0.712339 0.883056 0.223336 0.067463
O29   O     O_2   0.674698 0.757337 0.158436 -0.598936
C66   C     C_2   0.718223 0.336133 0.736864 0.603502
H43   H     H_    0.718362 0.384294 0.710500 0.048373
O30   O     O_2   0.753201 0.357922 0.804675 -0.577020
C67   C     C_2   0.291575 0.108154 0.721494 0.647499
H44   H     H_    0.279581 0.050755 0.736658 0.109203
O31   O     O_2   0.416580 0.115806 0.697088 -0.591431
C68   C     C_2   0.503563 0.679598 0.258904 0.562490
H45   H     H_    0.531364 0.655131 0.198057 0.020887
O32   O     O_2   0.436748 0.633398 0.282495 -0.517665
Cl4   Cl    Cl    0.097052 0.217965 0.828267 -0.611884
C69   C     C_2   0.046504 0.388119 0.975521 0.660605
H46   H     H_    0.978493 0.404547 0.931854 0.062299
O33   O     O_2   0.982027 0.353253 0.011603 -0.540517
C70   C     C_2   0.901527 0.722345 0.953873 0.683148
H47   H     H_    0.827281 0.752595 0.920832 -0.000159
O34   O     O_2   0.023460 0.753523 0.979476 -0.587193
C71   C     C_2   0.717517 0.758647 0.333777 0.351442
H48   H     H_    0.790004 0.809781 0.337263 0.066515
O35   O     O_2   0.771762 0.695572 0.349846 -0.642856
Cl5   Cl    Cl    0.816214 0.995987 0.422785 -0.721896
Cl6   Cl    Cl    0.409352 0.986067 0.548585 -0.645187
C72   C     C_2   0.742835 0.776620 0.703886 0.428881
H49   H     H_    0.801454 0.836484 0.725454 0.096840
O36   O     O_2   0.802278 0.707278 0.656798 -0.562850
C73   C     C_2   0.494312 0.772561 0.652455 0.658180
H50   H     H_    0.413937 0.830247 0.652918 0.043077
O37   O     O_2   0.525497 0.709580 0.591655 -0.491302

loop_
_geom_bond_atom_site_label_1
_geom_bond_atom_site_label_2
_geom_bond_distance
_ccdc_geom_bond_type
O14   Ba2   2.822022 S    
C54   Cl5   1.759569 S    
C72   H49   1.083676 S    
C35   H30   1.067458 S    
C6    C7    1.549951 S    
P8    C27   1.871696 S    
C32   C42   1.417327 A    
P4    C29   1.928906 S    
C42   C43   1.409101 A    
C70   H47   1.081770 S    
C1    H14   1.120103 S    
C28   C29   1.411277 A    
C41   C43   1.400431 A    
C56   C57   1.404236 A    
C4    C73   1.483896 S    
C43   H32   1.077495 S    
C11   H15   1.113849 S    
C49   C50   1.338066 D    
C42   C44   1.418597 A    
P4    O12   1.577154 D    
C48   C59   1.403040 A    
C16   Cl4   1.778298 S    
O19   C13   1.409156 S    
C24   C25   1.412165 A    
C6    Cl2   1.755955 S    
C68   H45   1.084337 S    
C65   O29   1.224325 D    
C63   O27   1.208870 D    
C8    C63   1.431570 S    
P4    O15   1.794529 S    
C33   C46   1.437241 A    
C56   C58   1.397685 A    
P6    C44   1.860934 S    
P2    C59   1.858914 S    
C64   H41   1.082521 S    
C35   C36   1.423674 A    
C9    H12   1.110712 S    
C48   C60   1.410388 A    
C45   C46   1.401074 A    
C40   H31   1.085402 S    
P1    O1    1.576877 D    
P5    O19   1.756051 S    
C18   C34   1.410395 A    
C51   C52   1.523582 S    
C37   C38   1.423188 A    
C8    C64   1.479440 S    
C13   C14   1.535847 S    
C65   H42   1.090467 S    
P1    C46   1.885819 S    
Ba2   O21   2.857264 S    
C73   H50   1.098254 S    
C11   O22   1.406636 S    
C2    C3    1.564351 S    
C39   C70   1.479938 S    
C55   Cl6   1.762313 S    
C28   H27   1.082278 S    
P2    O10   1.781933 S    
C4    C5    1.560487 S    
C5    H6    1.109850 S    
C15   H24   1.114810 S    
C2    C71   1.497546 S    
P4    Ba2   3.450223 S    
C1    H2    1.126331 S    
C62   O26   1.226891 D    
O17   Ba2   2.831255 S    
O16   P7    1.766732 S    
C11   H16   1.114130 S    
C25   C30   1.431050 A    
P7    O21   1.592955 D    
P7    C50   1.856932 S    
C71   O35   1.217852 D    
C2    C68   1.507688 S    
C47   H36   1.085231 S    
C39   C40   1.404405 A    
P5    O17   1.762353 S    
P2    O20   1.581536 S    
Ba1   O16   2.850619 S    
C52   C54   1.514740 S    
C63   H40   1.082831 S    
O4    P6    1.540251 D    
P7    O22   1.750368 S    
C23   H28   1.070621 S    
C16   H25   1.109605 S    
P1    O5    1.753541 S    
C14   H22   1.109107 S    
C1    C10   1.518270 S    
C17   C18   1.404586 A    
O6    C10   1.407790 S    
C21   C23   1.414339 A    
C20   C69   1.493073 S    
C19   C20   1.407458 A    
O11   C2    1.430006 S    
O8    Ba1   2.830612 S    
C48   H37   1.082232 S    
C18   C19   1.396925 A    
O7    Ba1   2.857100 S    
C49   C53   1.494032 S    
C16   C67   1.494221 S    
P2    Ba1   3.460458 S    
P1    O2    1.565923 S    
P5    O18   1.544657 D    
C14   H21   1.113461 S    
C45   H33   1.081996 S    
C15   O24   1.402265 S    
C31   C38   1.410343 A    
C7    H8    1.115168 S    
Ba1   O20   3.019669 S    
C72   O36   1.206664 D    
C5    C61   1.513526 S    
O5    C6    1.396211 S    
P8    O24   1.750078 S    
C58   C59   1.400136 A    
C13   H19   1.115519 S    
C9    H10   1.111726 S    
O12   Ba2   2.835293 S    
C3    C65   1.506948 S    
C15   C16   1.545697 S    
O1    Ba1   2.834758 S    
C25   C26   1.426990 A    
C1    H3    1.112100 S    
C54   C55   1.359887 D    
C47   C51   1.359912 D    
Ba1   Ba2   4.736630 S    
C57   C60   1.419473 A    
P3    O11   1.780025 S    
C5    Cl1   1.803568 S    
C61   O25   1.225110 D    
P2    O7    1.575922 D    
C10   H13   1.106244 S    
C38   C41   1.401523 A    
P3    O8    1.759989 S    
C49   H34   1.085708 S    
C71   H48   1.083465 S    
C66   O30   1.221852 D    
C67   O31   1.228696 D    
C12   H17   1.112265 S    
C44   C45   1.401866 A    
C55   C57   1.494797 S    
C34   H29   1.078215 S    
C32   C33   1.425512 A    
O13   Ba2   3.023249 S    
O3    P6    1.746609 S    
C11   C12   1.528173 S    
C64   O28   1.211815 D    
C13   C66   1.506387 S    
C70   O34   1.225606 D    
C3    H4    1.108938 S    
C27   C28   1.412592 A    
O2    Ba1   3.022434 S    
P5    C51   1.885536 S    
C3    H5    1.108511 S    
C21   C22   1.414128 A    
C17   C22   1.424072 A    
O3    Ba1   2.822664 S    
C52   C53   1.539082 S    
Ba2   O20   2.850042 S    
C7    C62   1.508997 S    
C62   H39   1.089774 S    
C4    O15   1.417479 S    
C36   C37   1.415111 A    
C30   C35   1.412516 A    
O6    P6    1.758013 S    
C24   C27   1.419396 A    
C68   O32   1.217167 D    
C7    H9    1.118904 S    
C26   C37   1.407359 A    
C8    C9    1.541683 S    
C31   C32   1.430507 A    
P1    Ba1   3.449664 S    
C19   H26   1.081719 S    
P8    O23   1.541344 D    
C14   H20   1.101392 S    
O2    Ba2   2.828661 S    
C33   C34   1.409880 A    
C9    H11   1.108774 S    
C12   H18   1.110596 S    
C61   H38   1.090757 S    
C12   Cl3   1.783779 S    
C15   H23   1.109392 S    
Ba1   O13   2.828081 S    
C69   H46   1.088947 S    
C73   O37   1.221806 D    
C47   C50   1.501171 S    
C20   C21   1.428686 A    
P3    C60   1.861500 S    
C58   H35   1.082015 S    
C36   C39   1.424630 A    
C4    C72   1.437434 S    
C29   C30   1.449486 A    
P4    O13   1.565923 S    
C23   C24   1.415283 A    
O14   P8    1.743204 S    
P3    O9    1.542717 D    
C17   C31   1.405219 A    
C40   C41   1.394083 A    
O10   C8    1.409918 S    
C66   H43   1.078928 S    
C67   H44   1.095963 S    
O16   Ba2   3.018852 S    
H1    C10   1.100055 S    
C22   C26   1.418767 A    
C69   O33   1.224181 D    
C6    H7    1.115553 S    
