data_mof_unit_66953.cif
_audit_creation_date              2013-03-05T15:57:31-0500
_audit_creation_method            fapswitch 2.2
_symmetry_space_group_name_H-M    P1
_symmetry_Int_Tables_number       1
_space_group_crystal_system       triclinic
_cell_length_a                    17.655647
_cell_length_b                    19.635005
_cell_length_c                    8.671085
_cell_angle_alpha                 90.068297
_cell_angle_beta                  102.941756
_cell_angle_gamma                 89.725533
_cell_volume                      2929.60272693

loop_
_atom_site_label
_atom_site_type_symbol
_atom_site_description
_atom_site_fract_x
_atom_site_fract_y
_atom_site_fract_z
_atom_type_partial_charge
P1    P     P_3+3 0.834140 0.419320 0.003900 1.019402
P2    P     P_3+3 0.834140 0.580680 0.503900 1.033733
P3    P     P_3+3 0.334140 0.919320 0.003900 1.036706
P4    P     P_3+3 0.334140 0.080680 0.503900 1.017588
O1    O     O_2   0.841960 0.394640 0.833410 -0.470280
O2    O     O_2   0.841960 0.605360 0.333410 -0.467332
O3    O     O_2   0.341960 0.894640 0.833410 -0.468622
O4    O     O_2   0.341960 0.105360 0.333410 -0.464840
O5    O     O_3   0.907950 0.463080 0.102990 -0.444235
O6    O     O_3   0.907950 0.536920 0.602990 -0.449494
O7    O     O_3   0.407950 0.963080 0.102990 -0.447749
O8    O     O_3   0.407950 0.036920 0.602990 -0.447834
O9    O     O_3   0.972780 0.329600 0.629720 -0.481910
O10   O     O_3   0.972780 0.670400 0.129720 -0.392779
O11   O     O_3   0.472780 0.829600 0.629720 -0.535760
O12   O     O_3   0.472780 0.170400 0.129720 -0.374486
O13   O     O_2   0.837339 0.284539 0.673542 -0.412362
O14   O     O_2   0.840553 0.718372 0.186349 -0.411201
O15   O     O_2   0.338984 0.782513 0.673594 -0.377554
O16   O     O_2   0.343536 0.222902 0.182910 -0.418961
O17   O     O_3   0.747571 0.466307 0.956325 -0.679301
O18   O     O_3   0.749483 0.531996 0.451940 -0.666786
O19   O     O_3   0.251243 0.971009 0.955092 -0.632785
O20   O     O_3   0.251180 0.030040 0.452201 -0.681403
O21   O     O_3   0.934580 0.191077 0.633492 -0.646184
O22   O     O_3   0.935060 0.811802 0.127161 -0.653506
O23   O     O_3   0.436810 0.689097 0.631733 -0.651413
O24   O     O_3   0.442808 0.313423 0.128303 -0.611915
C1    C     C_3   0.029424 0.105258 0.645276 0.280838
C2    C     C_3   0.010567 0.904860 0.062570 0.098448
C3    C     C_3   0.528987 0.601018 0.627841 0.417656
C4    C     C_3   0.531932 0.401654 0.102976 0.177002
H1    H     H_    0.591922 0.590211 0.643782 0.070276
H2    H     H_    0.594030 0.411046 0.103946 -0.042465
H3    H     H_    0.092739 0.095112 0.667541 0.074465
H4    H     H_    0.034012 0.923435 0.185031 0.089003
H5    H     H_    0.010496 0.089308 0.751928 0.092674
H6    H     H_    0.952700 0.927664 0.014970 0.118641
H7    H     H_    0.512286 0.581973 0.734518 0.056615
H8    H     H_    0.521437 0.423716 0.213644 0.109308
P5    P     P_3+3 0.165830 0.418670 0.685610 1.084048
P6    P     P_3+3 0.165830 0.581330 0.185610 1.103520
P7    P     P_3+3 0.665830 0.918670 0.685610 1.067148
P8    P     P_3+3 0.665830 0.081330 0.185610 1.111065
P9    P     P_3+3 0.107191 0.273318 0.126905 1.095490
P10   P     P_3+3 0.108507 0.725480 0.622901 1.176715
P11   P     P_3+3 0.607148 0.773652 0.125268 1.050815
P12   P     P_3+3 0.608259 0.225369 0.624558 1.135245
O25   O     O_2   0.157990 0.394030 0.856030 -0.423515
O26   O     O_2   0.157990 0.605970 0.356030 -0.403265
O27   O     O_2   0.657990 0.894030 0.856030 -0.423756
O28   O     O_2   0.657990 0.105970 0.356030 -0.389058
O29   O     O_3   0.027110 0.329490 0.059550 -0.480019
O30   O     O_3   0.027110 0.670510 0.559550 -0.430864
O31   O     O_3   0.527110 0.829490 0.059550 -0.495553
O32   O     O_3   0.527110 0.170510 0.559550 -0.435223
O33   O     O_2   0.168697 0.289013 0.030344 -0.400813
O34   O     O_2   0.172031 0.705197 0.534846 -0.380014
O35   O     O_2   0.667813 0.788314 0.026211 -0.394250
O36   O     O_2   0.670600 0.208273 0.530949 -0.374838
O37   O     O_3   0.250300 0.465764 0.732831 -0.660889
O38   O     O_3   0.250616 0.533629 0.230800 -0.672068
O39   O     O_3   0.751150 0.964433 0.733121 -0.689559
O40   O     O_3   0.750072 0.033151 0.232331 -0.680810
O41   O     O_3   0.082392 0.190387 0.064464 -0.605149
O42   O     O_3   0.087191 0.805967 0.543069 -0.584362
O43   O     O_3   0.580615 0.691410 0.063082 -0.608485
O44   O     O_3   0.584366 0.307196 0.556163 -0.637119
C5    C     C_3   0.004098 0.178047 0.061700 0.212641
C6    C     C_3   0.007913 0.819815 0.521516 0.234907
C7    C     C_3   0.501604 0.681488 0.056031 0.275058
C8    C     C_3   0.505095 0.319268 0.540628 0.190181
H9    H     H_    0.968925 0.188089 0.941493 0.083389
H10   H     H_    0.979093 0.810136 0.398184 0.152650
H11   H     H_    0.467689 0.695627 0.937046 0.093319
H12   H     H_    0.474417 0.308656 0.417629 0.133560
H13   H     H_    0.979833 0.210164 0.144468 0.082762
H14   H     H_    0.976000 0.788417 0.590143 0.066088
H15   H     H_    0.478227 0.711902 0.142838 -0.040524
H16   H     H_    0.476749 0.287878 0.616629 0.086796
C9    C     C_3   0.997082 0.103632 0.103016 -0.266227
C10   C     C_3   0.000762 0.893983 0.558220 -0.332665
C11   C     C_3   0.491485 0.606569 0.085845 -0.213805
C12   C     C_3   0.496355 0.393324 0.578971 -0.333380
H17   H     H_    0.479012 0.579858 0.971979 0.115672
H18   H     H_    0.448999 0.400580 0.640889 0.183576
H19   H     H_    0.950897 0.097271 0.168450 0.180068
H20   H     H_    0.951456 0.904773 0.611511 0.135035
H21   H     H_    0.985039 0.072326 0.995175 0.121045
H22   H     H_    0.995773 0.922373 0.447753 0.183261
H23   H     H_    0.544756 0.584190 0.159900 0.209451
H24   H     H_    0.485117 0.422158 0.467763 0.158986
C13   C     C_3   0.245793 0.481721 0.338071 0.540715
C14   C     C_3   0.244503 0.517884 0.839422 0.546132
C15   C     C_3   0.744688 0.981886 0.340806 0.532269
C16   C     C_3   0.746754 0.015099 0.843814 0.538011
H25   H     H_    0.240116 0.503422 0.452921 0.024859
H26   H     H_    0.239503 0.496299 0.954601 0.027176
H27   H     H_    0.736146 0.003914 0.453435 0.029479
H28   H     H_    0.737588 0.992796 0.955445 0.025486
C17   C     C_3   0.321938 0.441672 0.362377 -0.248150
C18   C     C_3   0.319774 0.558382 0.862121 -0.252495
C19   C     C_3   0.822098 0.943432 0.373005 -0.211810
C20   C     C_3   0.824944 0.051627 0.878783 -0.247204
H29   H     H_    0.366410 0.472855 0.437155 0.170160
H30   H     H_    0.364475 0.527719 0.939443 0.165295
H31   H     H_    0.862705 0.974339 0.457236 0.161802
H32   H     H_    0.865703 0.018914 0.961002 0.087137
Ba1   Ba    Ba6+2 0.000000 0.447380 0.844850 1.931643
Ba2   Ba    Ba6+2 1.000000 0.552620 0.344850 1.948994
Ba3   Ba    Ba6+2 0.500000 0.947380 0.844850 1.898279
Ba4   Ba    Ba6+2 0.500000 0.052620 0.344850 1.931775
C21   C     C_3   0.753784 0.522369 0.057212 0.648167
C22   C     C_3   0.756071 0.475499 0.551463 0.665550
C23   C     C_3   0.257463 0.023408 0.066644 0.667790
C24   C     C_3   0.256949 0.976255 0.559489 0.630917
H33   H     H_    0.789874 0.511119 0.176680 0.031703
H34   H     H_    0.791640 0.486417 0.671315 0.023801
H35   H     H_    0.294030 0.008811 0.183503 0.007162
H36   H     H_    0.293009 0.989195 0.677777 0.014595
C25   C     C_3   0.674714 0.543514 0.081965 -0.266882
C26   C     C_3   0.676848 0.455100 0.575146 -0.262842
C27   C     C_3   0.178917 0.041526 0.099194 -0.207268
C28   C     C_3   0.177744 0.959706 0.587306 -0.234331
H37   H     H_    0.632613 0.549170 0.966918 0.157341
H38   H     H_    0.635787 0.447215 0.459582 0.147579
H39   H     H_    0.137419 0.055682 0.988202 0.171140
H40   H     H_    0.136741 0.949421 0.472855 0.153419
H41   H     H_    0.679849 0.593032 0.144427 0.116423
H42   H     H_    0.682326 0.407016 0.643064 0.088109
H43   H     H_    0.185117 0.086100 0.179008 0.087189
H44   H     H_    0.182338 0.913887 0.663055 0.114290
H45   H     H_    0.654083 0.506219 0.158200 0.099785
H46   H     H_    0.654514 0.494405 0.644653 0.105981
H47   H     H_    0.156911 0.998815 0.159956 0.121094
H48   H     H_    0.156799 0.002110 0.650273 0.122069
O45   O     O_3   0.092100 0.536880 0.086720 -0.370357
O46   O     O_3   0.092100 0.463120 0.586720 -0.366440
O47   O     O_3   0.592100 0.036880 0.086720 -0.377684
O48   O     O_3   0.592100 0.963120 0.586720 -0.369308
P13   P     P_3+3 0.896432 0.729816 0.075180 1.132318
P14   P     P_3+3 0.896973 0.271304 0.570773 1.095432
P15   P     P_3+3 0.400731 0.232992 0.073572 1.171096
P16   P     P_3+3 0.398537 0.769732 0.570342 0.988357
C29   C     C_3   0.012550 0.181373 0.619196 0.080564
C30   C     C_3   0.999718 0.827168 0.060296 0.150715
C31   C     C_3   0.513940 0.678272 0.612434 0.158365
C32   C     C_3   0.518251 0.324506 0.097740 0.190875
H49   H     H_    0.444748 0.598715 0.149121 0.169648
H50   H     H_    0.549669 0.412694 0.658364 0.179670
H51   H     H_    0.051361 0.084486 0.179694 0.209580
H52   H     H_    0.052359 0.910552 0.645276 0.212067
C33   C     C_R   0.138073 0.681775 0.939967 -0.160897
C34   C     C_R   0.137639 0.318937 0.441097 -0.189241
C35   C     C_R   0.640653 0.180122 0.938928 -0.141816
C36   C     C_R   0.637329 0.818853 0.440387 -0.278869
C37   C     C_R   0.865184 0.319682 0.254859 -0.101197
C38   C     C_R   0.859480 0.676675 0.761432 -0.072854
C39   C     C_R   0.364091 0.820023 0.255439 -0.210406
C40   C     C_R   0.361050 0.177636 0.761193 -0.087343
C41   C     C_R   0.790728 0.219870 0.302959 -0.098984
C42   C     C_R   0.786701 0.778502 0.806393 -0.094905
C43   C     C_R   0.290324 0.719721 0.302762 -0.025144
C44   C     C_R   0.290430 0.281166 0.804240 -0.041837
C45   C     C_R   0.847888 0.269397 0.357492 0.119025
C46   C     C_R   0.841820 0.727298 0.863881 0.084902
C47   C     C_R   0.348043 0.768831 0.357259 0.015536
C48   C     C_R   0.346270 0.230521 0.861673 0.131989
C49   C     C_R   0.817539 0.331582 0.104797 0.010923
C50   C     C_R   0.815180 0.667229 0.607434 -0.002626
C51   C     C_R   0.316024 0.832298 0.105970 0.046996
C52   C     C_R   0.315499 0.167342 0.608293 -0.020459
C53   C     C_R   0.757357 0.279724 0.048633 -0.012180
C54   C     C_R   0.756287 0.720201 0.549662 0.026526
C55   C     C_R   0.256106 0.780364 0.049257 0.010384
C56   C     C_R   0.257111 0.220635 0.550239 0.023502
C57   C     C_R   0.243294 0.722631 0.149210 -0.051612
C58   C     C_R   0.244186 0.278472 0.649704 0.014555
C59   C     C_R   0.744670 0.222020 0.148582 -0.035738
C60   C     C_R   0.742271 0.777261 0.650301 0.015175
C61   C     C_R   0.183564 0.670222 0.090745 -0.039364
C62   C     C_R   0.183779 0.330513 0.591029 -0.059106
C63   C     C_R   0.685698 0.169101 0.089572 0.007727
C64   C     C_R   0.682817 0.829991 0.591134 -0.028681
C65   C     C_R   0.156148 0.730705 0.836796 0.079678
C66   C     C_R   0.158452 0.271988 0.337089 0.124272
C67   C     C_R   0.658763 0.228730 0.835935 0.075374
C68   C     C_R   0.658353 0.772053 0.335977 0.098142
C69   C     C_R   0.212152 0.780963 0.892462 0.005980
C70   C     C_R   0.215124 0.221591 0.392351 0.029008
C71   C     C_R   0.713561 0.280027 0.891973 -0.077734
C72   C     C_R   0.714656 0.721386 0.391525 0.070365
H53   H     H_    0.282051 0.679534 0.382210 0.112255
H54   H     H_    0.282624 0.322163 0.882415 0.097758
H55   H     H_    0.782177 0.179950 0.382973 0.121601
H56   H     H_    0.778870 0.819226 0.885277 0.092184
H57   H     H_    0.723149 0.318811 0.810947 0.101039
H58   H     H_    0.725302 0.683068 0.309906 0.090001
H59   H     H_    0.222911 0.819010 0.810734 0.105262
H60   H     H_    0.226178 0.183636 0.310393 0.095630
H61   H     H_    0.087452 0.650979 0.899547 0.126786
H62   H     H_    0.085270 0.348329 0.401722 0.118573
H63   H     H_    0.589256 0.150136 0.899820 0.120616
H64   H     H_    0.584917 0.848174 0.401297 0.050800
H65   H     H_    0.912712 0.354206 0.298195 0.091042
H66   H     H_    0.906199 0.641157 0.805929 0.084030
H67   H     H_    0.412108 0.854133 0.298055 0.046209
H68   H     H_    0.407183 0.141620 0.805936 0.087018
C73   C     C_2   0.067869 0.219553 0.744418 0.388592
H69   H     H_    0.047165 0.258833 0.810787 0.100936
O49   O     O_2   0.137036 0.206738 0.773228 -0.563636
C74   C     C_2   0.074157 0.796373 0.157770 0.519973
H70   H     H_    0.129949 0.814854 0.147493 0.048250
O50   O     O_2   0.073739 0.752418 0.255933 -0.528257
C75   C     C_2   0.571217 0.714107 0.739787 0.392418
H71   H     H_    0.553697 0.757487 0.799012 0.096415
O51   O     O_2   0.638725 0.695583 0.777190 -0.546315
C76   C     C_2   0.581646 0.295226 0.226212 0.367633
H72   H     H_    0.623899 0.327926 0.300198 0.073365
O52   O     O_2   0.587657 0.234571 0.250251 -0.526254
C77   C     C_2   0.320961 0.376896 0.449210 0.261804
H73   H     H_    0.318803 0.379525 0.572382 0.060900
O53   O     O_2   0.328857 0.322263 0.388190 -0.601339
C78   C     C_2   0.318001 0.624293 0.944154 0.256791
H74   H     H_    0.317651 0.623176 0.068213 0.046728
O54   O     O_2   0.323357 0.678155 0.878001 -0.591112
C79   C     C_2   0.820609 0.876167 0.450097 0.302018
H75   H     H_    0.820235 0.875284 0.574298 0.013014
O55   O     O_2   0.827115 0.823394 0.380268 -0.589750
C80   C     C_2   0.823180 0.118877 0.956795 0.298067
H76   H     H_    0.823425 0.119821 0.081294 0.044246
O56   O     O_2   0.825108 0.171934 0.884842 -0.585062
C81   C     C_2   0.347494 0.431918 0.210866 0.631255
H77   H     H_    0.322506 0.392930 0.126336 0.082088
O57   O     O_2   0.395206 0.470937 0.180513 -0.568443
C82   C     C_2   0.344751 0.566605 0.709923 0.636815
H78   H     H_    0.320443 0.605856 0.625128 0.087082
O58   O     O_2   0.390289 0.525390 0.678373 -0.560635
C83   C     C_2   0.854802 0.938584 0.228769 0.575188
H79   H     H_    0.830985 0.904052 0.132598 0.053743
O59   O     O_2   0.907152 0.976848 0.217929 -0.601497
C84   C     C_2   0.856193 0.057378 0.733385 0.587939
H80   H     H_    0.835753 0.096394 0.645402 0.114449
O60   O     O_2   0.901609 0.014135 0.710008 -0.587932
N1    N     N_R   0.785771 0.577319 0.982671 0.032314
O61   O     O_R   0.745654 0.599149 0.847499 -0.440929
O62   O     O_R   0.860607 0.583580 0.014774 -0.400865
N2    N     N_R   0.788998 0.420301 0.477115 0.027204
O63   O     O_R   0.745899 0.391787 0.352908 -0.520950
O64   O     O_R   0.863775 0.418951 0.494120 -0.395790
N3    N     N_R   0.288853 0.082041 0.002795 0.029925
O65   O     O_R   0.244458 0.114692 0.886482 -0.431118
O66   O     O_R   0.363342 0.083987 0.016811 -0.398502
N4    N     N_R   0.288546 0.917639 0.493299 0.049831
O67   O     O_R   0.242119 0.875655 0.401674 -0.449941
O68   O     O_R   0.361259 0.919114 0.487857 -0.387452
C85   C     C_2   0.027352 0.201219 0.460722 0.974858
H81   H     H_    0.003929 0.247449 0.401292 -0.735271
O69   O     O_2   0.070569 0.166627 0.401170 -0.643389
C86   C     C_2   0.983155 0.806941 0.889806 0.360949
H82   H     H_    0.943712 0.837859 0.804781 -0.014721
O70   O     O_2   0.002747 0.751598 0.850511 -0.719192
C87   C     C_2   0.527704 0.700639 0.455002 -0.040060
H83   H     H_    0.505317 0.748226 0.401113 0.487475
O71   O     O_2   0.568485 0.666088 0.389160 -0.591776
C88   C     C_2   0.529141 0.302136 0.937617 0.401359
H84   H     H_    0.564717 0.332562 0.877429 -0.023317
O72   O     O_2   0.502893 0.249331 0.876162 -0.706366
N5    N     N_R   0.486798 0.565366 0.486381 0.118231
O73   O     O_R   0.416701 0.584639 0.417704 -0.392559
O74   O     O_R   0.526309 0.529809 0.405244 -0.412855
N6    N     N_R   0.484416 0.435623 0.965018 0.102226
O75   O     O_R   0.414096 0.414816 0.904686 -0.390116
O76   O     O_R   0.519039 0.473694 0.880274 -0.441812
N7    N     N_R   0.989806 0.066610 0.506971 0.111822
O77   O     O_R   0.918671 0.082348 0.437492 -0.398732
O78   O     O_R   0.032062 0.034051 0.426477 -0.405583
N8    N     N_R   0.060912 0.927670 0.960225 0.026519
O79   O     O_R   0.038693 0.977707 0.863677 -0.412349
O80   O     O_R   0.126980 0.898455 0.961190 -0.464728
N9    N     N_R   0.180263 0.438390 0.273976 -0.019562
O81   O     O_R   0.114083 0.450679 0.309363 -0.394997
O82   O     O_R   0.179839 0.408293 0.142139 -0.386826
N10   N     N_R   0.177978 0.560435 0.774727 -0.024733
O83   O     O_R   0.112549 0.547821 0.812218 -0.397558
O84   O     O_R   0.175364 0.586982 0.638459 -0.382060
N11   N     N_R   0.681243 0.937149 0.273408 -0.006556
O85   O     O_R   0.613258 0.948479 0.301672 -0.388090
O86   O     O_R   0.685271 0.905819 0.145173 -0.379544
N12   N     N_R   0.684062 0.061220 0.777205 -0.012522
O87   O     O_R   0.615796 0.050009 0.803604 -0.400843
O88   O     O_R   0.688337 0.091756 0.648218 -0.385110

loop_
_geom_bond_atom_site_label_1
_geom_bond_atom_site_label_2
_geom_bond_distance
_ccdc_geom_bond_type
C1    N7    1.459628 S    
C12   H18   1.098812 S    
C7    H11   1.105644 S    
C18   C82   1.491328 S    
O15   P16   1.545540 D    
C54   C60   1.473003 A    
C6    H14   1.098199 S    
C18   C78   1.479588 S    
C5    H13   1.109206 S    
Ba4   O48   2.929977 S    
C30   C86   1.494913 S    
O21   P14   1.745954 S    
O16   P15   1.545650 D    
O28   Ba4   2.965497 S    
P5    O37   1.727914 S    
C8    H12   1.102759 S    
P3    C51   1.985158 S    
C78   H74   1.077377 S    
C13   N9    1.446243 S    
C36   C64   1.390043 A    
C70   H60   1.076107 S    
N3    O65   1.298165 A    
C55   C57   1.476477 A    
C24   N4    1.449455 S    
P8    O40   1.728807 S    
P1    O17   1.749976 S    
C3    N5    1.463950 S    
C34   C66   1.393350 A    
O30   Ba2   2.941824 S    
P13   C46   1.870299 S    
C77   H73   1.078376 S    
C39   C51   1.401501 A    
P1    O1    1.590107 D    
C14   N10   1.445286 S    
N10   O83   1.293309 A    
N7    O78   1.296174 A    
C16   N12   1.443648 S    
N12   O87   1.296073 A    
P3    O3    1.590107 D    
O4    Ba4   2.952381 S    
O9    P14   1.752049 S    
C1    C29   1.529664 S    
C19   H31   1.088251 S    
P4    O20   1.747505 S    
C57   C61   1.482489 A    
P9    C66   1.844565 S    
N3    O66   1.294105 A    
O43   C7    1.397161 S    
C23   N3    1.443653 S    
C14   H26   1.107133 S    
C19   C79   1.483985 S    
C82   O58   1.211576 D    
C16   H28   1.107599 S    
P7    C64   1.973447 S    
O26   Ba2   2.965497 S    
C82   H78   1.084250 S    
C41   H55   1.080706 S    
O6    Ba1   2.930051 S    
Ba1   O45   2.936315 S    
C85   H81   1.078248 S    
C35   C63   1.385393 A    
P11   O43   1.734908 S    
O22   C30   1.424977 S    
C79   H75   1.078616 S    
C10   H52   1.095357 S    
P10   C65   1.859989 S    
C26   H46   1.103073 S    
O9    Ba1   2.942398 S    
P1    Ba1   3.550654 S    
C42   C46   1.407437 A    
C31   C75   1.497302 S    
P3    O19   1.749456 S    
O32   Ba4   2.941824 S    
C29   C73   1.491631 S    
C22   N2    1.445127 S    
C83   H79   1.084552 S    
P3    Ba3   3.550654 S    
N6    O75   1.302095 A    
C6    H10   1.093345 S    
N4    O68   1.295651 A    
C3    H1    1.108074 S    
C5    H9    1.104686 S    
C72   H58   1.076670 S    
C41   C59   1.402562 A    
O22   P13   1.769418 S    
P4    C52   1.986855 S    
C81   H77   1.083966 S    
P6    O38   1.730995 S    
C7    C11   1.512223 S    
P12   O32   1.783908 S    
P4    O4    1.591584 D    
C28   H40   1.108542 S    
C37   C49   1.401391 A    
P8    O28   1.589396 D    
C56   C58   1.472719 A    
P4    Ba4   3.545787 S    
O10   P13   1.761371 S    
P9    O29   1.781390 S    
C20   C84   1.489681 S    
C77   O53   1.216710 D    
P5    Ba1   3.548199 S    
N5    O73   1.302075 A    
P10   O34   1.542105 D    
P6    O45   1.643380 S    
O2    Ba2   2.952381 S    
Ba4   O47   3.061584 S    
P2    O2    1.591584 D    
P7    Ba3   3.548199 S    
C35   H63   1.073269 S    
P5    O25   1.590871 D    
C39   H67   1.080900 S    
C34   H62   1.076318 S    
C28   H44   1.106451 S    
C15   C19   1.528301 S    
Ba3   O48   3.063694 S    
P12   O36   1.542396 D    
C33   H61   1.073134 S    
C36   C68   1.395392 A    
P6    C61   1.986220 S    
C17   H29   1.089702 S    
C43   C57   1.403581 A    
C73   H69   1.072431 S    
C2    N8    1.461623 S    
C23   C27   1.516489 S    
N2    O64   1.295350 A    
C28   H48   1.102039 S    
P16   C47   1.863112 S    
C29   C85   1.507156 S    
C38   H66   1.080824 S    
C59   C63   1.481878 A    
O11   Ba3   2.942398 S    
C87   H83   1.078128 S    
O12   P15   1.753477 S    
C37   H65   1.080958 S    
P12   C67   1.851243 S    
O17   C21   1.394593 S    
Ba1   Ba2   4.805022 S    
C37   C45   1.409549 A    
C84   O60   1.212781 D    
C35   C67   1.394112 A    
N5    O74   1.297322 A    
C3    C31   1.539503 S    
O37   C14   1.396835 S    
C38   C50   1.400798 A    
O41   C5    1.399457 S    
N9    O81   1.294371 A    
C9    H51   1.101605 S    
C51   C55   1.475441 A    
O39   C16   1.395476 S    
C53   C71   1.404533 A    
C7    H15   1.108723 S    
C24   H36   1.109212 S    
C27   H47   1.108030 S    
O13   P14   1.545075 D    
C85   O69   1.216909 D    
C4    H2    1.110824 S    
C26   H38   1.108598 S    
C43   C47   1.408642 A    
C75   H71   1.073555 S    
C25   H37   1.107856 S    
N4    O67   1.302256 A    
N9    O82   1.284797 A    
C40   H68   1.080577 S    
N6    O76   1.295889 A    
C56   C70   1.403409 A    
N11   O85   1.295905 A    
C22   H34   1.108506 S    
Ba2   O46   2.929977 S    
O44   C8    1.394849 S    
P9    O33   1.544778 D    
C27   H43   1.105658 S    
P10   O30   1.786579 S    
O38   C13   1.396355 S    
N11   O86   1.285804 A    
C84   H80   1.083778 S    
C40   C52   1.403110 A    
P1    O5    1.637740 S    
P7    O48   1.637832 S    
C83   O59   1.213813 D    
O24   P15   1.767130 S    
C9    H19   1.100380 S    
C20   C80   1.486295 S    
P12   O44   1.730551 S    
Ba3   O47   2.936315 S    
C80   O56   1.219466 D    
C81   O57   1.213194 D    
P8    C63   1.981585 S    
C33   C65   1.399305 A    
P5    O46   1.637832 S    
C8    C12   1.506118 S    
C88   O72   1.210958 D    
C67   C71   1.408626 A    
P6    O26   1.589396 D    
C5    C9    1.517063 S    
C21   H33   1.109710 S    
P8    Ba4   3.553175 S    
C44   C48   1.407380 A    
C86   O70   1.210327 D    
C79   O55   1.217399 D    
N7    O77   1.301388 A    
C33   C61   1.390848 A    
O20   C24   1.396430 S    
P8    O47   1.643380 S    
C32   C88   1.508300 S    
N1    O62   1.294260 A    
C17   C81   1.493422 S    
C15   N11   1.443230 S    
N8    O80   1.295776 A    
P5    C62   1.969011 S    
C4    N6    1.458322 S    
P4    O8    1.632255 S    
C13   C17   1.527584 S    
O8    Ba3   2.930051 S    
P2    O6    1.632255 S    
C13   H25   1.107553 S    
C27   H39   1.105962 S    
C20   H32   1.097987 S    
C4    H8    1.104869 S    
C44   C58   1.405419 A    
N2    O63   1.299223 A    
O12   Ba4   2.942274 S    
N12   O88   1.286839 A    
P11   O31   1.774722 S    
C50   C54   1.473597 A    
O29   Ba1   2.941708 S    
O5    Ba2   2.936387 S    
O10   Ba2   2.942274 S    
C16   C20   1.527597 S    
P2    Ba2   3.545787 S    
O27   Ba3   2.956125 S    
C24   C28   1.508298 S    
Ba3   Ba4   4.805022 S    
O31   Ba3   2.941708 S    
O7    Ba4   2.936387 S    
P2    C50   1.982802 S    
O24   C32   1.432771 S    
C42   C60   1.404428 A    
Ba2   O45   3.061584 S    
C71   H57   1.076105 S    
O40   C15   1.396489 S    
C25   H41   1.106568 S    
C86   H82   1.078940 S    
C78   O54   1.217849 D    
C69   H59   1.076706 S    
C55   C69   1.406484 A    
C30   C74   1.517683 S    
C21   N1    1.439389 S    
P10   O42   1.731635 S    
C65   C69   1.406740 A    
C4    C32   1.534107 S    
O23   P16   1.754243 S    
O3    Ba3   2.961660 S    
C11   H23   1.102833 S    
C1    H3    1.108093 S    
C23   H35   1.109782 S    
C10   H22   1.094989 S    
C2    H4    1.111570 S    
C76   O52   1.209369 D    
C68   C72   1.409635 A    
C2    C30   1.537921 S    
N10   O84   1.283275 A    
P6    Ba2   3.553175 S    
O25   Ba1   2.956125 S    
C9    H21   1.099219 S    
C80   H76   1.078718 S    
C8    H16   1.102868 S    
O23   C31   1.423668 S    
C87   O71   1.217845 D    
P2    O18   1.749808 S    
P14   C45   1.858737 S    
P9    O41   1.742107 S    
C49   C53   1.476611 A    
P7    O27   1.590871 D    
C76   H72   1.081469 S    
O42   C6    1.395463 S    
O1    Ba1   2.961660 S    
C43   H53   1.079829 S    
C10   H20   1.092884 S    
C34   C62   1.390024 A    
P1    C49   1.985553 S    
C73   O49   1.215570 D    
O19   C23   1.399072 S    
C39   C47   1.409603 A    
C18   H30   1.092832 S    
C15   H27   1.108119 S    
C40   C48   1.415121 A    
C17   C77   1.480941 S    
C11   H17   1.095850 S    
C6    C10   1.501057 S    
C32   C76   1.503715 S    
P15   C48   1.873980 S    
C75   O51   1.216990 D    
P3    O7    1.637740 S    
C88   H84   1.083969 S    
C74   O50   1.214105 D    
P11   O35   1.543851 D    
O11   P16   1.753897 S    
C22   C26   1.514356 S    
C38   C46   1.411872 A    
C52   C56   1.472947 A    
O18   C22   1.394610 S    
C21   C25   1.515193 S    
C74   H70   1.073663 S    
C14   C18   1.526347 S    
P11   C68   1.848380 S    
C19   C83   1.493085 S    
P7    O39   1.726386 S    
C44   H54   1.079790 S    
C1    H5    1.097771 S    
C3    H7    1.098401 S    
C53   C59   1.475393 A    
N8    O79   1.292740 A    
Ba1   O46   3.063694 S    
O21   C29   1.421474 S    
C66   C70   1.409563 A    
C12   H24   1.097400 S    
C2    H6    1.105369 S    
C25   H45   1.103396 S    
C42   H56   1.079980 S    
N1    O61   1.298318 A    
C31   C87   1.505491 S    
C58   C62   1.479263 A    
C26   H42   1.105665 S    
C36   H64   1.075871 S    
C41   C45   1.407931 A    
C60   C64   1.478748 A    
O14   P13   1.543256 D    
C54   C72   1.403392 A    
C11   H49   1.099973 S    
C12   H50   1.103245 S    
