data_mof_unit_8120.cif
_audit_creation_date              2012-12-10T17:42:44-0500
_audit_creation_method            fapswitch 2.2
_symmetry_space_group_name_H-M    P1
_symmetry_Int_Tables_number       1
_space_group_crystal_system       triclinic
_cell_length_a                    9.927595
_cell_length_b                    10.616949
_cell_length_c                    13.026923
_cell_angle_alpha                 91.366873
_cell_angle_beta                  69.893795
_cell_angle_gamma                 89.781856
_cell_volume                      1288.89777315

loop_
_atom_site_label
_atom_site_type_symbol
_atom_type_description
_atom_site_fract_x
_atom_site_fract_y
_atom_site_fract_z
_atom_type_partial_charge
C1    C     C_R   0.501027 0.739275 0.497126 0.849214
C2    C     C_R   0.367613 0.471597 0.823177 -0.144824
C3    C     C_R   0.466452 0.864075 0.311400 -0.222730
C4    C     C_R   0.420034 0.492246 0.704542 0.903383
C5    C     C_R   0.450035 0.927419 0.223755 -0.248205
C6    C     C_R   0.451833 0.059549 0.222760 0.509005
C7    C     C_R   0.469634 0.126628 0.310637 -0.188700
C8    C     C_R   0.484991 0.063469 0.400543 0.007549
C9    C     C_R   0.483735 0.931567 0.400846 0.094672
C10   C     C_R   0.504118 0.871455 0.489982 -0.061657
C11   C     C_R   0.530470 0.937732 0.574327 -0.185763
C12   C     C_R   0.427469 0.440160 0.986377 -0.045480
C13   C     C_R   0.531215 0.066366 0.574187 -0.180986
C14   C     C_R   0.505793 0.128156 0.489625 -0.054110
C15   C     C_R   0.797522 0.668381 0.641018 -0.160584
C16   C     C_R   0.501567 0.260626 0.497176 0.853654
C17   C     C_R   0.836391 0.749988 0.710852 -0.334718
C18   C     C_R   0.976367 0.748576 0.711971 0.477019
C19   C     C_R   0.076442 0.664862 0.642049 -0.058215
C20   C     C_R   0.040854 0.581850 0.569704 0.046021
C21   C     C_R   0.896696 0.582545 0.569445 0.083697
C22   C     C_R   0.958197 0.420400 0.433201 0.516250
C23   C     C_R   0.461939 0.421992 0.873208 -0.082157
C24   C     C_R   0.101977 0.420622 0.433972 -0.158047
C25   C     C_R   0.580017 0.498277 0.295238 0.840752
C26   C     C_R   0.782009 0.366696 0.013694 -0.141317
C27   C     C_R   0.628308 0.475828 0.177366 -0.063284
C28   C     C_R   0.227090 0.510080 0.888732 0.375406
C29   C     C_R   0.184507 0.501440 0.002510 -0.261113
C30   C     C_R   0.281737 0.465431 0.052039 0.421066
C31   C     C_R   0.540852 0.435217 0.028324 0.050397
C32   C     C_R   0.673863 0.376986 0.966882 0.155679
C33   C     C_R   0.695513 0.331121 0.860517 0.411120
C34   C     C_R   0.590102 0.355530 0.813876 -0.264298
C35   C     C_R   0.527658 0.495613 0.127124 -0.244497
C36   C     C_R   0.757443 0.412739 0.120095 -0.225356
H1    H     H_    0.467593 0.762276 0.307368 0.162321
H2    H     H_    0.437356 0.873245 0.156229 0.141317
H3    H     H_    0.427103 0.065020 0.081422 0.332043
H4    H     H_    0.002588 0.287869 0.320967 0.327956
H5    H     H_    0.935857 0.880420 0.824836 0.342005
H6    H     H_    0.180889 0.666248 0.647629 0.232562
H7    H     H_    0.820630 0.244751 0.728319 0.336034
H8    H     H_    0.883607 0.320367 0.969706 0.201592
H9    H     H_    0.039297 0.575713 0.898108 0.344352
H10   H     H_    0.285894 0.378468 0.179420 0.353706
H11   H     H_    0.074743 0.523018 0.053438 0.168056
H12   H     H_    0.473592 0.228234 0.306565 0.159189
H13   H     H_    0.547596 0.889600 0.641428 0.138694
H14   H     H_    0.548567 0.118082 0.641282 0.136049
H15   H     H_    0.688671 0.676053 0.646075 0.216164
H16   H     H_    0.756575 0.814257 0.764445 0.151706
H17   H     H_    0.181307 0.355792 0.380965 0.152345
H18   H     H_    0.435040 0.554939 0.168572 0.194324
H19   H     H_    0.608173 0.319825 0.731784 0.163139
H20   H     H_    0.836614 0.395693 0.158428 0.197115
N1    N     N_R   0.856860 0.501200 0.500990 -0.126859
N2    N     N_R   0.142450 0.501280 0.501020 -0.121687
O1    O     O_R   0.385310 0.683220 0.500000 -0.638478
O2    O     O_3   0.918133 0.339678 0.364694 -0.730157
O3    O     O_3   0.018936 0.827375 0.780574 -0.749316
O4    O     O_3   0.821892 0.268313 0.802109 -0.770227
O5    O     O_3   0.132418 0.553721 0.840616 -0.739760
O6    O     O_3   0.227280 0.445541 0.162883 -0.782562
O7    O     O_R   0.614640 0.683250 0.500010 -0.631496
O8    O     O_R   0.328400 0.499950 0.653610 -0.563369
O9    O     O_R   0.557730 0.499970 0.653620 -0.654649
O10   O     O_R   0.385360 0.316750 0.499990 -0.616421
O11   O     O_R   0.614690 0.316780 0.500000 -0.575247
O12   O     O_R   0.442270 0.500030 0.346380 -0.620375
O13   O     O_R   0.671600 0.500050 0.346390 -0.560934
O14   O     O_3   0.438006 0.125740 0.136994 -0.788591
Zn1   Zn    Zn3+2 0.346880 0.499980 0.499990 0.967769
Zn2   Zn    Zn3+2 0.653120 0.500020 0.500010 0.982849

loop_
_geom_bond_atom_site_label_1
_geom_bond_atom_site_label_2
_ccdc_geom_bond_type
C26   C32   A    
H4    O2    S    
C30   O6    S    
C19   C20   A    
H5    O3    S    
C22   N1    A    
C26   H8    S    
C7    C8    A    
C6    O14   S    
C12   C23   A    
C29   H11   S    
C11   H13   S    
C28   C29   A    
C1    O1    A    
C22   O2    S    
C5    C6    A    
C18   C19   A    
C8    C9    A    
C1    O7    A    
H3    O14   S    
C16   O10   A    
C15   H15   S    
C9    C10   A    
O1    Zn1   S    
C19   H6    S    
C34   H19   S    
C13   C14   A    
C35   H18   S    
C17   H16   S    
C33   C34   A    
C1    C10   S    
C33   O4    S    
C27   C35   A    
C24   H17   S    
O8    Zn1   S    
H9    O5    S    
O7    Zn2   S    
H10   O6    S    
N1    Zn2   S    
C2    C4    S    
C21   N1    A    
C29   C30   A    
C3    C9    A    
C4    O9    A    
C31   C32   A    
C23   C34   A    
O12   Zn1   S    
C17   C18   A    
O11   Zn2   S    
O9    Zn2   S    
C25   O13   A    
C26   C36   A    
C12   C31   A    
C14   C16   S    
C20   N2    A    
C15   C17   A    
C8    C14   A    
C12   C30   A    
C16   O11   A    
C3    C5    A    
H7    O4    S    
O13   Zn2   S    
C18   O3    S    
C6    C7    A    
C27   C36   A    
C25   C27   S    
C32   C33   A    
O10   Zn1   S    
C7    H12   S    
C4    O8    A    
C11   C13   A    
C31   C35   A    
C36   H20   S    
C22   C24   A    
C10   C11   A    
C13   H14   S    
C28   O5    S    
C15   C21   A    
C20   C21   A    
C3    H1    S    
C24   N2    A    
C2    C23   A    
C2    C28   A    
C25   O12   A    
C5    H2    S    
N2    Zn1   S    
