data_mof_unit_25729.cif
_audit_creation_date              2012-12-11T17:33:29-0500
_audit_creation_method            fapswitch 2.2
_symmetry_space_group_name_H-M    P1
_symmetry_Int_Tables_number       1
_space_group_crystal_system       triclinic
_cell_length_a                    6.930567
_cell_length_b                    21.796729
_cell_length_c                    22.222393
_cell_angle_alpha                 107.495755
_cell_angle_beta                  90.522373
_cell_angle_gamma                 90.320285
_cell_volume                      3201.44422438

loop_
_atom_site_label
_atom_site_type_symbol
_atom_type_description
_atom_site_fract_x
_atom_site_fract_y
_atom_site_fract_z
_atom_type_partial_charge
O1    O     O_R   0.505730 0.449200 0.552060 -0.539068
O2    O     O_R   0.171560 0.427840 0.423150 -0.545841
O3    O     O_R   0.005630 0.550800 0.447940 -0.541201
C1    C     C_R   0.338483 0.409298 0.398802 0.690106
O4    O     O_R   0.175730 0.441570 0.550050 -0.521750
O5    O     O_R   0.009820 0.564620 0.575740 -0.534187
C2    C     C_R   0.345215 0.430032 0.570257 0.690810
O6    O     O_R   0.501530 0.435380 0.424260 -0.539726
O7    O     O_3   0.340640 0.540360 0.508280 -0.368370
V1    V     V_3+5 0.064080 0.492510 0.498460 1.452856
O8    O     O_R   0.680360 0.572160 0.576850 -0.543523
C3    C     C_R   0.848706 0.589560 0.601570 0.735439
O9    O     O_R   0.676190 0.558430 0.449950 -0.541663
C4    C     C_R   0.844868 0.571886 0.431500 0.690034
V2    V     V_3+5 0.564610 0.507490 0.501540 1.436060
O10   O     O_3   0.837920 0.459640 0.491720 -0.363285
C5    C     C_R   0.095819 0.822135 0.170503 -0.124237
H1    H     H_    0.227138 0.804057 0.185568 0.107973
C6    C     C_R   0.107699 0.861216 0.130584 -0.156092
H2    H     H_    0.248643 0.872400 0.115846 0.123304
C7    C     C_R   0.939599 0.885684 0.110264 -0.056708
C8    C     C_R   0.759617 0.869671 0.130919 -0.148399
H3    H     H_    0.626950 0.887467 0.116485 0.123862
C9    C     C_R   0.748189 0.830643 0.170762 -0.126893
H4    H     H_    0.608010 0.819271 0.185995 0.106301
C10   C     C_R   0.916024 0.806712 0.190903 0.127679
C11   C     C_1   0.903250 0.766655 0.232546 -0.048948
C12   C     C_1   0.891920 0.733250 0.267372 -0.049637
C13   C     C_R   0.047050 0.669101 0.328976 -0.127344
H5    H     H_    0.187163 0.680317 0.313572 0.106817
C14   C     C_R   0.035710 0.630108 0.368854 -0.155777
H6    H     H_    0.168378 0.612170 0.383129 0.122259
C15   C     C_R   0.855819 0.614305 0.389742 -0.055167
C16   C     C_R   0.687710 0.638921 0.369588 -0.157575
H7    H     H_    0.546828 0.627889 0.384494 0.121337
C17   C     C_R   0.699501 0.677969 0.329634 -0.125563
H8    H     H_    0.568180 0.696175 0.314713 0.107335
C18   C     C_R   0.879213 0.693202 0.309023 0.128224
C19   C     C_R   0.848409 0.643154 0.661534 -0.087986
C20   C     C_R   0.943054 0.854202 0.839540 -0.124196
C21   C     C_R   0.125222 0.793697 0.746417 -0.013905
C22   C     C_R   0.104941 0.846461 0.800428 -0.239891
C23   C     C_R   0.794573 0.807071 0.823764 -0.082623
C24   C     C_R   0.813466 0.752451 0.769434 0.101184
C25   C     C_R   0.981232 0.744760 0.731089 0.120476
C26   C     C_R   0.999293 0.688328 0.678838 -0.185876
C27   C     C_R   0.682907 0.652425 0.698894 -0.142257
C28   C     C_R   0.666139 0.705486 0.751950 -0.134652
H9    H     H_    0.127028 0.679263 0.650234 0.172301
H10   H     H_    0.563318 0.618569 0.686680 0.120258
H11   H     H_    0.217668 0.883010 0.811801 0.114135
C29   C     C_R   0.336732 0.353538 0.339639 -0.068401
C30   C     C_R   0.458946 0.146590 0.160279 -0.069935
C31   C     C_R   0.641450 0.215906 0.250426 -0.198503
C32   C     C_R   0.629404 0.161667 0.197178 -0.163451
C33   C     C_R   0.299022 0.187366 0.178638 -0.232620
C34   C     C_R   0.311423 0.242790 0.231887 0.158633
C35   C     C_R   0.484267 0.257347 0.268022 0.159505
C36   C     C_R   0.496663 0.312767 0.321275 -0.234926
C37   C     C_R   0.166279 0.338465 0.302738 -0.163186
C38   C     C_R   0.154239 0.284231 0.249485 -0.195804
H12   H     H_    0.628661 0.323173 0.349160 0.122442
H13   H     H_    0.774535 0.225589 0.277705 0.121743
H14   H     H_    0.021153 0.274548 0.222206 0.124981
H15   H     H_    0.755176 0.131373 0.184751 0.127784
H16   H     H_    0.167016 0.176954 0.150757 0.124348
C39   C     C_R   0.590694 0.177123 0.828724 -0.106320
H17   H     H_    0.721109 0.196040 0.814133 0.120724
C40   C     C_R   0.604790 0.138452 0.868968 -0.171529
H18   H     H_    0.746443 0.128242 0.884342 0.120448
C41   C     C_R   0.437759 0.113359 0.888985 -0.056018
C42   C     C_R   0.256664 0.128041 0.867481 -0.159668
H19   H     H_    0.124726 0.109642 0.881603 0.121632
C43   C     C_R   0.243048 0.166625 0.827297 -0.133803
H20   H     H_    0.102090 0.177236 0.811634 0.109302
C44   C     C_R   0.409783 0.191346 0.807640 0.121473
C45   C     C_1   0.395097 0.232087 0.766814 -0.014164
C46   C     C_1   0.385271 0.267070 0.733529 0.033423
C47   C     C_R   0.526824 0.356787 0.698406 -0.011147
C48   C     C_R   0.516324 0.396996 0.658254 -0.084996
C49   C     C_R   0.358583 0.390482 0.614961 -0.113995
C50   C     C_R   0.213484 0.344886 0.613664 -0.107746
H21   H     H_    0.092109 0.338904 0.581298 0.144985
C51   C     C_R   0.223820 0.305500 0.652898 -0.178148
C52   C     C_R   0.379014 0.310477 0.694882 0.080876
O11   O     O_R   0.294110 0.064720 0.075690 -0.538372
O12   O     O_R   0.619980 0.058360 0.949870 -0.541957
O13   O     O_R   0.785810 0.935300 0.924300 -0.548644
C53   C     C_R   0.450540 0.071548 0.931221 0.686875
O14   O     O_R   0.624080 0.072230 0.076800 -0.542114
O15   O     O_R   0.789930 0.949270 0.052130 -0.536993
C54   C     C_R   0.457166 0.090800 0.101140 0.699729
O16   O     O_R   0.289980 0.050750 0.947860 -0.540959
O17   O     O_3   0.454970 0.959660 0.991750 -0.365197
V3    V     V_3+5 0.731560 0.007480 0.001530 1.406458
O18   O     O_R   0.119360 0.941610 0.050140 -0.539191
C55   C     C_R   0.950645 0.928146 0.068555 0.705278
O19   O     O_R   0.115260 0.927740 0.923220 -0.536684
C56   C     C_R   0.946159 0.909256 0.899066 0.718209
V4    V     V_3+5 0.231020 0.992470 0.998490 1.417671
O20   O     O_3   0.957740 0.040330 0.008250 -0.369698
C57   C     C_2   0.298809 0.793892 0.707730 0.347908
H22   H     H_    0.431143 0.816512 0.730639 0.041294
O21   O     O_2   0.293576 0.773243 0.650247 -0.525904
H23   H     H_    0.533273 0.709872 0.777976 0.150730
C58   C     C_2   0.624852 0.813661 0.865387 0.350731
H24   H     H_    0.532048 0.855188 0.873553 0.066564
O22   O     O_2   0.589619 0.773008 0.891488 -0.514643
H25   H     H_    0.040500 0.368755 0.315171 0.128534
C59   C     C_2   0.688551 0.364747 0.745085 0.362409
H26   H     H_    0.831240 0.379025 0.734807 0.117253
O23   O     O_2   0.663575 0.356455 0.796407 -0.517852
C60   C     C_2   0.658718 0.449988 0.665412 0.363939
H27   H     H_    0.608188 0.498530 0.671836 0.040771
O24   O     O_2   0.831527 0.439468 0.660710 -0.548663
H28   H     H_    0.109912 0.270458 0.650126 0.118168

loop_
_geom_bond_atom_site_label_1
_geom_bond_atom_site_label_2
_ccdc_geom_bond_type
C21   C22   A    
C6    H2    S    
C1    O6    A    
C4    C15   S    
C49   C50   A    
O14   V3    S    
C45   C46   T    
C21   C57   S    
C26   H9    S    
C10   C11   S    
C43   C44   A    
C1    C29   S    
C5    C10   A    
C17   H8    S    
C6    C7    A    
C9    C10   A    
O5    C3    A    
C31   H13   S    
V2    O10   S    
C33   C34   A    
C16   H7    S    
C40   C41   A    
C59   H26   S    
C37   H25   S    
C29   C37   A    
O8    V2    S    
C51   C52   A    
C20   C23   A    
C27   C28   A    
O12   V3    S    
C13   C18   A    
C14   C15   A    
O1    V2    S    
C12   C18   S    
O11   V4    S    
O7    V1    S    
C22   H11   S    
C20   C22   A    
O13   V3    S    
C51   H28   S    
O9    C4    A    
C40   H18   S    
C20   C56   S    
C32   H15   S    
C15   C16   A    
C27   H10   S    
C30   C32   A    
C43   H20   S    
C39   H17   S    
C9    H4    S    
C42   C43   A    
O4    C2    A    
C48   C49   A    
C35   C36   A    
C25   C26   A    
O15   C55   A    
C37   C38   A    
C39   C40   A    
C23   C58   S    
C38   H14   S    
O2    C1    A    
C23   C24   A    
C13   H5    S    
C29   C36   A    
C7    C55   S    
O14   C54   A    
C28   H23   S    
C41   C53   S    
O17   V4    S    
O18   C55   A    
C30   C54   S    
C5    H1    S    
O17   V3    S    
C44   C45   S    
C57   O21   D    
O16   V4    S    
O3    C4    A    
C19   C26   A    
C46   C52   S    
C2    C49   S    
C50   H21   S    
O6    V2    S    
O19   V4    S    
O9    V2    S    
C8    C9    A    
O2    V1    S    
C47   C52   A    
C24   C25   A    
C19   C27   A    
C60   H27   S    
C31   C35   A    
C30   C33   A    
C31   C32   A    
C36   H12   S    
C47   C59   S    
O1    C2    A    
C14   H6    S    
C42   H19   S    
O5    V1    S    
O8    C3    A    
C34   C38   A    
C50   C51   A    
C3    C19   S    
C17   C18   A    
O7    V2    S    
C41   C42   A    
C13   C14   A    
O3    V1    S    
V1    O10   S    
C34   C35   A    
C58   O22   D    
C33   H16   S    
O18   V4    S    
V4    O20   S    
C5    C6    A    
C16   C17   A    
C53   O16   A    
C57   H22   S    
C59   O23   D    
O13   C56   A    
O15   V3    S    
C47   C48   A    
C24   C28   A    
O4    V1    S    
C48   C60   S    
O19   C56   A    
C58   H24   S    
C11   C12   T    
O12   C53   A    
C21   C25   A    
C8    H3    S    
O11   C54   A    
C39   C44   A    
C7    C8    A    
V3    O20   S    
C60   O24   D    
