data_mof_unit_24083.cif
_audit_creation_date              2012-12-11T17:12:53-0500
_audit_creation_method            fapswitch 2.2
_symmetry_space_group_name_H-M    P1
_symmetry_Int_Tables_number       1
_space_group_crystal_system       triclinic
_cell_length_a                    17.193646
_cell_length_b                    6.879392
_cell_length_c                    14.428372
_cell_angle_alpha                 89.999945
_cell_angle_beta                  110.049737
_cell_angle_gamma                 90.000053
_cell_volume                      1603.18552564

loop_
_atom_site_label
_atom_site_type_symbol
_atom_type_description
_atom_site_fract_x
_atom_site_fract_y
_atom_site_fract_z
_atom_type_partial_charge
O1    O     O_R   0.314130 0.635770 0.168990 -0.542245
O2    O     O_R   0.685870 0.364230 0.831010 -0.542245
O3    O     O_R   0.185870 0.135770 0.331010 -0.542245
O4    O     O_R   0.814130 0.864230 0.668990 -0.542244
O5    O     O_R   0.146800 0.302460 0.139760 -0.536104
O6    O     O_R   0.853200 0.697540 0.860240 -0.536104
O7    O     O_R   0.353200 0.802460 0.360240 -0.536104
O8    O     O_R   0.646800 0.197540 0.639760 -0.536104
C1    C     C_R   0.113988 0.475868 0.112773 0.727503
C2    C     C_R   0.886012 0.524131 0.887227 0.727503
C3    C     C_R   0.386012 0.975868 0.387227 0.727503
C4    C     C_R   0.613988 0.024132 0.612773 0.727502
O9    O     O_R   0.311100 0.305780 0.157130 -0.542792
O10   O     O_R   0.688900 0.694220 0.842870 -0.542792
O11   O     O_R   0.188900 0.805780 0.342870 -0.542792
O12   O     O_R   0.811100 0.194220 0.657130 -0.542791
O13   O     O_R   0.351340 0.139640 0.348510 -0.536694
O14   O     O_R   0.648660 0.860360 0.651490 -0.536694
O15   O     O_R   0.148660 0.639640 0.151490 -0.536694
O16   O     O_R   0.851340 0.360360 0.848510 -0.536694
C5    C     C_R   0.332823 0.476448 0.135628 0.709447
C6    C     C_R   0.667177 0.523552 0.864372 0.709447
C7    C     C_R   0.167177 0.976447 0.364372 0.709447
C8    C     C_R   0.832823 0.023552 0.635628 0.709447
C9    C     C_1   0.533569 0.008869 0.533045 -0.172693
C10   C     C_1   0.466431 0.991131 0.466955 -0.172693
C11   C     C_1   0.966431 0.508869 0.966955 -0.172692
C12   C     C_1   0.033569 0.491131 0.033045 -0.172692
O17   O     O_3   0.263010 0.470920 0.312770 -0.368841
O18   O     O_3   0.736990 0.529080 0.687230 -0.368841
O19   O     O_3   0.236990 0.970920 0.187230 -0.368842
O20   O     O_3   0.763010 0.029080 0.812770 -0.368842
V1    V     V_3+5 0.247590 0.194450 0.238360 1.443345
V2    V     V_3+5 0.752410 0.805550 0.761640 1.443345
V3    V     V_3+5 0.252410 0.694450 0.261640 1.443345
V4    V     V_3+5 0.747590 0.305550 0.738360 1.443345
C13   C     C_R   0.116726 0.998897 0.428802 -0.074277
C14   C     C_R   0.883274 0.001103 0.571198 -0.074277
C15   C     C_R   0.383275 0.498898 0.071198 -0.074278
C16   C     C_R   0.616725 0.501102 0.928802 -0.074278
C17   C     C_R   0.927975 0.788171 0.463470 -0.026554
C18   C     C_R   0.072025 0.211829 0.536530 -0.026554
C19   C     C_R   0.572022 0.288164 0.036526 -0.026550
C20   C     C_R   0.427978 0.711836 0.963474 -0.026550
C21   C     C_R   0.873419 0.832573 0.513292 -0.181618
C22   C     C_R   0.126581 0.167427 0.486708 -0.181618
C23   C     C_R   0.626579 0.332567 0.986704 -0.181617
C24   C     C_R   0.373421 0.667433 0.013296 -0.181617
C25   C     C_R   0.947887 0.129343 0.576975 -0.206628
C26   C     C_R   0.052113 0.870657 0.423025 -0.206628
C27   C     C_R   0.552115 0.629346 0.923028 -0.206625
C28   C     C_R   0.447885 0.370654 0.076972 -0.206625
C29   C     C_R   0.004862 0.086685 0.528528 0.116182
C30   C     C_R   0.995138 0.913315 0.471472 0.116182
C31   C     C_R   0.495139 0.586687 0.971474 0.116184
C32   C     C_R   0.504861 0.413313 0.028526 0.116184
H1    H     H_    0.044513 0.742557 0.377116 0.127256
H2    H     H_    0.955487 0.257443 0.622884 0.127256
H3    H     H_    0.455483 0.242549 0.122879 0.127256
H4    H     H_    0.544517 0.757451 0.877121 0.127256
H5    H     H_    0.176491 0.267790 0.491476 0.132284
H6    H     H_    0.823508 0.732210 0.508524 0.132284
H7    H     H_    0.323512 0.767799 0.008529 0.132285
H8    H     H_    0.676487 0.232201 0.991471 0.132285
C33   C     C_1   0.914182 0.610567 0.406462 0.282580
N1    N     N_1   0.903117 0.468367 0.360903 -0.350153
C34   C     C_1   0.085817 0.389433 0.593538 0.282580
N2    N     N_1   0.096882 0.531633 0.639097 -0.350153
C35   C     C_1   0.585812 0.110556 0.093530 0.282577
N3    N     N_1   0.596875 0.968352 0.139087 -0.350155
C36   C     C_1   0.414188 0.889444 0.906470 0.282577
N4    N     N_1   0.403125 0.031648 0.860913 -0.350155

loop_
_geom_bond_atom_site_label_1
_geom_bond_atom_site_label_2
_ccdc_geom_bond_type
C2    C11   S    
C16   C23   A    
C31   C32   A    
O1    C5    A    
O3    C7    A    
C14   C25   A    
C29   C30   A    
O7    C3    A    
C26   C30   A    
O20   V4    S    
C18   C29   A    
O8    V4    S    
O4    C8    A    
O3    V1    S    
O17   V1    S    
C21   H6    S    
C20   C36   S    
C18   C22   A    
C14   C21   A    
C1    O15   A    
C2    O16   A    
O5    V1    S    
O2    C6    A    
C8    C14   S    
O19   V1    S    
O11   C7    A    
C15   C28   A    
O12   C8    A    
O9    V1    S    
O13   V1    S    
O11   V3    S    
O4    V2    S    
O18   V2    S    
C22   H5    S    
C34   N2    T    
C23   H8    S    
C24   H7    S    
C17   C33   S    
C3    C10   S    
C9    C10   T    
C7    C13   S    
C25   H2    S    
O6    V2    S    
O20   V2    S    
O5    C1    A    
C28   H3    S    
C5    C15   S    
O8    C4    A    
C6    C16   S    
O9    C5    A    
O14   V2    S    
C18   C34   S    
O19   V3    S    
O1    V3    S    
O2    V4    S    
C3    O13   A    
C26   H1    S    
O7    V3    S    
O10   V2    S    
C16   C27   A    
O17   V3    S    
O18   V4    S    
C4    C9    S    
O10   C6    A    
C36   N4    T    
O15   V3    S    
O12   V4    S    
C13   C26   A    
C20   C31   A    
C25   C29   A    
C27   C31   A    
C35   N3    T    
C17   C30   A    
O6    C2    A    
O16   V4    S    
C20   C24   A    
C19   C32   A    
C19   C35   S    
C33   N1    T    
C4    O14   A    
C11   C12   T    
C17   C21   A    
C27   H4    S    
C13   C22   A    
C19   C23   A    
C28   C32   A    
C1    C12   S    
C15   C24   A    
