data_mof_unit_26763.cif
_audit_creation_date              2012-10-26T20:31:19-0400
_audit_creation_method            fapswitch 2.2
_symmetry_space_group_name_H-M    P1
_symmetry_Int_Tables_number       1
_space_group_crystal_system       triclinic
_cell_length_a                    11.696013
_cell_length_b                    10.804247
_cell_length_c                    9.608795
_cell_angle_alpha                 90.896395
_cell_angle_beta                  89.230411
_cell_angle_gamma                 91.219408
_cell_volume                      1213.70312864

loop_
_atom_site_label
_atom_site_type_symbol
_atom_type_description
_atom_site_fract_x
_atom_site_fract_y
_atom_site_fract_z
_atom_type_partial_charge
C1    C     C_R   0.498123 0.262914 0.498698 0.543467
C2    C     C_R   0.412388 0.447833 0.076488 0.007204
C3    C     C_R   0.412095 0.445562 0.928093 0.102677
C4    C     C_R   0.284154 0.499924 0.500719 0.544286
C5    C     C_R   0.596227 0.532444 0.924894 0.131677
C6    C     C_3   0.666987 0.646056 0.908258 -0.153188
C7    C     C_3   0.658188 0.662641 0.066597 0.241194
C8    C     C_R   0.501444 0.737590 0.500659 0.532376
C9    C     C_R   0.715827 0.500158 0.499329 0.541191
C10   C     C_1   0.162395 0.500072 0.501843 0.001523
C11   C     C_1   0.059874 0.500223 0.501040 -0.012753
C12   C     C_R   0.501363 0.130249 0.493296 0.013696
C13   C     C_1   0.940062 0.500328 0.499281 -0.018406
C14   C     C_1   0.837556 0.500289 0.498376 -0.014282
C15   C     C_R   0.583227 0.069105 0.567261 -0.044398
C16   C     C_3   0.851496 0.755613 0.099499 -0.262846
C17   C     C_3   0.474038 0.782813 0.069973 -0.289671
C18   C     C_2   0.748006 0.889793 0.719529 0.192473
C19   C     C_2   0.737010 0.157343 0.714418 0.312598
C20   C     C_2   0.317946 0.374870 0.860898 0.252798
C21   C     C_R   0.429710 0.061288 0.403811 -0.142238
C22   C     C_R   0.429758 0.931820 0.407291 -0.144709
C23   C     C_R   0.502498 0.871361 0.498721 0.004854
C24   C     C_R   0.585668 0.942105 0.568768 -0.065816
C25   C     C_3   0.630185 0.943145 0.714376 -0.111356
C26   C     C_3   0.625262 0.085434 0.711718 -0.074581
C27   C     C_R   0.594537 0.538724 0.071259 0.215107
Cu1   Cu    Cu3+1 0.499990 0.499980 0.640670 0.954316
Cu2   Cu    Cu3+1 0.500010 0.500020 0.359330 0.945949
H1    H     H_    0.369933 0.106989 0.337611 0.127165
H2    H     H_    0.814892 0.848623 0.117608 0.189155
H3    H     H_    0.880318 0.745460 0.989704 0.204301
H4    H     H_    0.610382 0.806078 0.207844 0.274186
H5    H     H_    0.449170 0.880941 0.082784 0.139297
H6    H     H_    0.417199 0.725546 0.137380 0.176661
H7    H     H_    0.460271 0.755367 0.959871 0.142342
H8    H     H_    0.778152 0.828655 0.636738 0.105950
H9    H     H_    0.805686 0.134765 0.641812 0.120578
H10   H     H_    0.332139 0.322964 0.765631 0.154300
H11   H     H_    0.623087 0.715068 0.846776 0.137549
H12   H     H_    0.369800 0.879332 0.343485 0.122256
H13   H     H_    0.567960 0.902504 0.789915 0.126493
H14   H     H_    0.558895 0.123243 0.783832 0.144464
H15   H     H_    0.342419 0.405292 0.134407 0.167935
H16   H     H_    0.753251 0.622556 0.867366 0.142344
H17   H     H_    0.761258 0.649566 0.240671 0.268343
H18   H     H_    0.928025 0.747565 0.165730 0.134401
N1    N     N_R   0.500710 0.500930 0.147930 -0.269213
N2    N     N_R   0.500710 0.500890 0.852020 -0.274577
N3    N     N_2   0.768697 0.659082 0.134675 -0.512435
N4    N     N_2   0.592631 0.771098 0.109951 -0.492993
O1    O     O_R   0.500000 0.319640 0.618810 -0.519050
O2    O     O_2   0.750634 0.242659 0.797669 -0.472491
O3    O     O_2   0.222699 0.370387 0.914509 -0.520927
O4    O     O_R   0.500010 0.319680 0.381230 -0.491480
O5    O     O_R   0.337190 0.499990 0.618790 -0.504338
O6    O     O_R   0.337200 0.500030 0.381210 -0.508468
O7    O     O_R   0.499990 0.680320 0.618770 -0.513173
O8    O     O_R   0.500000 0.680360 0.381190 -0.512356
O9    O     O_R   0.662800 0.499970 0.618790 -0.476133
O10   O     O_R   0.662810 0.500010 0.381210 -0.500072
O11   O     O_2   0.809144 0.911952 0.819087 -0.513155

loop_
_geom_bond_atom_site_label_1
_geom_bond_atom_site_label_2
_ccdc_geom_bond_type
C4    O6    A    
C27   N1    A    
C9    C14   S    
C6    C7    S    
C6    H16   S    
Cu1   O7    S    
H4    N4    S    
Cu1   O1    S    
Cu1   N2    S    
H17   N3    S    
C8    C23   S    
C12   C15   A    
C23   C24   A    
C9    O9    A    
C5    N2    A    
C17   N4    S    
C2    C3    A    
C3    N2    A    
C7    N4    S    
C3    C20   S    
C5    C27   A    
C21   C22   A    
C4    O5    A    
C16   H2    S    
C11   C13   S    
C8    O7    A    
C19   O2    D    
C17   H5    S    
C18   C25   S    
C9    O10   A    
C25   H13   S    
C16   H18   S    
C17   H6    S    
C15   C24   A    
C17   H7    S    
C18   H8    S    
C16   N3    S    
C26   H14   S    
C1    O4    A    
C6    H11   S    
Cu1   O9    S    
C8    O8    A    
Cu1   O5    S    
C5    C6    S    
C1    O1    A    
Cu2   O10   S    
C22   H12   S    
C16   H3    S    
C10   C11   T    
Cu2   N1    S    
C4    C10   S    
C19   H9    S    
C7    C27   S    
C24   C25   S    
C20   O3    D    
C21   H1    S    
C2    H15   S    
C19   C26   S    
C20   H10   S    
C22   C23   A    
Cu1   Cu2   S    
C15   C26   S    
C18   O11   D    
Cu2   O4    S    
C2    N1    A    
C25   C26   S    
C13   C14   T    
C12   C21   A    
C1    C12   S    
Cu2   O8    S    
C7    N3    S    
Cu2   O6    S    
