data_mof_unit_58668.cif
_audit_creation_date              2013-03-05T15:40:54-0500
_audit_creation_method            fapswitch 2.2
_symmetry_space_group_name_H-M    P1
_symmetry_Int_Tables_number       1
_space_group_crystal_system       triclinic
_cell_length_a                    27.789469
_cell_length_b                    18.6688
_cell_length_c                    16.774341
_cell_angle_alpha                 90.019817
_cell_angle_beta                  62.791393
_cell_angle_gamma                 89.988053
_cell_volume                      7739.51312649

loop_
_atom_site_label
_atom_site_type_symbol
_atom_site_description
_atom_site_fract_x
_atom_site_fract_y
_atom_site_fract_z
_atom_type_partial_charge
O1    O     O_R   0.255040 0.869590 0.478480 -0.576425
O2    O     O_R   0.744960 0.130410 0.521520 -0.571179
O3    O     O_R   0.744960 0.869590 0.521520 -0.577927
O4    O     O_R   0.255040 0.130410 0.478480 -0.575709
O5    O     O_R   0.755040 0.369590 0.478480 -0.580753
O6    O     O_R   0.244960 0.630410 0.521520 -0.581081
O7    O     O_R   0.244960 0.369590 0.521520 -0.583220
O8    O     O_R   0.755040 0.630410 0.478480 -0.566859
O9    O     O_R   0.182050 0.796550 0.624440 -0.552264
O10   O     O_R   0.817950 0.203450 0.375560 -0.579078
O11   O     O_R   0.817950 0.796550 0.375560 -0.588005
O12   O     O_R   0.182050 0.203450 0.624440 -0.547869
O13   O     O_R   0.682050 0.296550 0.624440 -0.552587
O14   O     O_R   0.317950 0.703450 0.375560 -0.577296
O15   O     O_R   0.317950 0.296550 0.375560 -0.579484
O16   O     O_R   0.682050 0.703450 0.624440 -0.570879
Cu1   Cu    Cu3+1 0.209920 0.785290 0.495070 1.056915
Cu2   Cu    Cu3+1 0.790080 0.214710 0.504930 1.067171
Cu3   Cu    Cu3+1 0.790080 0.785290 0.504930 1.051796
Cu4   Cu    Cu3+1 0.209920 0.214710 0.495070 1.060193
Cu5   Cu    Cu3+1 0.709920 0.285290 0.495070 1.065910
Cu6   Cu    Cu3+1 0.290080 0.714710 0.504930 1.068574
Cu7   Cu    Cu3+1 0.290080 0.285290 0.504930 1.058495
Cu8   Cu    Cu3+1 0.709920 0.714710 0.495070 1.070579
C1    C     C_R   0.296464 0.731753 0.327982 0.745435
C2    C     C_R   0.708112 0.278051 0.668296 0.815168
C3    C     C_R   0.703650 0.731412 0.671942 0.785027
C4    C     C_R   0.296167 0.268756 0.328293 0.746984
C5    C     C_R   0.796421 0.231561 0.328068 0.746407
C6    C     C_R   0.203820 0.768660 0.671751 0.812232
C7    C     C_R   0.203770 0.231312 0.671710 0.818980
C8    C     C_R   0.791919 0.778029 0.331668 0.784875
O17   O     O_R   0.250530 0.763330 0.367210 -0.624181
O18   O     O_R   0.749470 0.236670 0.632790 -0.566220
O19   O     O_R   0.749470 0.763330 0.632790 -0.580931
O20   O     O_R   0.250530 0.236670 0.367210 -0.621169
O21   O     O_R   0.750530 0.263330 0.367210 -0.614645
O22   O     O_R   0.249470 0.736670 0.632790 -0.567225
O23   O     O_R   0.249470 0.263330 0.632790 -0.578941
O24   O     O_R   0.750530 0.736670 0.367210 -0.567355
O25   O     O_R   0.177260 0.690030 0.513710 -0.570478
O26   O     O_R   0.822740 0.309970 0.486290 -0.588433
O27   O     O_R   0.822740 0.690030 0.486290 -0.570284
O28   O     O_R   0.177260 0.309970 0.513710 -0.566943
O29   O     O_R   0.677260 0.190030 0.513710 -0.553806
O30   O     O_R   0.322740 0.809970 0.486290 -0.567758
O31   O     O_R   0.322740 0.190030 0.486290 -0.570493
O32   O     O_R   0.677260 0.809970 0.513710 -0.589958
C9    C     C_R   0.201088 0.631157 0.511423 0.794988
C10   C     C_R   0.803683 0.368206 0.470991 0.755581
C11   C     C_R   0.803885 0.631899 0.470216 0.794076
C12   C     C_R   0.200640 0.368907 0.512786 0.796802
C13   C     C_R   0.700393 0.130859 0.514460 0.809046
C14   C     C_R   0.303492 0.868223 0.471810 0.792493
C15   C     C_R   0.303944 0.131835 0.470324 0.788077
C16   C     C_R   0.696535 0.868399 0.527134 0.757331
C17   C     C_R   0.071259 0.629398 0.430550 -0.060369
C18   C     C_R   0.969494 0.369354 0.429026 -0.068906
C19   C     C_R   0.973688 0.629869 0.414276 -0.063313
C20   C     C_R   0.065788 0.370066 0.446883 -0.053216
C21   C     C_R   0.566691 0.125835 0.450020 -0.049861
C22   C     C_R   0.458887 0.868861 0.466552 -0.062999
C23   C     C_R   0.470686 0.128553 0.431394 -0.057922
C24   C     C_R   0.541744 0.871198 0.520735 -0.075843
C25   C     C_R   0.050137 0.694404 0.415959 0.257195
C26   C     C_R   0.993327 0.303879 0.435438 0.281341
C27   C     C_R   0.001992 0.694596 0.407483 0.266404
C28   C     C_R   0.040868 0.304295 0.445906 0.286015
C29   C     C_R   0.545302 0.192096 0.440429 0.278457
C30   C     C_R   0.476577 0.804234 0.488845 0.279135
C31   C     C_R   0.497661 0.193402 0.430070 0.287949
C32   C     C_R   0.517320 0.805520 0.516911 0.266831
C33   C     C_R   0.993860 0.565457 0.431947 -0.032636
C34   C     C_R   0.039699 0.434929 0.448259 -0.032765
C35   C     C_R   0.042241 0.565383 0.440480 -0.029661
C36   C     C_R   0.991630 0.434696 0.439402 -0.034317
C37   C     C_R   0.489025 0.063983 0.452394 -0.030374
C38   C     C_R   0.526066 0.934634 0.493150 -0.032700
C39   C     C_R   0.536107 0.063131 0.464174 -0.028474
C40   C     C_R   0.482125 0.934226 0.472845 -0.027872
C41   C     C_R   0.462322 0.999261 0.456049 0.045621
C42   C     C_R   0.553830 0.998950 0.486887 0.042500
C43   C     C_R   0.967668 0.500112 0.434723 0.042758
C44   C     C_R   0.063979 0.500239 0.451926 0.042109
C45   C     C_R   0.389780 0.933883 0.444979 0.002388
C46   C     C_R   0.631478 0.061888 0.484544 0.008774
C47   C     C_R   0.615353 0.935934 0.531081 0.002372
C48   C     C_R   0.391716 0.064988 0.437814 0.011820
C49   C     C_R   0.892138 0.434310 0.432872 -0.001762
C50   C     C_R   0.135939 0.565266 0.466980 0.014015
C51   C     C_R   0.134501 0.434673 0.470800 0.003750
C52   C     C_R   0.892831 0.565528 0.429822 0.011196
C53   C     C_R   0.336409 0.934328 0.453371 -0.122848
C54   C     C_R   0.674217 0.063581 0.509174 -0.122052
C55   C     C_R   0.665783 0.935247 0.534799 -0.122581
C56   C     C_R   0.337187 0.065337 0.450600 -0.122745
C57   C     C_R   0.836871 0.434494 0.450289 -0.118539
C58   C     C_R   0.176966 0.565010 0.496638 -0.114825
C59   C     C_R   0.176293 0.435067 0.498528 -0.114317
C60   C     C_R   0.837172 0.565533 0.449028 -0.124544
C61   C     C_R   0.311087 0.999913 0.456838 -0.227386
C62   C     C_R   0.691865 0.999888 0.530469 -0.238262
C63   C     C_R   0.810528 0.500043 0.458792 -0.238982
C64   C     C_R   0.195072 0.500100 0.513859 -0.256894
H1    H     H_    0.269461 0.000062 0.468149 0.195894
H2    H     H_    0.727604 0.000220 0.540820 0.195664
H3    H     H_    0.767897 0.500094 0.476060 0.195970
H4    H     H_    0.225451 0.500164 0.537455 0.190987
C65   C     C_R   0.414227 0.999534 0.447250 0.030171
C66   C     C_R   0.600032 0.999014 0.501549 0.020114
C67   C     C_R   0.917119 0.500044 0.433892 0.023815
C68   C     C_R   0.110387 0.500173 0.466382 0.017952
C69   C     C_R   0.579970 0.875826 0.554517 0.183267
C70   C     C_R   0.425495 0.126769 0.413451 0.178137
C71   C     C_R   0.420357 0.870178 0.433749 0.187744
C72   C     C_R   0.618975 0.120463 0.442913 0.191321
C73   C     C_R   0.118081 0.372404 0.440584 0.194670
C74   C     C_R   0.926322 0.627551 0.402222 0.178875
C75   C     C_R   0.924432 0.371282 0.411297 0.179252
C76   C     C_R   0.122381 0.626207 0.429957 0.182302
C77   C     C_R   0.234840 0.790553 0.938602 -0.005642
C78   C     C_R   0.793693 0.258087 0.033132 -0.010938
C79   C     C_R   0.768774 0.788410 0.056739 -0.007615
C80   C     C_R   0.216207 0.240804 0.957891 -0.003161
C81   C     C_R   0.731147 0.288543 0.943565 -0.006966
C82   C     C_R   0.294574 0.757897 0.031781 -0.001930
C83   C     C_R   0.282578 0.260733 0.042834 -0.008620
C84   C     C_R   0.706236 0.757807 0.967202 -0.010899
C85   C     C_R   0.275591 0.737360 0.905715 0.115336
C86   C     C_R   0.742186 0.290854 0.078754 0.113313
C87   C     C_R   0.712645 0.771882 0.106900 0.103411
C88   C     C_R   0.265937 0.278233 0.913733 0.118712
C89   C     C_R   0.787039 0.270893 0.893584 0.102091
C90   C     C_R   0.251598 0.807772 0.067521 0.114481
C91   C     C_R   0.232908 0.223105 0.086953 0.112866
C92   C     C_R   0.758224 0.789044 0.921287 0.114852
C93   C     C_R   0.311099 0.729775 0.945075 -0.114832
C94   C     C_R   0.707687 0.295776 0.037427 -0.114396
C95   C     C_R   0.682508 0.748016 0.061245 -0.110925
C96   C     C_R   0.301505 0.283323 0.953317 -0.110188
C97   C     C_R   0.817024 0.247017 0.939346 -0.108961
C98   C     C_R   0.227201 0.831859 0.014009 -0.108378
C99   C     C_R   0.197308 0.218006 0.047337 -0.092397
C100  C     C_R   0.792521 0.793765 0.962769 -0.113020
C101  C     C_R   0.164902 0.860307 0.923447 -0.092092
C102  C     C_R   0.870405 0.198274 0.040993 -0.087726
C103  C     C_R   0.855989 0.821212 0.052474 -0.088917
C104  C     C_R   0.135578 0.189607 0.955144 -0.051008
C105  C     C_R   0.644122 0.321494 0.947236 -0.093574
C106  C     C_R   0.368291 0.693461 0.041931 -0.092134
C107  C     C_R   0.363226 0.312149 0.045322 -0.090830
C108  C     C_R   0.629380 0.698582 0.959259 -0.088975
C109  C     C_R   0.127193 0.865368 0.887800 -0.058554
C110  C     C_R   0.889716 0.161931 0.096316 -0.038365
C111  C     C_R   0.883666 0.846306 0.101144 -0.048520
C112  C     C_R   0.112473 0.158992 0.902148 -0.004565
C113  C     C_R   0.616421 0.346413 0.898629 -0.043525
C114  C     C_R   0.388470 0.659696 0.097170 -0.038661
C115  C     C_R   0.386604 0.342212 0.098276 -0.045851
C116  C     C_R   0.610169 0.662080 0.903857 -0.038723
C117  C     C_R   0.137965 0.829161 0.808670 -0.206407
C118  C     C_R   0.865822 0.177014 0.188246 -0.222295
C119  C     C_R   0.862718 0.829022 0.191644 -0.248076
C120  C     C_R   0.134650 0.176408 0.811121 -0.186049
C121  C     C_R   0.637388 0.329134 0.808182 -0.210652
C122  C     C_R   0.365202 0.676157 0.188625 -0.217640
C123  C     C_R   0.364760 0.324285 0.189085 -0.225150
C124  C     C_R   0.634121 0.677102 0.811895 -0.217828
H5    H     H_    0.113142 0.839191 0.775393 0.209247
H6    H     H_    0.880342 0.149598 0.229986 0.203824
H7    H     H_    0.886190 0.840303 0.226973 0.201863
H8    H     H_    0.117960 0.152197 0.770470 0.205174
H9    H     H_    0.613946 0.340529 0.772833 0.214795
H10   H     H_    0.379979 0.649341 0.230400 0.202658
H11   H     H_    0.381749 0.348005 0.229584 0.204566
H12   H     H_    0.619569 0.649743 0.770151 0.202929
C125  C     C_R   0.182233 0.783443 0.768930 -0.131666
C126  C     C_R   0.822013 0.223910 0.228594 -0.121797
C127  C     C_R   0.810692 0.801174 0.238356 -0.117721
C128  C     C_R   0.179218 0.222100 0.770487 -0.129408
C129  C     C_R   0.689377 0.301108 0.761586 -0.136583
C130  C     C_R   0.321785 0.723744 0.228461 -0.120462
C131  C     C_R   0.320278 0.278526 0.229672 -0.116403
C132  C     C_R   0.678064 0.723775 0.771487 -0.127253
C133  C     C_R   0.209997 0.762767 0.818933 0.092817
C134  C     C_R   0.800087 0.255603 0.174673 0.096672
C135  C     C_R   0.777084 0.797935 0.195436 0.081165
C136  C     C_R   0.203500 0.250103 0.822821 0.091112
C137  C     C_R   0.722939 0.297484 0.804623 0.076862
C138  C     C_R   0.300531 0.756348 0.173814 0.092562
C139  C     C_R   0.295637 0.251043 0.177573 0.089253
C140  C     C_R   0.700146 0.755156 0.825399 0.095745
C141  C     C_R   0.202615 0.803742 0.894615 0.030745
C142  C     C_R   0.821372 0.236789 0.082891 0.024237
C143  C     C_R   0.800730 0.802206 0.101281 0.023761
C144  C     C_R   0.185214 0.226326 0.911787 0.031463
C145  C     C_R   0.699290 0.302167 0.898740 0.027865
C146  C     C_R   0.320964 0.735480 0.082839 0.030551
C147  C     C_R   0.313652 0.275234 0.088794 0.027412
C148  C     C_R   0.678568 0.736704 0.917355 0.024501
C149  C     C_R   0.170186 0.913504 0.979330 0.270953
C150  C     C_R   0.897884 0.198034 0.945813 0.251411
C151  C     C_R   0.881621 0.812298 0.958148 0.254603
C152  C     C_R   0.110058 0.188603 0.050144 0.282907
C153  C     C_R   0.618603 0.313832 0.041473 0.250279
C154  C     C_R   0.394553 0.689572 0.946626 0.251200
C155  C     C_R   0.388757 0.313017 0.950182 0.250453
C156  C     C_R   0.601671 0.699002 0.054459 0.251285
C157  C     C_R   0.198666 0.897663 0.028906 0.238972
C158  C     C_R   0.869795 0.215506 0.896094 0.209975
C159  C     C_R   0.849898 0.800106 0.913156 0.207186
C160  C     C_R   0.141613 0.198595 0.095961 0.249057
C161  C     C_R   0.650408 0.304251 0.086690 0.209549
C162  C     C_R   0.363933 0.700390 0.899428 0.195549
C163  C     C_R   0.357271 0.302256 0.904312 0.200471
C164  C     C_R   0.629356 0.717631 0.104516 0.213563
C165  C     C_R   0.245231 0.703527 0.795714 -0.150141
C166  C     C_R   0.758624 0.307546 0.207311 -0.175908
C167  C     C_R   0.720473 0.794789 0.243608 -0.175018
C168  C     C_R   0.244298 0.302931 0.791689 -0.157311
C169  C     C_R   0.779539 0.293623 0.756613 -0.172252
C170  C     C_R   0.259578 0.809099 0.205791 -0.175158
C171  C     C_R   0.254889 0.198126 0.208603 -0.175391
C172  C     C_R   0.742303 0.806130 0.792446 -0.160341
C173  C     C_R   0.277716 0.691510 0.837688 -0.115840
C174  C     C_R   0.728976 0.322682 0.161741 -0.109800
C175  C     C_R   0.688988 0.783795 0.200064 -0.110216
C176  C     C_R   0.275454 0.315716 0.835471 -0.122521
C177  C     C_R   0.810855 0.282144 0.800340 -0.103499
C178  C     C_R   0.234158 0.831313 0.155723 -0.098409
C179  C     C_R   0.223647 0.185392 0.164956 -0.062794
C180  C     C_R   0.772329 0.820039 0.837654 -0.113021
H13   H     H_    0.247047 0.664459 0.746885 0.172052
H14   H     H_    0.748720 0.338823 0.266703 0.186399
H15   H     H_    0.699557 0.804390 0.315065 0.176927
H16   H     H_    0.251883 0.337230 0.735524 0.179326
H17   H     H_    0.800629 0.302970 0.685145 0.179227
H18   H     H_    0.246720 0.836789 0.268340 0.194354
H19   H     H_    0.247492 0.163550 0.264446 0.187463
H20   H     H_    0.752692 0.837400 0.732954 0.183216
H21   H     H_    0.303038 0.644338 0.818568 0.184818
H22   H     H_    0.697074 0.361996 0.190364 0.196752
H23   H     H_    0.646108 0.788735 0.240919 0.201246
H24   H     H_    0.305655 0.357323 0.809114 0.189301
H25   H     H_    0.853817 0.286234 0.759666 0.205077
H26   H     H_    0.199208 0.865196 0.189147 0.215329
H27   H     H_    0.193797 0.143374 0.191003 0.217082
H28   H     H_    0.805399 0.857696 0.808268 0.191698
O33   O     O_R   0.051640 0.926880 0.885090 -0.557250
O34   O     O_R   0.948360 0.073120 0.114910 -0.560288
O35   O     O_R   0.948360 0.926880 0.114910 -0.585802
O36   O     O_R   0.051640 0.073120 0.885090 -0.562299
O37   O     O_R   0.551640 0.426880 0.885090 -0.557411
O38   O     O_R   0.448360 0.573120 0.114910 -0.551642
O39   O     O_R   0.448360 0.426880 0.114910 -0.561132
O40   O     O_R   0.551640 0.573120 0.885090 -0.555606
Cu9   Cu    Cu3+1 0.495240 0.500000 0.924150 1.157785
Cu10  Cu    Cu3+1 0.504760 0.500000 0.075850 1.162861
Cu11  Cu    Cu3+1 0.995240 0.000000 0.924150 1.166317
Cu12  Cu    Cu3+1 0.004760 1.000000 0.075850 1.169973
C181  C     C_R   0.928027 0.900040 0.064700 0.808522
C182  C     C_R   0.071291 0.100729 0.935816 0.890323
C183  C     C_R   0.077346 0.908792 0.930218 0.842038
C184  C     C_R   0.929134 0.101274 0.063827 0.814538
C185  C     C_R   0.428150 0.399933 0.064596 0.815541
C186  C     C_R   0.570807 0.601346 0.936251 0.825283
C187  C     C_R   0.572015 0.400091 0.935215 0.829902
C188  C     C_R   0.428520 0.600340 0.064391 0.823221
O41   O     O_R   0.940620 0.926560 0.986760 -0.557379
O42   O     O_R   0.059380 0.073440 0.013240 -0.523903
O43   O     O_R   0.059380 0.926560 0.013240 -0.570126
O44   O     O_R   0.940620 0.073440 0.986760 -0.565595
O45   O     O_R   0.440620 0.426560 0.986760 -0.567970
O46   O     O_R   0.559380 0.573440 0.013240 -0.563431
O47   O     O_R   0.559380 0.426560 0.013240 -0.564646
O48   O     O_R   0.440620 0.573440 0.986760 -0.573757
N1    N     N_R   0.536869 0.739002 0.533613 0.147303
O49   O     O_R   0.504336 0.696114 0.596133 -0.196289
O50   O     O_R   0.586052 0.718368 0.480817 -0.333323
N2    N     N_R   0.472357 0.260875 0.433008 0.147756
O51   O     O_R   0.428260 0.278676 0.503875 -0.309982
O52   O     O_R   0.490907 0.302100 0.362803 -0.214122
N3    N     N_R   0.450326 0.737671 0.490644 0.144753
O53   O     O_R   0.478288 0.683262 0.443865 -0.216213
O54   O     O_R   0.399043 0.729714 0.544637 -0.316968
N4    N     N_R   0.565978 0.257636 0.458187 0.133257
O55   O     O_R   0.573740 0.313825 0.408120 -0.222382
O56   O     O_R   0.574885 0.262174 0.527747 -0.313035
N5    N     N_R   0.059103 0.239075 0.468983 0.135612
O57   O     O_R   0.066812 0.236788 0.539852 -0.309773
O58   O     O_R   0.068441 0.182071 0.419570 -0.221932
N6    N     N_R   0.978807 0.762191 0.403459 0.150043
O59   O     O_R   0.937541 0.787053 0.474153 -0.307569
O60   O     O_R   0.999639 0.799739 0.330030 -0.286316
N7    N     N_R   0.965213 0.237587 0.445061 0.144103
O61   O     O_R   0.983481 0.190479 0.380810 -0.214329
O62   O     O_R   0.919081 0.226659 0.515331 -0.335191
N8    N     N_R   0.073405 0.761780 0.420963 0.141445
O63   O     O_R   0.093250 0.804563 0.352177 -0.299221
O64   O     O_R   0.074465 0.780618 0.494837 -0.307486
N9    N     N_3   0.570666 0.833361 0.632220 -0.502223
H29   H     H_    0.587816 0.782630 0.613911 0.290121
H30   H     H_    0.587339 0.858096 0.669841 0.217147
N10   N     N_3   0.425099 0.175578 0.347004 -0.506559
H31   H     H_    0.403574 0.154087 0.315262 0.209653
H32   H     H_    0.407434 0.224250 0.375955 0.291058
N11   N     N_3   0.427270 0.820240 0.363468 -0.499452
H33   H     H_    0.410828 0.770372 0.389571 0.291916
H34   H     H_    0.408310 0.839036 0.326162 0.214444
N12   N     N_3   0.661483 0.158917 0.370244 -0.527502
H35   H     H_    0.661482 0.212652 0.386912 0.294416
H36   H     H_    0.699452 0.136618 0.353215 0.197855
N13   N     N_3   0.158177 0.327604 0.372625 -0.523567
H37   H     H_    0.197043 0.348732 0.350281 0.204467
H38   H     H_    0.156778 0.275760 0.396513 0.295424
N14   N     N_3   0.922706 0.675951 0.338075 -0.537480
H39   H     H_    0.899843 0.653567 0.309231 0.206817
H40   H     H_    0.904812 0.724145 0.368366 0.292051
N15   N     N_3   0.923713 0.321662 0.345770 -0.503567
H41   H     H_    0.906826 0.272815 0.375159 0.294289
H42   H     H_    0.901299 0.342172 0.315052 0.209295
N16   N     N_3   0.164930 0.668785 0.363322 -0.557066
H43   H     H_    0.164431 0.720016 0.387908 0.302107
H44   H     H_    0.202813 0.645394 0.344208 0.201096
N17   N     N_R   0.159425 0.987035 0.967267 0.127160
O65   O     O_R   0.144109 0.032673 0.032801 -0.302123
O66   O     O_R   0.173305 0.010870 0.886770 -0.409185
N18   N     N_R   0.955930 0.191166 0.899369 0.147476
O67   O     O_R   0.979479 0.149619 0.829729 -0.258468
O68   O     O_R   0.985550 0.225967 0.928037 -0.342438
N19   N     N_R   0.939363 0.801855 0.910870 0.151243
O69   O     O_R   0.963249 0.761143 0.945013 -0.360535
O70   O     O_R   0.968661 0.835151 0.836021 -0.263276
N20   N     N_R   0.051841 0.192912 0.098968 0.132281
O71   O     O_R   0.024889 0.157107 0.172703 -0.241745
O72   O     O_R   0.025283 0.232116 0.068258 -0.343369
N21   N     N_R   0.560942 0.302299 0.088806 0.149406
O73   O     O_R   0.537603 0.260548 0.054726 -0.319149
O74   O     O_R   0.531168 0.335156 0.163811 -0.246827
N22   N     N_R   0.452913 0.691208 0.898571 0.151124
O75   O     O_R   0.479297 0.657693 0.822798 -0.259323
O76   O     O_R   0.480082 0.728070 0.930254 -0.325986
N23   N     N_R   0.446957 0.307930 0.901482 0.154502
O77   O     O_R   0.473291 0.269326 0.933211 -0.320609
O78   O     O_R   0.474158 0.343121 0.827320 -0.257836
N24   N     N_R   0.543683 0.691507 0.100656 0.148859
O79   O     O_R   0.520324 0.650288 0.170614 -0.259949
O80   O     O_R   0.513877 0.726532 0.072579 -0.332483
N25   N     N_R   0.208094 0.953879 0.078639 0.137083
O81   O     O_R   0.168550 0.978208 0.152183 -0.290943
O82   O     O_R   0.257070 0.976675 0.054395 -0.324220
N26   N     N_R   0.893910 0.194986 0.803542 0.137703
O83   O     O_R   0.872925 0.143077 0.777935 -0.297214
O84   O     O_R   0.936848 0.227781 0.744741 -0.271287
N27   N     N_R   0.876674 0.781493 0.819706 0.149505
O85   O     O_R   0.869199 0.718528 0.793967 -0.313364
O86   O     O_R   0.904239 0.829311 0.759684 -0.268325
N28   N     N_R   0.114700 0.201298 0.191963 0.140614
O87   O     O_R   0.094548 0.143222 0.238132 -0.212100
O88   O     O_R   0.113509 0.260803 0.233258 -0.346780
N29   N     N_R   0.623324 0.293749 0.181748 0.150008
O89   O     O_R   0.626805 0.232608 0.215973 -0.328232
O90   O     O_R   0.598675 0.347246 0.234330 -0.243776
N30   N     N_R   0.389988 0.694505 0.803516 0.161997
O91   O     O_R   0.405717 0.632229 0.765514 -0.268283
O92   O     O_R   0.393957 0.750297 0.754394 -0.283390
N31   N     N_R   0.384334 0.296626 0.808303 0.152792
O93   O     O_R   0.383819 0.236284 0.769852 -0.286728
O94   O     O_R   0.405793 0.352977 0.759125 -0.272303
N32   N     N_R   0.603893 0.700383 0.198061 0.139552
O95   O     O_R   0.622443 0.647982 0.227217 -0.285793
O96   O     O_R   0.561405 0.735752 0.253937 -0.292339

loop_
_geom_bond_atom_site_label_1
_geom_bond_atom_site_label_2
_geom_bond_distance
_ccdc_geom_bond_type
N16   H44   1.045361 S    
Cu2   Cu5   2.657370 S    
N21   O73   1.301522 A    
N9    H29   1.041238 S    
O37   C187  1.308901 A    
O38   C188  1.306827 A    
C44   C68   1.417024 A    
C156  C164  1.417247 A    
C46   C66   1.412612 A    
C4    C131  1.485118 S    
C150  N18   1.440839 S    
Cu6   O22   1.956396 S    
C108  C148  1.411077 A    
C76   N16   1.439353 S    
O3    Cu3   1.950944 S    
C102  C142  1.411067 A    
C103  C111  1.432372 A    
C19   C33   1.414216 A    
C178  H26   1.076718 S    
C55   C62   1.392547 A    
O15   Cu7   1.953656 S    
C154  C162  1.416936 A    
C29   N4    1.439616 S    
C28   N5    1.438272 S    
C33   C35   1.415661 A    
C78   C142  1.426067 A    
C36   C43   1.410138 A    
O25   C9    1.274506 A    
C37   C39   1.409804 A    
N12   H36   1.045157 S    
C122  H10   1.083338 S    
Cu7   O31   1.955403 S    
N22   O75   1.300642 A    
C165  H13   1.080344 S    
C3    O19   1.282030 A    
C169  H17   1.081119 S    
N14   H39   1.045710 S    
O35   Cu12  1.952340 S    
C38   C42   1.405119 A    
N27   O85   1.301186 A    
C102  C110  1.437103 A    
C95   C164  1.431983 A    
C187  O47   1.288298 A    
N26   O83   1.301027 A    
O12   Cu4   1.953656 S    
O13   Cu5   1.953459 S    
C20   C73   1.408721 A    
O33   C183  1.300765 A    
O34   C184  1.309511 A    
C57   C63   1.399204 A    
C112  C182  1.490521 S    
C48   C65   1.414182 A    
C23   C31   1.418901 A    
C171  C179  1.388384 A    
N8    O63   1.300898 A    
C117  C125  1.391208 A    
C86   C94   1.419825 A    
C139  C171  1.411014 A    
C8    O24   1.283817 A    
C137  C145  1.408221 A    
C77   C98   1.411882 A    
C84   C95   1.416248 A    
C179  H27   1.078602 S    
C83   C91   1.418820 A    
O2    C13   1.296961 A    
C52   C67   1.413009 A    
C81   C94   1.408320 A    
C7    C128  1.485563 S    
Cu12  O43   1.956278 S    
C84   C92   1.415483 A    
C171  H19   1.077387 S    
N4    O56   1.301526 A    
O10   Cu2   1.953459 S    
C103  C151  1.416935 A    
C18   C75   1.413664 A    
C115  C123  1.398455 A    
C140  C148  1.418509 A    
C47   C69   1.424029 A    
C126  C134  1.429565 A    
C85   C93   1.423165 A    
C82   C90   1.413178 A    
C63   H3    1.083320 S    
C130  C138  1.433511 A    
C107  C155  1.419558 A    
C166  C174  1.385257 A    
C100  C159  1.426761 A    
C107  C115  1.433047 A    
C16   C55   1.484326 S    
N15   H42   1.045761 S    
C94   C161  1.427773 A    
C116  C186  1.494890 S    
N25   O81   1.302102 A    
Cu10  O46   1.957229 S    
C122  C130  1.397628 A    
O27   C11   1.286167 A    
N32   O95   1.301009 A    
O15   C4    1.305012 A    
C18   C36   1.412393 A    
N7    O62   1.301128 A    
C47   C66   1.416538 A    
C73   N13   1.441516 S    
C134  C166  1.410685 A    
C6    O22   1.278416 A    
C34   C36   1.409947 A    
C22   C40   1.407057 A    
O7    C12   1.305205 A    
Cu2   O26   1.955944 S    
C38   C40   1.409780 A    
C35   C44   1.409526 A    
N13   H38   1.041590 S    
C169  C177  1.387438 A    
N30   O91   1.301369 A    
C80   C88   1.418244 A    
Cu9   Cu10  2.675996 S    
N17   O66   1.301641 A    
C52   C74   1.424103 A    
C19   C27   1.417876 A    
C45   C53   1.424336 A    
C47   C55   1.431059 A    
C160  N28   1.433101 S    
C181  O41   1.288020 A    
O36   C182  1.308678 A    
C117  H5    1.083789 S    
O28   C12   1.274404 A    
O16   C3    1.305735 A    
C91   C99   1.424993 A    
Cu11  O41   1.957229 S    
O29   C13   1.280927 A    
N1    O49   1.300811 A    
C151  C159  1.416670 A    
O33   Cu11  1.951568 S    
C149  C157  1.416794 A    
Cu4   O28   1.955403 S    
C152  N20   1.443205 S    
Cu5   O29   1.955944 S    
C58   C64   1.392093 A    
C163  N31   1.436162 S    
Cu8   O32   1.955403 S    
C167  H15   1.081400 S    
N2    O51   1.301020 A    
C106  C154  1.423600 A    
C113  C121  1.391605 A    
N20   O71   1.300472 A    
C111  C119  1.392775 A    
C86   C174  1.399156 A    
C180  H28   1.080769 S    
C50   C76   1.426975 A    
C51   C68   1.412416 A    
Cu2   O18   1.956396 S    
N24   O80   1.300828 A    
Cu4   Cu7   2.657774 S    
N2    O52   1.300206 A    
C17   C25   1.417208 A    
C188  O48   1.288435 A    
C132  C140  1.429978 A    
N5    O57   1.301481 A    
O5    Cu5   1.951523 S    
N28   O88   1.301338 A    
C172  H20   1.075641 S    
C20   C28   1.413582 A    
O9    C6    1.306191 A    
O26   C10   1.285521 A    
C17   C76   1.417376 A    
C185  O45   1.287896 A    
N27   O86   1.301171 A    
O35   C181  1.309480 A    
O11   C8    1.293008 A    
C19   C74   1.420812 A    
N23   O78   1.300558 A    
O12   C7    1.304285 A    
C119  C127  1.392543 A    
O13   C2    1.293173 A    
C120  H8    1.083273 S    
C83   C96   1.409818 A    
C5    O21   1.281763 A    
C1    C130  1.493304 S    
C104  C152  1.417501 A    
C123  H11   1.083363 S    
C11   C60   1.488485 S    
C124  H12   1.083295 S    
C74   N14   1.443564 S    
C13   C54   1.474390 S    
C24   C38   1.411020 A    
C108  C156  1.420792 A    
C71   N11   1.444971 S    
C34   C44   1.408512 A    
N18   O67   1.301744 A    
C83   C147  1.421997 A    
C39   C42   1.412466 A    
C99   C160  1.427600 A    
O1    Cu1   1.951523 S    
C153  N21   1.442633 S    
C17   C35   1.408519 A    
C22   C71   1.410209 A    
C102  C150  1.420313 A    
C21   C39   1.401837 A    
O7    Cu7   1.950944 S    
O8    Cu8   1.950946 S    
C33   C43   1.410516 A    
N16   H43   1.038986 S    
C90   C178  1.400272 A    
Cu12  O42   1.957229 S    
C109  C183  1.476511 S    
C118  C126  1.397254 A    
C87   C95   1.439730 A    
O37   Cu9   1.951568 S    
C170  C178  1.385286 A    
C85   C173  1.405681 A    
N3    O53   1.301086 A    
C78   C97   1.415983 A    
C51   C59   1.434994 A    
C165  C173  1.393666 A    
C80   C144  1.421985 A    
C48   C56   1.430060 A    
C82   C93   1.410843 A    
C93   C162  1.419263 A    
C116  C124  1.400976 A    
N29   O90   1.300468 A    
O11   Cu3   1.953656 S    
Cu1   O17   1.956395 S    
N22   O76   1.301148 A    
C45   C65   1.410361 A    
C88   C176  1.402229 A    
C164  N32   1.432366 S    
C127  C135  1.417448 A    
C173  H21   1.080152 S    
C30   N3    1.434404 S    
O6    Cu6   1.951521 S    
C125  C133  1.428183 A    
C168  C176  1.388276 A    
N14   H40   1.040874 S    
C14   C53   1.482372 S    
C128  C136  1.428571 A    
C96   C163  1.427495 A    
C129  C137  1.418231 A    
C49   C75   1.422382 A    
Cu3   O27   1.955403 S    
C25   C27   1.408639 A    
N26   O84   1.302298 A    
C79   C100  1.406789 A    
C51   C73   1.424010 A    
C80   C99   1.410003 A    
C119  H7    1.083743 S    
C101  C141  1.408217 A    
C120  C128  1.398213 A    
C136  C168  1.410747 A    
C59   C64   1.391131 A    
O39   Cu10  1.952340 S    
C153  C161  1.414751 A    
C184  O44   1.290435 A    
C91   C179  1.402396 A    
C56   C61   1.399944 A    
C79   C143  1.421237 A    
N8    O64   1.301239 A    
C77   C141  1.418182 A    
C183  O43   1.289384 A    
N21   O74   1.300428 A    
C134  C142  1.417860 A    
N9    H30   1.045675 S    
N11   H33   1.041494 S    
C45   C71   1.423008 A    
C140  C172  1.411463 A    
C105  C153  1.413250 A    
N7    O61   1.300599 A    
C151  N19   1.441453 S    
C15   C56   1.491245 S    
O39   C185  1.309221 A    
C27   N6    1.432343 S    
C60   C63   1.399814 A    
N19   O69   1.301542 A    
C84   C148  1.425948 A    
C182  O42   1.289662 A    
C118  H6    1.083312 S    
C37   C41   1.404702 A    
C25   N8    1.434279 S    
O30   C14   1.283189 A    
C21   C72   1.405994 A    
C155  C163  1.419023 A    
N31   O94   1.301463 A    
C159  N27   1.436851 S    
C161  N29   1.431869 S    
Cu6   O30   1.955944 S    
C41   C65   1.410157 A    
C5    C126  1.491661 S    
O4    C15   1.302424 A    
C43   C67   1.411158 A    
O5    C10   1.299391 A    
C53   C61   1.399956 A    
C64   H4    1.083962 S    
C138  C146  1.417779 A    
C18   C26   1.417460 A    
N12   H35   1.041314 S    
Cu9   O48   1.956275 S    
C106  C114  1.430313 A    
C79   C87   1.427016 A    
Cu10  O47   1.956278 S    
C77   C85   1.414496 A    
C149  N17   1.438798 S    
C110  C118  1.400497 A    
N32   O96   1.302254 A    
C88   C96   1.423756 A    
C157  N25   1.437157 S    
C89   C97   1.437787 A    
Cu1   Cu6   2.657370 S    
C138  C170  1.411973 A    
Cu3   Cu8   2.657774 S    
C92   C100  1.416620 A    
C156  N24   1.440525 S    
O10   C5    1.305371 A    
O14   Cu6   1.953459 S    
N13   H37   1.045299 S    
C26   N7    1.432935 S    
C186  O46   1.290570 A    
N30   O92   1.301366 A    
C137  C169  1.403315 A    
O14   C1    1.307115 A    
C48   C70   1.424225 A    
N17   O65   1.298780 A    
C89   C177  1.407907 A    
C174  H22   1.079545 S    
N15   H41   1.041031 S    
Cu4   O20   1.956804 S    
C2    C129  1.469551 S    
C87   C175  1.408580 A    
Cu5   O21   1.956395 S    
C4    O20   1.279400 A    
C69   N9    1.444587 S    
C109  C117  1.394383 A    
C104  C112  1.432113 A    
C167  C175  1.387656 A    
C105  C113  1.431055 A    
C97   C158  1.431573 A    
C106  C146  1.410620 A    
O36   Cu11  1.952340 S    
C72   N12   1.442513 S    
C26   C28   1.410103 A    
N23   O77   1.301682 A    
C108  C116  1.437527 A    
O2    Cu2   1.951521 S    
N31   O93   1.301235 A    
C50   C68   1.409937 A    
C135  C167  1.403165 A    
C92   C180  1.397998 A    
C133  C165  1.408554 A    
C42   C66   1.413400 A    
N6    O59   1.300980 A    
C50   C58   1.437380 A    
C139  C147  1.411068 A    
C172  C180  1.384668 A    
C175  H23   1.072950 S    
N4    O55   1.298965 A    
N20   O72   1.301313 A    
C90   C98   1.422777 A    
O38   Cu10  1.951565 S    
C121  H9    1.083739 S    
C154  N22   1.444118 S    
C46   C72   1.423541 A    
C32   N1    1.433482 S    
C20   C34   1.405979 A    
C29   C31   1.412055 A    
C3    C132  1.492849 S    
C46   C54   1.425130 A    
N5    O58   1.299789 A    
C9    C58   1.479171 S    
C23   C70   1.419315 A    
C104  C144  1.408848 A    
C123  C131  1.397333 A    
C7    O23   1.280124 A    
C124  C132  1.397792 A    
C176  H24   1.079073 S    
C8    C127  1.470600 S    
C103  C143  1.416003 A    
C101  C109  1.427466 A    
C155  N23   1.443561 S    
C81   C145  1.422197 A    
N25   O82   1.301203 A    
C22   C30   1.416102 A    
C152  C160  1.417970 A    
C150  C158  1.416576 A    
O34   Cu12  1.951565 S    
C2    O18   1.282890 A    
C61   H1    1.083241 S    
C113  C187  1.486650 S    
C114  C188  1.486063 S    
C107  C147  1.409482 A    
C110  C184  1.494108 S    
C166  H14   1.076118 S    
N18   O68   1.301103 A    
N6    O60   1.300895 A    
C170  H18   1.073528 S    
C49   C57   1.426142 A    
N10   H32   1.041134 S    
N11   H34   1.045913 S    
O1    C14   1.299346 A    
O3    C16   1.305534 A    
C81   C89   1.425730 A    
O40   Cu9   1.952340 S    
C70   N10   1.443858 S    
N19   O70   1.300614 A    
O8    C11   1.300163 A    
C136  C144  1.410474 A    
O9    Cu1   1.953459 S    
N10   H31   1.045690 S    
N1    O50   1.301306 A    
C158  N26   1.433252 S    
Cu11  Cu12  2.675996 S    
C52   C60   1.428456 A    
O31   C15   1.285635 A    
C23   C37   1.414613 A    
C21   C29   1.413042 A    
O32   C16   1.279782 A    
O40   C186  1.309852 A    
C10   C57   1.486781 S    
C24   C69   1.416869 A    
C135  C143  1.408418 A    
C168  H16   1.077465 S    
C133  C141  1.414214 A    
C40   C41   1.413523 A    
C131  C139  1.429312 A    
O4    Cu4   1.950946 S    
C115  C185  1.489234 S    
N29   O89   1.301152 A    
C49   C67   1.413994 A    
C12   C59   1.479293 S    
Cu9   O45   1.957229 S    
C31   N2    1.432296 S    
C98   C157  1.420771 A    
C121  C129  1.392381 A    
C177  H25   1.073268 S    
C101  C149  1.418412 A    
C82   C146  1.421616 A    
N24   O79   1.301865 A    
Cu7   O23   1.956806 S    
Cu3   O19   1.956806 S    
Cu8   O24   1.956804 S    
C6    C125  1.482797 S    
C75   N15   1.444328 S    
C62   H2    1.083638 S    
C24   C32   1.417147 A    
O6    C9    1.305423 A    
N28   O87   1.301203 A    
C111  C181  1.487116 S    
Cu1   O25   1.955944 S    
C114  C122  1.399457 A    
C112  C120  1.398900 A    
O16   Cu8   1.953656 S    
C1    O17   1.281115 A    
C30   C32   1.411219 A    
C78   C86   1.416430 A    
C162  N30   1.435048 S    
Cu11  O44   1.956275 S    
C54   C62   1.393654 A    
C105  C145  1.414692 A    
N3    O54   1.301230 A    
