data_mof_unit_17128.cif
_audit_creation_date              2012-12-11T14:50:51-0500
_audit_creation_method            fapswitch 2.2
_symmetry_space_group_name_H-M    P1
_symmetry_Int_Tables_number       1
_space_group_crystal_system       triclinic
_cell_length_a                    10.97214
_cell_length_b                    10.911065
_cell_length_c                    18.836267
_cell_angle_alpha                 90.321143
_cell_angle_beta                  90.149017
_cell_angle_gamma                 60.279638
_cell_volume                      1958.36663258

loop_
_atom_site_label
_atom_site_type_symbol
_atom_type_description
_atom_site_fract_x
_atom_site_fract_y
_atom_site_fract_z
_atom_type_partial_charge
C1    C     C_R   0.236308 0.646617 0.609775 0.566976
C2    C     C_R   0.544752 0.216049 0.796852 -0.103515
C3    C     C_R   0.527999 0.241812 0.725653 -0.132051
C4    C     C_R   0.656011 0.625430 0.599549 0.535763
C5    C     C_R   0.631836 0.245834 0.685727 0.018335
C6    C     C_R   0.190953 0.551363 0.721537 0.164461
C7    C     C_R   0.190597 0.551826 0.796163 0.191902
C8    C     C_R   0.172040 0.672864 0.833079 -0.014344
C9    C     C_R   0.166599 0.784821 0.795438 -0.053521
C10   C     C_R   0.177558 0.781433 0.723133 0.225073
C11   C     C_R   0.191650 0.663665 0.684356 -0.009700
C12   C     C_3   0.605198 0.656508 0.801153 0.083256
C13   C     C_R   0.693705 0.527696 0.270227 -0.095796
C14   C     C_R   0.697861 0.543268 0.197534 0.235546
C15   C     C_R   0.656281 0.677182 0.169708 0.084460
C16   C     C_R   0.598645 0.283807 0.610664 0.551486
C17   C     C_R   0.602029 0.795752 0.215202 -0.129907
C18   C     C_R   0.595574 0.779694 0.288158 -0.152111
C19   C     C_R   0.646732 0.644666 0.315916 -0.021873
C20   C     C_R   0.513011 0.237179 0.278723 -0.131074
C21   C     C_R   0.525630 0.217914 0.206499 -0.125766
C22   C     C_R   0.658699 0.153401 0.176399 0.069422
C23   C     C_3   0.723391 0.695432 0.807021 0.016630
C24   C     C_R   0.779232 0.111621 0.218640 -0.088348
C25   C     C_R   0.766369 0.132343 0.290950 -0.148658
C26   C     C_R   0.633554 0.193178 0.321031 0.019196
C27   C     C_R   0.260964 0.707547 0.280925 -0.094352
C28   C     C_R   0.227163 0.647022 0.399632 0.543674
C29   C     C_R   0.241956 0.710429 0.208766 0.221737
C30   C     C_R   0.154267 0.662851 0.181144 0.038545
C31   C     C_R   0.098096 0.599399 0.225178 -0.182883
C32   C     C_R   0.119219 0.595176 0.297750 -0.166194
C33   C     C_R   0.195065 0.655524 0.325577 -0.009628
C34   C     C_3   0.679223 0.660762 0.673037 -0.014745
C35   C     C_R   0.698649 0.107981 0.898208 0.579556
C36   C     C_R   0.753391 0.710253 0.882934 0.586645
C37   C     C_R   0.118078 0.705760 0.905609 0.602403
C38   C     C_R   0.676620 0.104987 0.104322 0.563094
C39   C     C_R   0.696160 0.691030 0.097844 0.602788
C40   C     C_R   0.640417 0.620888 0.391265 0.534403
C41   C     C_R   0.095010 0.707461 0.111811 0.576917
C42   C     C_R   0.614020 0.233080 0.394236 0.549405
C43   C     C_3   0.680973 0.833651 0.763497 0.096860
C44   C     C_3   0.641919 0.817060 0.685403 0.127860
C45   C     C_3   0.836991 0.570508 0.692884 -0.252164
C46   C     C_3   0.856344 0.573405 0.772812 -0.237201
C47   C     C_3   0.589820 0.623474 0.723220 -0.186606
C48   C     C_R   0.757216 0.222121 0.720081 0.236679
C49   C     C_R   0.776222 0.190462 0.792631 -0.062393
C50   C     C_R   0.671224 0.182756 0.830753 0.001811
Cl1   Cl    Cl    0.821988 0.872228 0.762113 -0.714327
Cl2   Cl    Cl    0.897246 0.220147 0.674998 -0.475841
Cl3   Cl    Cl    0.175253 0.416766 0.676327 -0.527749
Cl4   Cl    Cl    0.199877 0.405608 0.841684 -0.546530
Cl5   Cl    Cl    0.172454 0.932192 0.686825 -0.347935
Cl6   Cl    Cl    0.758306 0.392612 0.143010 -0.582095
Cl7   Cl    Cl    0.462765 0.943832 0.667275 -0.447570
Cl8   Cl    Cl    0.323825 0.780514 0.155175 -0.572776
Cl9   Cl    Cl    0.439940 0.793152 0.834400 -0.554901
Cr1   Cr    Cr6+3 0.392930 0.397900 0.502230 1.096682
Cr2   Cr    Cr6+3 0.398240 0.708600 0.501260 1.113025
Cr3   Cr    Cr6+3 0.708800 0.393470 0.496460 1.096389
Cr4   Cr    Cr6+3 0.937620 0.938540 0.007640 1.117764
Cr5   Cr    Cr6+3 0.625150 0.937450 0.994520 1.126381
Cr6   Cr    Cr6+3 0.937990 0.625080 0.001190 1.118144
H1    H     H_    0.624999 0.509379 0.718164 0.079633
H2    H     H_    0.029965 0.562294 0.204264 0.156895
H3    H     H_    0.073518 0.549285 0.332059 0.144863
H4    H     H_    0.703413 0.842373 0.647224 0.175505
H5    H     H_    0.896760 0.613806 0.665192 0.188679
H6    H     H_    0.633461 0.561032 0.833591 0.146278
H7    H     H_    0.879948 0.470006 0.795751 0.192774
H8    H     H_    0.885317 0.459601 0.676321 0.260677
H9    H     H_    0.875694 0.162460 0.817591 0.179465
H10   H     H_    0.591042 0.925126 0.789651 0.232567
H11   H     H_    0.726723 0.423524 0.291115 0.165341
H12   H     H_    0.463206 0.205986 0.823320 0.235170
H13   H     H_    0.570964 0.899791 0.194764 0.150621
H14   H     H_    0.408247 0.289740 0.301132 0.154153
H15   H     H_    0.946393 0.588199 0.783530 0.227597
H16   H     H_    0.477772 0.680144 0.706942 0.212778
H17   H     H_    0.435308 0.251509 0.701303 0.251592
H18   H     H_    0.148248 0.880786 0.822106 0.230562
H19   H     H_    0.555353 0.871091 0.322826 0.141288
H20   H     H_    0.432403 0.249750 0.174605 0.151006
H21   H     H_    0.884007 0.059068 0.196297 0.176830
H22   H     H_    0.859061 0.101271 0.323157 0.140073
H23   H     H_    0.328125 0.745654 0.302075 0.169731
O1    O     O_R   0.507430 0.255570 0.581420 -0.465257
O2    O     O_R   0.837200 0.593290 0.915250 -0.493551
O3    O     O_R   0.065330 0.635370 0.931590 -0.456457
O4    O     O_R   0.280190 0.527390 0.578910 -0.473577
O5    O     O_R   0.068300 0.828790 0.091860 -0.459742
O6    O     O_R   0.798730 0.057480 0.079370 -0.491461
O7    O     O_R   0.584680 0.080480 0.076790 -0.523822
O8    O     O_R   0.626790 0.809640 0.067050 -0.485033
O9    O     O_R   0.816010 0.596460 0.076500 -0.469791
O10   O     O_R   0.045680 0.638310 0.081070 -0.522270
O11   O     O_3   0.833590 0.833690 0.001120 -0.322217
O12   O     O_R   0.524460 0.695920 0.424060 -0.502372
O13   O     O_R   0.260310 0.739740 0.584580 -0.438931
O14   O     O_R   0.532250 0.695150 0.573830 -0.453997
O15   O     O_R   0.744930 0.503430 0.576380 -0.494270
O16   O     O_R   0.699250 0.276390 0.571950 -0.430682
O17   O     O_R   0.499020 0.256400 0.419850 -0.515028
O18   O     O_R   0.272400 0.528160 0.429140 -0.502775
O19   O     O_R   0.251910 0.740570 0.423020 -0.513964
O20   O     O_R   0.736530 0.504260 0.414810 -0.516121
O21   O     O_R   0.691460 0.277160 0.422180 -0.502639
O22   O     O_3   0.499990 0.499990 0.499980 -0.318427
O23   O     O_R   0.089490 0.825610 0.930610 -0.496465
O24   O     O_R   0.818370 0.054540 0.929880 -0.487529
O25   O     O_R   0.605870 0.077310 0.915530 -0.505629
O26   O     O_R   0.646440 0.806700 0.917570 -0.432783

loop_
_geom_bond_atom_site_label_1
_geom_bond_atom_site_label_2
_ccdc_geom_bond_type
C14   Cl6   S    
C27   C29   A    
C1    C11   S    
C36   O26   A    
C7    C8    A    
C45   C46   S    
C27   C33   A    
C31   H2    S    
C12   C23   S    
C42   O21   A    
Cr6   O10   S    
C30   C31   A    
C39   O9    A    
Cr3   O20   S    
C28   O19   A    
C22   C38   S    
C4    O15   A    
C25   H22   S    
C23   C43   S    
C45   H8    S    
C18   C19   A    
Cr4   O24   S    
C5    C16   S    
Cr4   O11   S    
C2    C50   A    
C12   Cl9   S    
C16   O16   A    
Cr5   O11   S    
C41   O5    A    
C28   O18   A    
C8    C9    A    
C4    O14   A    
C38   O7    A    
C18   H19   S    
C30   C41   S    
C35   O25   A    
C9    C10   A    
C47   H1    S    
C46   H7    S    
C32   H3    S    
C16   O1    A    
C49   H9    S    
C23   C46   S    
C13   C14   A    
C35   C50   S    
C12   C47   S    
Cr2   O22   S    
Cr3   O16   S    
Cr1   O4    S    
C43   H10   S    
Cr6   O2    S    
C5    C48   A    
C21   H20   S    
Cr5   O26   S    
C37   O3    A    
C34   C44   S    
C24   C25   A    
Cr6   O11   S    
C10   C11   A    
C6    C11   A    
C13   C19   A    
C25   C26   A    
Cr1   O1    S    
Cr2   O13   S    
C43   C44   S    
C29   C30   A    
C31   C32   A    
Cr4   O6    S    
C13   H11   S    
C44   Cl7   S    
C38   O6    A    
C3    H17   S    
C17   C18   A    
C44   H4    S    
C34   C45   S    
C29   Cl8   S    
C10   Cl5   S    
C15   C39   S    
C9    H18   S    
C48   C49   A    
C12   H6    S    
C28   C33   S    
C23   C36   S    
C1    O4    A    
C22   C24   A    
Cr2   O12   S    
C8    C37   S    
C6    Cl3   S    
C1    O13   A    
Cr1   O18   S    
C26   C42   S    
Cr3   O15   S    
C36   O2    A    
Cr6   O3    S    
Cr5   O25   S    
C20   H14   S    
C45   H5    S    
C14   C15   A    
Cr5   O7    S    
C3    C5    A    
C40   O12   A    
C15   C17   A    
C6    C7    A    
Cr4   O5    S    
C40   O20   A    
C32   C33   A    
Cr2   O14   S    
Cr6   O9    S    
C2    H12   S    
C46   H15   S    
C43   Cl1   S    
Cr3   O21   S    
C20   C26   A    
Cr3   O22   S    
C17   H13   S    
C2    C3    A    
Cr5   O8    S    
C47   H16   S    
C4    C34   S    
Cr4   O23   S    
C27   H23   S    
Cr2   O19   S    
C42   O17   A    
C39   O8    A    
C37   O23   A    
Cr1   O22   S    
C19   C40   S    
C35   O24   A    
C48   Cl2   S    
C20   C21   A    
C49   C50   A    
C41   O10   A    
C34   C47   S    
C7    Cl4   S    
C21   C22   A    
C24   H21   S    
Cr1   O17   S    
