data_mof_unit_54638.cif
_audit_creation_date              2012-12-10T17:57:52-0500
_audit_creation_method            fapswitch 2.2
_symmetry_space_group_name_H-M    P1
_symmetry_Int_Tables_number       1
_space_group_crystal_system       triclinic
_cell_length_a                    10.816627
_cell_length_b                    9.707984
_cell_length_c                    15.045339
_cell_angle_alpha                 90.444837
_cell_angle_beta                  93.914263
_cell_angle_gamma                 90.092019
_cell_volume                      1576.13910247

loop_
_atom_site_label
_atom_site_type_symbol
_atom_type_description
_atom_site_fract_x
_atom_site_fract_y
_atom_site_fract_z
_atom_type_partial_charge
C1    C     C_R   0.262701 0.499944 0.500641 0.842832
C2    C     C_R   0.737299 0.500056 0.499359 0.842829
C3    C     C_R   0.271890 0.500369 0.027889 -0.138905
C4    C     C_R   0.728110 0.499632 0.972110 -0.138903
C5    C     C_R   0.063820 0.374896 0.501214 -0.158890
C6    C     C_R   0.936180 0.625104 0.498786 -0.158896
C7    C     C_R   0.935892 0.374946 0.499982 -0.140256
C8    C     C_R   0.064108 0.625054 0.500018 -0.140259
C9    C     C_R   0.871441 0.500063 0.499155 -0.010732
C10   C     C_R   0.128559 0.499937 0.500845 -0.010733
C11   C     C_R   0.419865 0.072979 0.443153 0.189209
C12   C     C_R   0.580135 0.927021 0.556847 0.189210
C13   C     C_R   0.580004 0.074517 0.557058 0.199054
C14   C     C_R   0.419996 0.925483 0.442941 0.199052
C15   C     C_R   0.494535 0.499438 0.329219 0.860877
C16   C     C_R   0.505465 0.500562 0.670781 0.860871
C17   C     C_R   0.623058 0.512342 0.821170 -0.056954
C18   C     C_R   0.376941 0.487657 0.178830 -0.056960
C19   C     C_R   0.510081 0.501563 0.767678 -0.107840
C20   C     C_R   0.489918 0.498436 0.232322 -0.107840
C21   C     C_R   0.396775 0.495497 0.806282 -0.242883
C22   C     C_R   0.603224 0.504501 0.193718 -0.242885
C23   C     C_R   0.392122 0.498516 0.898295 0.121932
C24   C     C_R   0.607878 0.501483 0.101704 0.121932
C25   C     C_R   0.502892 0.500991 0.953270 0.058455
C26   C     C_R   0.497108 0.499007 0.046730 0.058455
C27   C     C_R   0.619199 0.505386 0.915069 0.043500
C28   C     C_R   0.380801 0.494613 0.084931 0.043499
C29   C     C_R   0.277666 0.499866 0.935916 -0.189858
C30   C     C_R   0.722335 0.500134 0.064084 -0.189857
Cu1   Cu    Cu3+1 0.500000 0.640660 0.500000 1.028711
Cu2   Cu    Cu3+1 0.500000 0.359340 0.500000 1.028712
H1    H     H_    0.311423 0.490798 0.763943 0.134408
H2    H     H_    0.688577 0.509201 0.236057 0.134407
H3    H     H_    0.192058 0.501897 0.894032 0.154825
H4    H     H_    0.807943 0.498104 0.105968 0.154822
H5    H     H_    0.181045 0.507985 0.053124 0.182234
H6    H     H_    0.818954 0.492018 0.946874 0.182230
H7    H     H_    0.111580 0.276954 0.502470 0.176616
H8    H     H_    0.888420 0.723046 0.497530 0.176617
H9    H     H_    0.887908 0.276988 0.499735 0.176007
H10   H     H_    0.112092 0.723012 0.500265 0.176007
N1    N     N_R   0.500000 0.852070 0.500000 -0.230544
N2    N     N_R   0.500000 0.147930 0.500000 -0.230546
O1    O     O_R   0.319640 0.618740 0.499990 -0.567614
O2    O     O_R   0.680360 0.381260 0.500010 -0.567615
O3    O     O_R   0.680360 0.618740 0.500010 -0.574513
O4    O     O_R   0.319640 0.381260 0.499990 -0.574513
O5    O     O_R   0.499970 0.618800 0.370260 -0.548105
O6    O     O_R   0.500030 0.381200 0.629740 -0.548106
O7    O     O_R   0.500030 0.618800 0.629740 -0.562619
O8    O     O_R   0.499970 0.381200 0.370260 -0.562618
C31   C     C_2   0.742403 0.539470 0.780034 0.848661
O9    O     O_2   0.765449 0.482676 0.710483 -0.588405
O10   O     O_R   0.826900 0.634883 0.819368 -0.747896
H11   H     H_    0.904283 0.644245 0.785436 0.344168
C32   C     C_2   0.257595 0.460536 0.219966 0.848687
O11   O     O_2   0.234556 0.517321 0.289519 -0.588412
O12   O     O_R   0.173088 0.365138 0.180628 -0.747914
H12   H     H_    0.095696 0.355797 0.214549 0.344167
I1    I     I_    0.290419 0.174341 0.352631 -0.260327
I2    I     I_    0.709582 0.825660 0.647368 -0.260345
I3    I     I_    0.707937 0.177531 0.649801 -0.235117
I4    I     I_    0.292062 0.822470 0.350200 -0.235123

loop_
_geom_bond_atom_site_label_1
_geom_bond_atom_site_label_2
_ccdc_geom_bond_type
O10   H11   S    
C1    O4    A    
C2    O3    A    
C25   C27   A    
C12   I2    S    
C29   H3    S    
C18   C32   S    
C26   C28   A    
Cu1   Cu2   S    
C13   I3    S    
C16   O7    A    
C30   H4    S    
C8    H10   S    
C14   I4    S    
C7    C9    A    
C4    C27   A    
C6    C9    A    
C15   O5    A    
Cu2   N2    S    
O12   H12   S    
Cu1   O3    S    
C31   O9    D    
C2    O2    A    
Cu2   O4    S    
C1    O1    A    
C32   O11   D    
Cu1   N1    S    
Cu1   O5    S    
C16   C19   S    
C23   C29   A    
C3    C28   A    
C17   C19   A    
C16   O6    A    
Cu2   O6    S    
C12   N1    A    
C18   C20   A    
C5    H7    S    
C21   C23   A    
C15   C20   S    
C22   H2    S    
C11   C14   A    
C22   C24   A    
C11   N2    A    
C32   O12   S    
C24   C30   A    
C21   H1    S    
C20   C22   A    
C31   O10   S    
C17   C27   A    
C17   C31   S    
C5    C10   A    
C6    H8    S    
C18   C28   A    
C12   C13   A    
C3    H5    S    
C8    C10   A    
C23   C25   A    
Cu1   O1    S    
Cu1   O7    S    
C5    C7    A    
Cu2   O8    S    
C3    C29   A    
C6    C8    A    
C19   C21   A    
C25   C26   A    
C15   O8    A    
C2    C9    S    
Cu2   O2    S    
C13   N2    A    
C4    C30   A    
C1    C10   S    
C24   C26   A    
C7    H9    S    
C4    H6    S    
C14   N1    A    
C11   I1    S    
