data_mof_unit_22991.cif
_audit_creation_date              2012-12-10T18:04:30-0500
_audit_creation_method            fapswitch 2.2
_symmetry_space_group_name_H-M    P1
_symmetry_Int_Tables_number       1
_space_group_crystal_system       triclinic
_cell_length_a                    19.539151
_cell_length_b                    17.654595
_cell_length_c                    12.583307
_cell_angle_alpha                 90.123391
_cell_angle_beta                  99.086253
_cell_angle_gamma                 90.020224
_cell_volume                      4286.20560249

loop_
_atom_site_label
_atom_site_type_symbol
_atom_type_description
_atom_site_fract_x
_atom_site_fract_y
_atom_site_fract_z
_atom_type_partial_charge
C1    C     C_R   0.413347 0.105043 0.445497 0.854610
C2    C     C_R   0.773841 0.773843 0.653771 0.061409
C3    C     C_3   0.294486 0.494565 0.898020 -0.842730
C4    C     C_1   0.376810 0.760908 0.793094 0.140401
C5    C     C_1   0.371424 0.233498 0.794506 0.135747
C6    C     C_1   0.876811 0.260906 0.793093 0.140402
C7    C     C_1   0.871424 0.733497 0.794506 0.135747
C8    C     C_R   0.278163 0.721051 0.653717 0.041042
C9    C     C_R   0.273840 0.273843 0.653770 0.061409
C10   C     C_R   0.344152 0.753561 0.682164 -0.003192
C11   C     C_R   0.340026 0.242171 0.683197 -0.003337
C12   C     C_R   0.844152 0.253560 0.682163 -0.003193
C13   C     C_R   0.840026 0.742171 0.683197 -0.003337
C14   C     C_R   0.377852 0.783181 0.602043 -0.253518
C15   C     C_R   0.375371 0.214884 0.603435 -0.254557
C16   C     C_R   0.877852 0.283180 0.602042 -0.253518
C17   C     C_R   0.413241 0.895005 0.445266 0.853456
C18   C     C_R   0.875372 0.714884 0.603435 -0.254557
C19   C     C_R   0.684923 0.179641 0.516113 -0.322731
C20   C     C_R   0.682513 0.817515 0.515168 -0.323094
C21   C     C_R   0.184923 0.679640 0.516113 -0.322732
C22   C     C_R   0.182513 0.317514 0.515168 -0.323094
C23   C     C_R   0.672459 0.167960 0.703432 0.480241
C24   C     C_R   0.667156 0.826039 0.701695 0.436213
C25   C     C_R   0.172458 0.667961 0.703432 0.480241
C26   C     C_R   0.167156 0.326039 0.701695 0.436213
C27   C     C_R   0.369764 0.828610 0.414435 -0.109356
C28   C     C_R   0.913347 0.605043 0.445497 0.854610
C29   C     C_R   0.369872 0.171355 0.415097 -0.110607
C30   C     C_R   0.869764 0.328611 0.414435 -0.109356
C31   C     C_R   0.869873 0.671355 0.415097 -0.110607
C32   C     C_R   0.642857 0.011545 0.134341 -0.273000
C33   C     C_R   0.142857 0.511545 0.134341 -0.272998
C34   C     C_R   0.378802 0.997346 0.762260 0.046569
C35   C     C_R   0.878802 0.497346 0.762260 0.046569
C36   C     C_R   0.353255 0.994342 0.858708 -0.245802
C37   C     C_R   0.853255 0.494342 0.858708 -0.245803
C38   C     C_R   0.589697 0.897743 0.556728 0.871260
C39   C     C_R   0.913241 0.395005 0.445265 0.853455
C40   C     C_R   0.590426 0.101579 0.557250 0.872564
C41   C     C_R   0.089697 0.397743 0.556728 0.871259
C42   C     C_R   0.090426 0.601579 0.557250 0.872564
C43   C     C_R   0.399553 0.994213 0.954619 -0.141404
C44   C     C_R   0.899553 0.494213 0.954619 -0.141405
C45   C     C_R   0.471988 0.997175 0.953901 0.001182
C46   C     C_R   0.971988 0.497175 0.953901 0.001181
C47   C     C_R   0.495188 0.999627 0.853683 0.116735
C48   C     C_R   0.995188 0.499627 0.853683 0.116737
C49   C     C_R   0.521891 0.998968 0.047994 -0.077158
C50   C     C_R   0.750576 0.211163 0.543099 0.067349
C51   C     C_R   0.021891 0.498968 0.047994 -0.077159
C52   C     C_R   0.593682 0.006910 0.040711 0.041185
C53   C     C_R   0.093682 0.506910 0.040711 0.041186
C54   C     C_R   0.615634 0.009977 0.940647 0.434416
C55   C     C_R   0.115634 0.509977 0.940647 0.434417
C56   C     C_R   0.566194 0.003661 0.848339 -0.174180
C57   C     C_R   0.066194 0.503661 0.848339 -0.174181
C58   C     C_R   0.503219 0.995109 0.150270 -0.004182
C59   C     C_R   0.003219 0.495109 0.150270 -0.004181
C60   C     C_R   0.620682 0.007925 0.232908 -0.017597
C61   C     C_R   0.747681 0.785250 0.542971 0.064732
C62   C     C_R   0.120682 0.507925 0.232908 -0.017597
C63   C     C_R   0.738316 0.199650 0.732714 -0.300517
C64   C     C_R   0.732714 0.793692 0.731909 -0.323167
C65   C     C_R   0.238315 0.699651 0.732714 -0.300517
C66   C     C_R   0.232714 0.293691 0.731909 -0.323167
C67   C     C_R   0.648265 0.152678 0.594259 -0.180319
C68   C     C_R   0.645451 0.844220 0.592934 -0.148738
C69   C     C_R   0.148265 0.652678 0.594259 -0.180318
C70   C     C_R   0.145450 0.344220 0.592934 -0.148738
C71   C     C_R   0.346758 0.814365 0.304766 -0.189342
C72   C     C_R   0.250577 0.711163 0.543100 0.067349
C73   C     C_R   0.348023 0.186476 0.305467 -0.186567
C74   C     C_R   0.846757 0.314366 0.304766 -0.189342
C75   C     C_R   0.848024 0.686477 0.305467 -0.186568
C76   C     C_R   0.297571 0.758653 0.273645 -0.144416
C77   C     C_R   0.298518 0.241715 0.274423 -0.149712
C78   C     C_R   0.797570 0.258655 0.273644 -0.144416
C79   C     C_R   0.798519 0.741716 0.274423 -0.149712
C80   C     C_R   0.266815 0.721262 0.351023 -0.189797
C81   C     C_R   0.266306 0.277639 0.351588 -0.188556
C82   C     C_R   0.766814 0.221263 0.351022 -0.189797
C83   C     C_R   0.247681 0.285250 0.542971 0.064732
C84   C     C_R   0.766307 0.777640 0.351588 -0.188555
C85   C     C_R   0.287343 0.737164 0.462102 0.106152
C86   C     C_R   0.285710 0.260806 0.462537 0.105339
C87   C     C_R   0.787343 0.237164 0.462101 0.106152
C88   C     C_R   0.785710 0.760806 0.462537 0.105339
C89   C     C_R   0.345886 0.783059 0.493203 0.062535
C90   C     C_R   0.344577 0.215668 0.494038 0.062342
C91   C     C_R   0.845885 0.283059 0.493203 0.062535
C92   C     C_R   0.844577 0.715668 0.494038 0.062342
C93   C     C_3   0.601439 0.216380 0.812392 0.103793
C94   C     C_R   0.778164 0.221051 0.653716 0.041042
C95   C     C_3   0.566836 0.200299 0.909997 -0.765056
C96   C     C_3   0.600842 0.781426 0.821756 0.086672
C97   C     C_3   0.569666 0.803412 0.920723 -0.808002
C98   C     C_3   0.101439 0.716380 0.812392 0.103792
C99   C     C_3   0.066836 0.700300 0.909997 -0.765055
C100  C     C_3   0.100842 0.281427 0.821757 0.086666
C101  C     C_3   0.069669 0.303412 0.920727 -0.808016
C102  C     C_3   0.717756 0.975351 0.884426 0.146237
C103  C     C_3   0.794486 0.994564 0.898021 -0.842730
C104  C     C_3   0.217756 0.475351 0.884425 0.146236
H1    H     H_    0.697765 0.017485 0.131832 0.185050
H2    H     H_    0.797937 0.492225 0.859226 0.141386
H3    H     H_    0.584298 0.005176 0.773176 0.236380
H4    H     H_    0.084298 0.505176 0.773176 0.236379
H5    H     H_    0.757300 0.208045 0.817525 0.174321
H6    H     H_    0.751127 0.784954 0.816747 0.157653
H7    H     H_    0.257298 0.708047 0.817525 0.174322
H8    H     H_    0.251127 0.284954 0.816747 0.157653
H9    H     H_    0.660639 0.175878 0.433288 0.180210
H10   H     H_    0.659293 0.822997 0.432109 0.179275
H11   H     H_    0.160639 0.675878 0.433288 0.180210
H12   H     H_    0.197765 0.517485 0.131832 0.185050
H13   H     H_    0.159292 0.322996 0.432109 0.179275
H14   H     H_    0.365872 0.847138 0.242914 0.157933
H15   H     H_    0.368235 0.154711 0.243525 0.161153
H16   H     H_    0.865871 0.347139 0.242913 0.157932
H17   H     H_    0.868236 0.654712 0.243525 0.161153
H18   H     H_    0.728139 0.179386 0.321731 0.131485
H19   H     H_    0.727406 0.819082 0.322130 0.130750
H20   H     H_    0.228140 0.679385 0.321732 0.131485
H21   H     H_    0.227405 0.319080 0.322130 0.130750
H22   H     H_    0.280969 0.746723 0.189054 0.151184
H23   H     H_    0.450686 0.988876 0.164578 0.116794
H24   H     H_    0.282768 0.254325 0.189922 0.143818
H25   H     H_    0.780967 0.246725 0.189054 0.151184
H26   H     H_    0.782769 0.754326 0.189923 0.143818
H27   H     H_    0.429255 0.806500 0.625844 0.176686
H28   H     H_    0.427079 0.192671 0.627973 0.175140
H29   H     H_    0.929256 0.306500 0.625843 0.176686
H30   H     H_    0.927079 0.692671 0.627973 0.175141
H31   H     H_    0.657607 0.011800 0.306457 0.139696
H32   H     H_    0.157607 0.511800 0.306457 0.139696
H33   H     H_    0.561110 0.235723 0.745332 0.130747
H34   H     H_    0.950686 0.488876 0.164578 0.116794
H35   H     H_    0.639616 0.262931 0.834846 0.125980
H36   H     H_    0.605664 0.179110 0.977411 0.261871
H37   H     H_    0.543440 0.253114 0.936080 0.207492
H38   H     H_    0.525420 0.157357 0.889505 0.258003
H39   H     H_    0.641330 0.737854 0.847146 0.133332
H40   H     H_    0.559451 0.756303 0.760912 0.152171
H41   H     H_    0.526573 0.844000 0.898149 0.268887
H42   H     H_    0.549374 0.752230 0.956364 0.221587
H43   H     H_    0.609762 0.830154 0.981709 0.237342
H44   H     H_    0.061109 0.735723 0.745332 0.130748
H45   H     H_    0.343426 0.997183 0.686913 0.139451
H46   H     H_    0.139615 0.762931 0.834845 0.125980
H47   H     H_    0.105663 0.679111 0.977411 0.261871
H48   H     H_    0.043440 0.753114 0.936080 0.207492
H49   H     H_    0.025419 0.657357 0.889506 0.258003
H50   H     H_    0.141329 0.237854 0.847141 0.133336
H51   H     H_    0.059449 0.256306 0.760916 0.152177
H52   H     H_    0.026578 0.344000 0.898158 0.268888
H53   H     H_    0.049378 0.252230 0.956369 0.221589
H54   H     H_    0.109768 0.330150 0.981711 0.237344
H55   H     H_    0.698091 0.973317 0.796680 0.174073
H56   H     H_    0.843426 0.497183 0.686913 0.139451
H57   H     H_    0.712487 0.919006 0.922061 0.163364
H58   H     H_    0.816547 0.997135 0.984888 0.252640
H59   H     H_    0.822304 0.950369 0.858612 0.214426
H60   H     H_    0.801921 0.050219 0.860386 0.267427
H61   H     H_    0.198091 0.473317 0.796680 0.174073
H62   H     H_    0.212487 0.419007 0.922060 0.163364
H63   H     H_    0.316547 0.497135 0.984887 0.252640
H64   H     H_    0.322304 0.450369 0.858611 0.214426
H65   H     H_    0.301921 0.550219 0.860385 0.267427
H66   H     H_    0.376889 0.992611 0.027204 0.125081
H67   H     H_    0.876889 0.492611 0.027204 0.125081
H68   H     H_    0.297937 0.992225 0.859226 0.141387
N1    N     N_R   0.552340 0.000000 0.237260 -0.101421
N2    N     N_R   0.052340 0.500000 0.237260 -0.101421
N3    N     N_R   0.448170 0.000000 0.762060 -0.120662
N4    N     N_R   0.948170 0.500000 0.762060 -0.120662
N5    N     N_1   0.402391 0.766758 0.882133 -0.225967
N6    N     N_1   0.396062 0.226499 0.883776 -0.229939
N7    N     N_1   0.902393 0.266755 0.882132 -0.225966
N8    N     N_1   0.896062 0.726498 0.883777 -0.229939
O1    O     O_R   0.448200 0.076800 0.373930 -0.613659
O2    O     O_R   0.585240 0.076800 0.457600 -0.620070
O3    O     O_R   0.085240 0.423200 0.457600 -0.620475
O4    O     O_R   0.085240 0.576800 0.457600 -0.620071
O5    O     O_R   0.551780 0.923190 0.626070 -0.596635
O6    O     O_R   0.551780 0.076810 0.626070 -0.605988
O7    O     O_R   0.051780 0.423190 0.626070 -0.596635
O8    O     O_R   0.051780 0.576810 0.626070 -0.605988
O9    O     O_3   0.633607 0.149714 0.782315 -0.580506
O10   O     O_3   0.628017 0.846884 0.779381 -0.644862
O11   O     O_3   0.133606 0.649715 0.782315 -0.580506
O12   O     O_R   0.448200 0.923200 0.373930 -0.616853
O13   O     O_3   0.128017 0.346884 0.779381 -0.644862
O14   O     O_3   0.683194 0.031947 0.934558 -0.593691
O15   O     O_3   0.183194 0.531947 0.934558 -0.593691
O16   O     O_R   0.948200 0.576800 0.373930 -0.613659
O17   O     O_R   0.948200 0.423200 0.373930 -0.616853
O18   O     O_R   0.414750 0.076790 0.542400 -0.618505
O19   O     O_R   0.414750 0.923210 0.542400 -0.618812
O20   O     O_R   0.914750 0.576790 0.542400 -0.618506
O21   O     O_R   0.914750 0.423210 0.542400 -0.618811
O22   O     O_R   0.585240 0.923200 0.457600 -0.620476
Zn1   Zn    Zn3+2 0.522330 0.000000 0.387520 0.930948
Zn2   Zn    Zn3+2 0.022330 0.500000 0.387520 0.930948
Zn3   Zn    Zn3+2 0.477660 0.000000 0.612480 0.942765
Zn4   Zn    Zn3+2 0.977660 0.500000 0.612480 0.942766

loop_
_geom_bond_atom_site_label_1
_geom_bond_atom_site_label_2
_ccdc_geom_bond_type
C3    C104  S    
C22   H13   S    
C55   O15   S    
C31   C92   A    
C54   O14   S    
C87   C91   A    
C6    N7    T    
C76   H22   S    
C97   H42   S    
C1    O18   A    
C4    N5    T    
C21   H11   S    
C59   N2    A    
C7    C13   S    
C72   C85   A    
C3    H63   S    
C48   C57   A    
C56   H3    S    
C100  O13   S    
C84   H19   S    
C63   C94   A    
O8    Zn4   S    
C95   H36   S    
C28   O20   A    
C13   C18   A    
O4    Zn2   S    
O3    Zn2   S    
C35   C37   A    
C78   H25   S    
C5    C11   S    
C41   O3    A    
C93   H33   S    
C6    C12   S    
C79   C84   A    
C30   C74   A    
C48   N4    A    
C29   C73   A    
C19   H9    S    
C23   C67   A    
C82   C87   A    
C62   N2    A    
O19   Zn3   S    
C41   O7    A    
O17   Zn2   S    
C45   C47   A    
C62   H32   S    
C20   C61   A    
C2    C13   A    
C73   C77   A    
C35   H56   S    
C65   H7    S    
C34   N3    A    
C104  H61   S    
C9    C66   A    
C11   C15   A    
C43   H66   S    
C32   C52   A    
C15   H28   S    
C12   C16   A    
C52   C54   A    
C33   C62   A    
C103  H58   S    
C40   C67   S    
C7    N8    T    
O20   Zn4   S    
O21   Zn4   S    
C19   C67   A    
C30   C91   A    
C45   C49   A    
O16   Zn2   S    
C74   C78   A    
C81   C86   A    
C71   H14   S    
C2    C61   A    
C23   C63   A    
C39   O17   A    
C101  H53   S    
C58   H23   S    
C93   C95   S    
O18   Zn3   S    
C60   N1    A    
C97   H43   S    
C12   C94   A    
O1    Zn1   S    
C96   O10   S    
C16   H29   S    
C102  O14   S    
C1    C29   S    
C29   C90   A    
C34   H45   S    
C2    C64   A    
C3    H64   S    
C40   O2    A    
C14   H27   S    
C53   C55   A    
C17   O12   A    
C33   C53   A    
C42   O8    A    
C36   H68   S    
C8    C72   A    
O22   Zn1   S    
C21   C72   A    
O2    Zn1   S    
C17   C27   S    
C88   C92   A    
C25   C65   A    
C86   C90   A    
C1    O1    A    
C3    H65   S    
C44   C46   A    
C59   H34   S    
C42   O4    A    
C79   H26   S    
C99   H47   S    
C46   C51   A    
C42   C69   S    
C49   C58   A    
C21   C69   A    
C51   C53   A    
C26   C66   A    
C63   H5    S    
C14   C89   A    
C80   C85   A    
C93   H35   S    
C61   C88   A    
O5    Zn3   S    
C96   H40   S    
C43   C45   A    
C78   C82   A    
C31   C75   A    
C77   C81   A    
C49   C52   A    
C96   C97   S    
C83   C86   A    
N2    Zn2   S    
C103  H60   S    
C9    C11   A    
C60   H31   S    
C77   H24   S    
C50   C87   A    
C9    C83   A    
C100  H51   S    
C8    C10   A    
C38   C68   S    
C101  H54   S    
C95   H37   S    
C27   C89   A    
C32   H1    S    
C55   C57   A    
C25   O11   S    
C26   C70   A    
C58   N1    A    
C51   C59   A    
C35   N4    A    
C4    C10   S    
C23   O9    S    
C40   O6    A    
C27   C71   A    
C98   H46   S    
C100  H50   S    
C33   H12   S    
C85   C89   A    
O6    Zn3   S    
C81   H21   S    
C75   H17   S    
C97   H41   S    
C20   C68   A    
C28   C31   S    
C50   C94   A    
C84   C88   A    
C98   O11   S    
C102  H55   S    
C76   C80   A    
C54   C56   A    
C93   O9    S    
C38   O5    A    
C74   H16   S    
C99   H48   S    
C103  H59   S    
C101  H52   S    
N1    Zn1   S    
C18   C92   A    
C22   C83   A    
C37   C44   A    
C39   O21   A    
C44   H67   S    
C37   H2    S    
C96   H39   S    
C20   H10   S    
C19   C50   A    
C71   C76   A    
C98   H44   S    
C102  H57   S    
C99   H49   S    
O7    Zn4   S    
C100  C101  S    
C28   O16   A    
C104  O15   S    
C22   C70   A    
C30   C39   S    
C17   O19   A    
C18   H30   S    
C34   C36   A    
C102  C103  S    
C47   N3    A    
C5    N6    T    
N4    Zn4   S    
C80   H20   S    
C24   C68   A    
C104  H62   S    
C73   H15   S    
C46   C48   A    
C16   C91   A    
C8    C65   A    
C57   H4    S    
C25   C69   A    
C95   H38   S    
C24   C64   A    
C98   C99   S    
C38   O22   A    
C32   C60   A    
N3    Zn3   S    
C47   C56   A    
C36   C43   A    
C24   O10   S    
C66   H8    S    
C26   O13   S    
C75   C79   A    
C82   H18   S    
C41   C70   S    
O12   Zn1   S    
C10   C14   A    
C64   H6    S    
C15   C90   A    
