data_mof_unit_11736.cif
_audit_creation_date              2012-12-10T18:33:29-0500
_audit_creation_method            fapswitch 2.2
_symmetry_space_group_name_H-M    P1
_symmetry_Int_Tables_number       1
_space_group_crystal_system       triclinic
_cell_length_a                    8.769081
_cell_length_b                    15.113516
_cell_length_c                    13.858548
_cell_angle_alpha                 89.882458
_cell_angle_beta                  97.392624
_cell_angle_gamma                 90.173747
_cell_volume                      1821.41814114

loop_
_atom_site_label
_atom_site_type_symbol
_atom_type_description
_atom_site_fract_x
_atom_site_fract_y
_atom_site_fract_z
_atom_type_partial_charge
C1    C     C_R   0.498962 0.329880 0.500048 0.806662
C2    C     C_R   0.499161 0.670127 0.499814 0.785661
C3    C     C_R   0.630852 0.531834 0.118803 0.153852
C4    C     C_R   0.455338 0.422475 0.888463 0.145880
C5    C     C_R   0.623635 0.533338 0.220056 -0.003402
C6    C     C_R   0.452608 0.426318 0.786352 -0.002859
C7    C     C_R   0.377747 0.466998 0.198622 0.043597
C8    C     C_R   0.548292 0.572520 0.795324 0.039366
C9    C     C_R   0.376641 0.467058 0.097110 -0.301034
C10   C     C_R   0.548446 0.573109 0.896734 -0.299560
C11   C     C_R   0.504165 0.498787 0.055000 0.109987
C12   C     C_R   0.502879 0.497697 0.945671 0.113073
C13   C     C_R   0.204382 0.505536 0.475945 0.882217
C14   C     C_R   0.795606 0.499427 0.524426 0.814003
C15   C     C_2   0.040874 0.523992 0.467362 0.033781
C16   C     C_2   0.960021 0.490235 0.536430 -0.014639
C17   C     C_R   0.418592 0.096272 0.572981 0.260678
C18   C     C_R   0.420250 0.903562 0.413653 0.261867
C19   C     C_R   0.429086 0.188563 0.573711 -0.261837
C20   C     C_R   0.430957 0.811326 0.414542 -0.268957
C21   C     C_R   0.493600 0.233436 0.500140 -0.061555
C22   C     C_R   0.493825 0.766563 0.498931 -0.055526
C23   C     C_R   0.550856 0.185873 0.426229 -0.208549
C24   C     C_R   0.549348 0.814236 0.582580 -0.209052
C25   C     C_R   0.545599 0.094082 0.426450 -0.179193
C26   C     C_R   0.543974 0.906012 0.581609 -0.177747
C27   C     C_R   0.479098 0.048582 0.498942 0.084713
C28   C     C_R   0.479070 0.951371 0.497948 0.085065
Cu1   Cu    Cu3+1 0.500000 0.499990 0.596430 0.934759
Cu2   Cu    Cu3+1 0.500000 0.500010 0.403570 0.931373
H1    H     H_    0.382828 0.225330 0.630357 0.140911
H2    H     H_    0.386233 0.774512 0.349971 0.146263
H3    H     H_    0.602227 0.219626 0.369313 0.157438
H4    H     H_    0.599485 0.780607 0.648129 0.143752
N1    N     N_R   0.500000 0.500020 0.258690 -0.183101
N2    N     N_R   0.500000 0.499980 0.741310 -0.178975
O1    O     O_R   0.500010 0.371450 0.581430 -0.593748
O2    O     O_R   0.499990 0.628550 0.418570 -0.590480
O3    O     O_R   0.500010 0.371460 0.418560 -0.578227
O4    O     O_R   0.499990 0.628540 0.581440 -0.598338
O5    O     O_R   0.274840 0.499990 0.562640 -0.557141
O6    O     O_R   0.725160 0.500010 0.437360 -0.581670
O7    O     O_R   0.274840 0.500000 0.399770 -0.601779
O8    O     O_R   0.725160 0.500000 0.600230 -0.578857
N3    N     N_2   0.971153 0.587375 0.397309 -0.448325
H5    H     H_    0.900829 0.632842 0.425100 0.247593
C29   C     C_3   0.056702 0.624592 0.324208 -0.685301
H6    H     H_    0.983465 0.672910 0.279169 0.200953
H7    H     H_    0.088090 0.571903 0.274749 0.250083
H8    H     H_    0.160518 0.659962 0.359146 0.229297
N4    N     N_2   0.027902 0.433161 0.612525 -0.426314
H9    H     H_    0.971184 0.373396 0.614464 0.238933
C30   C     C_3   0.054908 0.473721 0.707900 -0.617038
H10   H     H_    0.121093 0.427455 0.759522 0.202753
H11   H     H_    0.944622 0.488302 0.735843 0.227086
H12   H     H_    0.122023 0.535962 0.705408 0.241395
N5    N     N_2   0.348442 0.052317 0.647083 -0.443601
H13   H     H_    0.355740 0.086955 0.711613 0.244495
C31   C     C_3   0.194221 0.020191 0.616552 -0.700350
H14   H     H_    0.149173 0.987302 0.678837 0.226026
H15   H     H_    0.193832 0.970788 0.557452 0.243172
H16   H     H_    0.117076 0.076085 0.591197 0.220084
N6    N     N_2   0.351485 0.947374 0.327832 -0.442470
H17   H     H_    0.360259 0.912949 0.264568 0.245720
C32   C     C_3   0.196718 0.978609 0.332120 -0.701475
H18   H     H_    0.152791 0.011497 0.262379 0.226593
H19   H     H_    0.194843 0.027790 0.391244 0.243179
H20   H     H_    0.119576 0.922227 0.344071 0.219406
H21   H     H_    0.594889 0.058330 0.370317 0.155027
H22   H     H_    0.591959 0.941866 0.646113 0.153896
N7    N     N_2   0.766319 0.562608 0.082706 -0.442941
H23   H     H_    0.823185 0.611969 0.124365 0.242993
C33   C     C_3   0.869536 0.493186 0.060570 -0.700938
H24   H     H_    0.969193 0.522812 0.030172 0.222799
H25   H     H_    0.810527 0.447058 0.005604 0.241750
H26   H     H_    0.912707 0.455897 0.127747 0.219829
N8    N     N_2   0.411874 0.342542 0.932227 -0.445938
H27   H     H_    0.333109 0.305206 0.887763 0.237168
C34   C     C_3   0.539728 0.289897 0.976486 -0.691365
H28   H     H_    0.495416 0.230465 0.011158 0.226441
H29   H     H_    0.611842 0.328119 0.033653 0.242590
H30   H     H_    0.611384 0.268127 0.920377 0.215539
H31   H     H_    0.719204 0.560147 0.267957 0.165326
H32   H     H_    0.413678 0.369145 0.743335 0.132129
H33   H     H_    0.279593 0.440579 0.229001 0.134661
H34   H     H_    0.586839 0.630840 0.760204 0.130805
H35   H     H_    0.275699 0.442569 0.051711 0.164681
H36   H     H_    0.583489 0.632831 0.936643 0.164980

loop_
_geom_bond_atom_site_label_1
_geom_bond_atom_site_label_2
_ccdc_geom_bond_type
N6    C32   S    
C1    C21   S    
C33   H24   S    
C16   N4    S    
C19   H1    S    
C13   O5    A    
C29   H7    S    
N8    H27   S    
Cu1   N2    S    
C10   H36   S    
Cu2   N1    S    
C22   C24   A    
C19   C21   A    
C24   C26   A    
C5    H31   S    
C18   N6    S    
N5    C31   S    
C15   C16   D    
Cu2   O2    S    
C8    N2    A    
N3    C29   S    
C23   H3    S    
C2    C22   S    
C4    C12   A    
C18   C20   A    
C1    O1    A    
C14   O6    A    
N8    C34   S    
C31   H14   S    
C33   H25   S    
C29   H8    S    
C30   H11   S    
C31   H15   S    
C6    H32   S    
N4    H9    S    
C17   C27   A    
C18   C28   A    
C4    C6    A    
C34   H29   S    
C32   H19   S    
N3    H5    S    
C24   H4    S    
C34   H28   S    
N4    C30   S    
C3    N7    S    
Cu1   Cu2   S    
C2    O2    A    
C29   H6    S    
C32   H20   S    
C9    C11   A    
C10   C12   A    
C20   C22   A    
C13   C15   S    
Cu1   O8    S    
C26   H22   S    
C33   H26   S    
C14   C16   S    
Cu2   O7    S    
C25   H21   S    
C15   N3    S    
Cu1   O1    S    
C13   O7    A    
C14   O8    A    
C20   H2    S    
C30   H12   S    
C7    C9    A    
C31   H16   S    
Cu1   O5    S    
C7    N1    A    
C3    C5    A    
C34   H30   S    
C11   C12   S    
C30   H10   S    
C25   C27   A    
C26   C28   A    
C21   C23   A    
N7    H23   S    
C9    H35   S    
N5    H13   S    
C7    H33   S    
C5    N1    A    
Cu1   O4    S    
C17   C19   A    
C6    N2    A    
Cu2   O3    S    
C8    H34   S    
C23   C25   A    
C3    C11   A    
C1    O3    A    
N6    H17   S    
C2    O4    A    
C4    N8    S    
C8    C10   A    
C32   H18   S    
N7    C33   S    
C27   C28   S    
Cu2   O6    S    
C17   N5    S    
