data_mof_unit_43721.cif
_audit_creation_date              2012-12-10T18:06:00-0500
_audit_creation_method            fapswitch 2.2
_symmetry_space_group_name_H-M    P1
_symmetry_Int_Tables_number       1
_space_group_crystal_system       triclinic
_cell_length_a                    12.607549
_cell_length_b                    13.166112
_cell_length_c                    14.993956
_cell_angle_alpha                 91.668417
_cell_angle_beta                  102.255041
_cell_angle_gamma                 81.739344
_cell_volume                      2406.93023166

loop_
_atom_site_label
_atom_site_type_symbol
_atom_type_description
_atom_site_fract_x
_atom_site_fract_y
_atom_site_fract_z
_atom_type_partial_charge
C1    C     C_R   0.438171 0.691673 0.490570 0.869055
C2    C     C_R   0.403446 0.548323 0.799059 -0.042339
C3    C     C_R   0.498660 0.505559 0.768775 -0.098118
C4    C     C_R   0.500039 0.501116 0.672783 0.901610
C5    C     C_R   0.594467 0.467888 0.830348 -0.256041
C6    C     C_R   0.703971 0.065868 0.623996 -0.183343
C7    C     C_R   0.599460 0.200461 0.523563 -0.046322
C8    C     C_R   0.302422 0.836760 0.412857 -0.008625
C9    C     C_R   0.281547 0.938894 0.385680 -0.170832
C10   C     C_R   0.356856 0.005173 0.418785 -0.188688
C11   C     C_R   0.452564 0.972576 0.485640 0.073269
C12   C     C_R   0.599678 0.468792 0.109871 0.060186
C13   C     C_R   0.464640 0.873909 0.524520 0.032387
C14   C     C_R   0.534921 0.035799 0.517326 0.088147
C15   C     C_R   0.623892 0.002511 0.590454 0.156800
C16   C     C_R   0.561442 0.308992 0.509521 0.851366
C17   C     C_R   0.626467 0.911024 0.634984 -0.292281
C18   C     C_R   0.544193 0.850354 0.606354 0.000088
C19   C     C_R   0.529386 0.133211 0.480958 -0.235672
C20   C     C_R   0.690618 0.165806 0.591740 -0.191095
C21   C     C_R   0.397312 0.802141 0.480027 -0.161081
C22   C     C_R   0.098828 0.330930 0.382910 -0.079652
C23   C     C_R   0.305399 0.569009 0.016038 -0.211323
C24   C     C_R   0.796939 0.635578 0.603294 0.029827
C25   C     C_R   0.897872 0.670174 0.617816 -0.245388
C26   C     C_R   0.978560 0.620146 0.575304 -0.176112
C27   C     C_R   0.959715 0.532902 0.519743 0.025249
C28   C     C_R   0.499948 0.498808 0.327263 0.875530
C29   C     C_R   0.854679 0.502858 0.505650 0.221912
C30   C     C_R   0.040125 0.475448 0.477595 -0.039602
C31   C     C_R   0.015059 0.387325 0.422510 0.084239
C32   C     C_R   0.907864 0.360579 0.409893 -0.060719
C33   C     C_R   0.829943 0.420240 0.448879 -0.267450
C34   C     C_R   0.305219 0.574944 0.923913 -0.203334
C35   C     C_R   0.146389 0.501449 0.490437 -0.025565
C36   C     C_R   0.201578 0.362290 0.399382 -0.027288
C37   C     C_R   0.598083 0.468166 0.202504 -0.237295
C38   C     C_R   0.499890 0.497844 0.231516 -0.067194
C39   C     C_R   0.402402 0.529524 0.169732 -0.248792
C40   C     C_R   0.402173 0.532991 0.077631 0.129586
C41   C     C_R   0.500354 0.501349 0.047078 0.056484
C42   C     C_1   0.227352 0.769197 0.366910 0.195666
C43   C     C_1   0.531226 0.778339 0.672333 0.162411
C44   C     C_1   0.872054 0.272018 0.359252 0.187550
C45   C     C_R   0.401621 0.542408 0.891682 0.069880
C46   C     C_1   0.085966 0.241215 0.325944 0.169139
C47   C     C_1   0.313520 0.608290 0.737466 0.189937
C48   C     C_1   0.802664 0.412567 0.138832 0.167772
C49   C     C_R   0.499233 0.503735 0.953810 0.045555
C50   C     C_R   0.596304 0.469267 0.922935 0.101171
C51   C     C_R   0.694222 0.437209 0.984761 -0.248088
C52   C     C_R   0.697340 0.438816 0.078103 -0.003608
H1    H     H_    0.672468 0.443470 0.252430 0.162712
H2    H     H_    0.733092 0.674676 0.634894 0.142570
H3    H     H_    0.053585 0.652575 0.586609 0.162842
H4    H     H_    0.913071 0.736298 0.660767 0.153872
H5    H     H_    0.230020 0.593675 0.039273 0.153933
H6    H     H_    0.667911 0.437807 0.805935 0.159148
H7    H     H_    0.768956 0.412872 0.960269 0.153482
H8    H     H_    0.746187 0.217759 0.624653 0.157528
H9    H     H_    0.749186 0.400074 0.433923 0.213817
H10   H     H_    0.228785 0.603714 0.878174 0.159099
H11   H     H_    0.688504 0.890434 0.696332 0.146651
H12   H     H_    0.771990 0.040913 0.679849 0.139494
H13   H     H_    0.466225 0.162579 0.423792 0.135736
H14   H     H_    0.335888 0.081932 0.391639 0.138584
H15   H     H_    0.209014 0.966464 0.334738 0.164902
H16   H     H_    0.267055 0.320163 0.370979 0.133663
H17   H     H_    0.327381 0.554104 0.193710 0.165845
H18   H     H_    0.172869 0.564997 0.531290 0.144383
N1    N     N_R   0.222190 0.444670 0.452360 -0.111046
N2    N     N_R   0.776970 0.554790 0.547140 -0.130033
N3    N     N_1   0.167176 0.715230 0.330049 -0.195726
N4    N     N_1   0.521365 0.723078 0.727467 -0.212042
N5    N     N_1   0.841960 0.201510 0.319075 -0.183319
N6    N     N_1   0.076970 0.169324 0.280157 -0.197942
N7    N     N_1   0.242641 0.657806 0.689020 -0.244343
N8    N     N_1   0.887696 0.392231 0.186650 -0.195557
O1    O     O_R   0.366740 0.627160 0.477250 -0.605340
O2    O     O_R   0.544830 0.662520 0.507680 -0.606260
O3    O     O_R   0.410940 0.482340 0.616930 -0.610730
O4    O     O_R   0.589030 0.517700 0.647360 -0.618916
O5    O     O_R   0.455170 0.337480 0.492320 -0.615358
O6    O     O_R   0.633260 0.372840 0.522750 -0.646005
O7    O     O_R   0.410970 0.482300 0.352640 -0.617613
O8    O     O_R   0.589060 0.517660 0.383070 -0.632496
Zn1   Zn    Zn3+2 0.381090 0.476390 0.479680 0.963461
Zn2   Zn    Zn3+2 0.618910 0.523610 0.520320 0.942037

loop_
_geom_bond_atom_site_label_1
_geom_bond_atom_site_label_2
_ccdc_geom_bond_type
O5    Zn1   S    
C1    C21   S    
C27   C29   A    
C25   H4    S    
C16   O6    A    
C26   H3    S    
C46   N6    T    
C26   C27   A    
C37   C38   A    
C30   C35   A    
C8    C42   S    
C30   C31   A    
C11   C14   A    
O8    Zn2   S    
C48   N8    T    
C23   C40   A    
C29   C33   A    
C34   H10   S    
C15   C17   A    
C41   C49   A    
C12   C37   A    
C12   C52   A    
C6    C15   A    
C4    O3    A    
C35   H18   S    
C8    C9    A    
C6    H12   S    
C45   C49   A    
C20   H8    S    
C9    C10   A    
C36   N1    A    
C29   N2    A    
C37   H1    S    
C43   N4    T    
O7    Zn1   S    
C35   N1    A    
C27   C30   A    
C5    H6    S    
O1    Zn1   S    
N2    Zn2   S    
C50   C51   A    
C10   H14   S    
C2    C45   A    
C32   C44   S    
C22   C31   A    
C51   C52   A    
C24   C25   A    
C39   C40   A    
C25   C26   A    
C16   O5    A    
C44   N5    T    
C9    H15   S    
C12   C41   A    
C31   C32   A    
C28   C38   S    
C23   C34   A    
C17   C18   A    
C39   H17   S    
C13   C21   A    
C34   C45   A    
O3    Zn1   S    
N1    Zn1   S    
C13   C18   A    
C7    C16   S    
C22   C46   S    
C49   C50   A    
C7    C19   A    
C28   O8    A    
C1    O1    A    
C5    C50   A    
C51   H7    S    
C47   N7    T    
C3    C4    S    
C22   C36   A    
C24   N2    A    
C23   H5    S    
C40   C41   A    
C42   N3    T    
C14   C19   A    
O6    Zn2   S    
C3    C5    A    
C8    C21   A    
C36   H16   S    
C2    C47   S    
C6    C20   A    
C32   C33   A    
C2    C3    A    
O2    Zn2   S    
C18   C43   S    
C17   H11   S    
C11   C13   A    
C38   C39   A    
O4    Zn2   S    
C19   H13   S    
C10   C11   A    
C48   C52   S    
C4    O4    A    
C33   H9    S    
C7    C20   A    
C28   O7    A    
C1    O2    A    
C14   C15   A    
C24   H2    S    
