data_mof_unit_64879.cif
_audit_creation_date              2012-12-11T19:02:35-0500
_audit_creation_method            fapswitch 2.2
_symmetry_space_group_name_H-M    P1
_symmetry_Int_Tables_number       1
_space_group_crystal_system       triclinic
_cell_length_a                    8.259568
_cell_length_b                    15.133426
_cell_length_c                    18.944029
_cell_angle_alpha                 99.486145
_cell_angle_beta                  92.588095
_cell_angle_gamma                 99.049869
_cell_volume                      2300.31695435

loop_
_atom_site_label
_atom_site_type_symbol
_atom_type_description
_atom_site_fract_x
_atom_site_fract_y
_atom_site_fract_z
_atom_type_partial_charge
Ba1   Ba    Ba6+2 0.852310 0.543020 0.467250 1.712371
Ba2   Ba    Ba6+2 0.337530 0.457060 0.532760 1.690398
Br1   Br    Br    0.288668 0.621347 0.838002 -0.529540
Br2   Br    Br    0.434132 0.418682 0.317116 -0.512760
C1    C     C_3   0.748096 0.871252 0.281448 -0.109038
C2    C     C_3   0.394892 0.580431 0.255973 -0.047303
C3    C     C_2   0.348789 0.563056 0.175958 -0.100875
C4    C     C_3   0.186595 0.766621 0.284031 0.454262
C5    C     C_2   0.197041 0.516608 0.150591 -0.043683
C6    C     C_2   0.090088 0.475201 0.203606 -0.150449
C7    C     C_1   0.152505 0.473597 0.269881 0.044756
C8    C     C_R   0.039725 0.500904 0.931245 0.491212
C9    C     C_R   0.140019 0.508174 0.072696 0.457025
C10   C     C_R   0.087508 0.538299 0.804264 0.207144
C11   C     C_R   0.034506 0.525385 0.730155 0.041816
C12   C     C_3   0.691413 0.783014 0.309423 0.330737
C13   C     C_R   0.771624 0.443717 0.753887 0.016449
C14   C     C_R   0.825243 0.451292 0.826483 -0.171564
C15   C     C_R   0.985009 0.497020 0.853141 -0.094905
C16   C     C_3   0.280961 0.841003 0.249165 -0.326815
C17   C     C_R   0.878483 0.477860 0.706576 -0.324203
C18   C     C_R   0.342347 0.823528 0.456068 -0.015535
C19   C     C_R   0.583443 0.791041 0.517207 0.065688
C20   C     C_R   0.769336 0.229552 0.521926 -0.115092
C21   C     C_R   0.864627 0.171083 0.546840 0.057621
C22   C     C_R   0.803892 0.078179 0.539099 -0.189057
C23   C     C_3   0.365396 0.191733 0.309953 0.287753
C24   C     C_R   0.643652 0.041853 0.507058 0.021325
C25   C     C_R   0.550462 0.102227 0.479445 -0.029884
C26   C     C_R   0.573325 0.947439 0.500080 0.007267
C27   C     C_R   0.412691 0.916225 0.465381 -0.020232
C28   C     C_3   0.249562 0.735101 0.626226 0.318832
C29   C     C_R   0.324385 0.978172 0.441301 -0.112290
C30   C     C_R   0.391609 0.068377 0.448420 -0.084924
C31   C     C_R   0.654539 0.883081 0.527563 -0.141925
C32   C     C_R   0.431815 0.761414 0.478860 -0.292249
C33   C     C_R   0.616554 0.195607 0.484480 -0.035631
C34   C     C_3   0.396236 0.097638 0.274899 -0.167862
C35   C     C_3   0.289794 0.837842 0.649104 -0.375534
C36   C     C_3   0.933874 0.261651 0.366717 0.273407
C37   C     C_3   0.889483 0.159673 0.341260 -0.376681
C38   C     C_3   0.739891 0.665789 0.685030 0.297910
C39   C     C_3   0.763614 0.693761 0.766213 -0.342956
C40   C     C_3   0.068816 0.273340 0.723797 0.343862
C41   C     C_3   0.079271 0.251795 0.799284 -0.344987
C42   C     C_3   0.540081 0.219170 0.683744 0.347705
C43   C     C_3   0.504186 0.125521 0.704432 -0.356614
C44   C     C_2   0.308703 0.504422 0.290100 0.038650
H1    H     H_    0.763731 0.783593 0.360398 0.098032
H2    H     H_    0.855684 0.647475 0.664586 0.000581
H3    H     H_    0.639595 0.606219 0.672001 0.067306
H4    H     H_    0.868556 0.750620 0.780839 0.129142
H5    H     H_    0.789116 0.635934 0.791471 0.075467
H6    H     H_    0.650512 0.715900 0.787368 0.168171
H7    H     H_    0.559628 0.779350 0.319979 -0.094394
H8    H     H_    0.666024 0.874678 0.234212 0.113610
H9    H     H_    0.265677 0.184684 0.346254 -0.004403
H10   H     H_    0.316778 0.225436 0.267708 0.089395
H11   H     H_    0.479676 0.071538 0.310996 0.115156
H12   H     H_    0.393407 0.855847 0.691114 0.134217
H13   H     H_    0.277688 0.049671 0.266141 0.076375
H14   H     H_    0.874456 0.872719 0.263545 0.146724
H15   H     H_    0.359200 0.811022 0.208691 0.096908
H16   H     H_    0.156492 0.336622 0.722641 0.089669
H17   H     H_    0.941889 0.284475 0.711129 -0.054515
H18   H     H_    0.205583 0.241028 0.813849 0.155472
H19   H     H_    0.049041 0.309070 0.838194 0.073143
H20   H     H_    0.990737 0.189432 0.802344 0.113383
H21   H     H_    0.672836 0.233969 0.675002 -0.062526
H22   H     H_    0.466633 0.217435 0.632873 0.092306
H23   H     H_    0.324990 0.870911 0.602877 0.058595
H24   H     H_    0.536326 0.073860 0.660926 0.071500
H25   H     H_    0.371575 0.108129 0.712859 0.150369
H26   H     H_    0.578188 0.124370 0.754596 0.117218
H27   H     H_    0.430063 0.596230 0.141207 0.106273
H28   H     H_    0.966468 0.440052 0.185848 0.123213
H29   H     H_    0.741758 0.421767 0.861997 0.122185
H30   H     H_    0.835365 0.473690 0.651433 0.062015
H31   H     H_    0.377496 0.690343 0.471663 0.069304
H32   H     H_    0.201146 0.958415 0.416237 0.108125
H33   H     H_    0.770984 0.902455 0.558601 0.089324
H34   H     H_    0.180597 0.864205 0.670780 0.127956
H35   H     H_    0.279070 0.732256 0.308148 -0.042283
H36   H     H_    0.884299 0.036533 0.558563 0.082692
H37   H     H_    0.313485 0.111038 0.430061 0.090927
H38   H     H_    0.194500 0.876540 0.222423 0.116888
H39   H     H_    0.360642 0.891341 0.290627 0.075692
H40   H     H_    0.360752 0.709201 0.607675 -0.002725
H41   H     H_    0.151171 0.719005 0.581994 0.058516
H42   H     H_    0.822557 0.946801 0.381157 0.193105
H43   H     H_    0.627031 0.949975 0.352407 0.172158
H44   H     H_    0.383020 0.116779 0.170189 0.187117
H45   H     H_    0.820040 0.286927 0.381157 0.038707
H46   H     H_    0.571617 0.151208 0.212819 0.215564
H47   H     H_    0.999869 0.731156 0.204036 0.213242
H48   H     H_    0.017505 0.651186 0.254626 0.206195
H49   H     H_    0.864769 0.350820 0.490885 0.177271
H50   H     H_    0.748685 0.359728 0.563112 0.199214
H51   H     H_    0.026669 0.274653 0.413126 0.052853
H52   H     H_    0.786197 0.144484 0.299371 0.149174
H53   H     H_    0.851842 0.126267 0.387116 0.073657
H54   H     H_    0.995307 0.131186 0.318560 0.109696
N1    N     N_R   0.201551 0.520230 0.954538 -0.174777
N2    N     N_R   0.250398 0.524466 0.023325 -0.222430
N3    N     N_R   0.977907 0.486455 0.049497 -0.230295
N4    N     N_R   0.929086 0.482905 0.980508 -0.238804
N5    N     N_3   0.746508 0.950706 0.336479 -0.525434
N6    N     N_3   0.468465 0.099970 0.206038 -0.479499
N7    N     N_3   0.084638 0.699529 0.229003 -0.499348
N8    N     N_3   0.830752 0.324731 0.536322 -0.481999
O1    O     O_2   0.865610 0.448460 0.327050 -0.423357
O2    O     O_2   0.205187 0.178589 0.545102 -0.500343
O3    O     O_3   0.109705 0.200746 0.675422 -0.601719
O4    O     O_3   0.118280 0.449990 0.414480 -0.477703
O5    O     O_3   0.581860 0.610690 0.539360 -0.487665
O6    O     O_2   0.335900 0.275750 0.458650 -0.461687
O7    O     O_3   0.514088 0.245597 0.341991 -0.603170
O8    O     O_2   0.434725 0.449285 0.751840 -0.440087
O9    O     O_3   0.496798 0.284027 0.738583 -0.595782
O10   O     O_3   0.656850 0.615600 0.375450 -0.456972
O11   O     O_2   0.713961 0.534740 0.245476 -0.434864
O12   O     O_3   0.699765 0.739299 0.655791 -0.633155
O13   O     O_3   0.996508 0.302811 0.310965 -0.620357
O14   O     O_3   0.716816 0.709450 0.257837 -0.620150
O15   O     O_2   0.853800 0.724280 0.541390 -0.464803
O16   O     O_3   0.080770 0.663020 0.412300 -0.489408
O17   O     O_2   0.005714 0.824193 0.466454 -0.496118
O18   O     O_3   0.085620 0.806064 0.334107 -0.613431
O19   O     O_2   0.324100 0.551570 0.673000 -0.434846
O20   O     O_3   0.071440 0.550090 0.585530 -0.511165
O21   O     O_3   0.532860 0.384470 0.624560 -0.511754
O22   O     O_3   0.198182 0.697285 0.685560 -0.600935
O23   O     O_3   0.607860 0.389390 0.460650 -0.422365
O24   O     O_3   0.108950 0.337050 0.587710 -0.460875
P1    P     P_3+3 0.033450 0.421470 0.337090 1.043675
P2    P     P_3+3 0.679030 0.710970 0.562060 0.983444
P3    P     P_3+3 0.128947 0.780150 0.418928 0.924345
P4    P     P_3+3 0.156260 0.578610 0.662920 1.032643
P5    P     P_3+3 0.072819 0.220014 0.588016 0.969652
P6    P     P_3+3 0.621338 0.608885 0.282604 1.017778
P7    P     P_3+3 0.516823 0.273291 0.436394 0.989795
P8    P     P_3+3 0.560056 0.392185 0.717915 0.967405

loop_
_geom_bond_atom_site_label_1
_geom_bond_atom_site_label_2
_ccdc_geom_bond_type
O16   P3    S    
H50   N8    S    
C4    H35   S    
C1    H8    S    
C36   H45   S    
C36   H51   S    
C31   H33   S    
Ba1   O16   S    
C40   H16   S    
C18   P3    S    
H46   N6    S    
Ba2   O24   S    
C33   P7    S    
C19   P2    S    
O11   P6    D    
C24   C25   A    
C21   P5    S    
Ba1   O15   S    
H42   N5    S    
C14   C15   A    
C1    N5    S    
C26   C27   A    
C39   H4    S    
O5    P2    S    
C23   C34   S    
O22   P4    S    
C28   H40   S    
C16   H39   S    
Ba2   O19   S    
C37   H54   S    
C13   C14   A    
Ba1   Ba2   S    
C28   C35   S    
C5    C9    S    
C42   H21   S    
Ba2   O6    S    
C4    O18   S    
O19   P4    D    
C37   H53   S    
C1    C12   S    
C16   H38   S    
C17   H30   S    
C41   H19   S    
O4    P1    S    
O3    P5    S    
C1    H14   S    
O10   P6    S    
Ba1   P2    S    
H44   N6    S    
C5    C6    S    
C38   H3    S    
C34   H13   S    
C2    P6    S    
O2    P5    D    
C7    C44   D    
C6    H28   S    
Ba1   O23   S    
H48   N7    S    
C39   H5    S    
Ba2   O21   S    
C23   O7    S    
Ba2   O23   S    
C18   C27   A    
Ba2   P4    S    
H43   N5    S    
C20   N8    S    
C12   H1    S    
C43   H25   S    
C8    N1    A    
C9    N3    A    
Ba1   O20   S    
C23   H9    S    
O24   P5    S    
C3    H27   S    
C21   C22   A    
C25   C30   A    
C32   H31   S    
C13   C17   A    
O6    P7    D    
O13   P1    S    
C13   P8    S    
C41   H18   S    
C30   H37   S    
O7    P7    S    
O18   P3    S    
C7    P1    S    
Ba2   O5    S    
C39   H6    S    
C28   H41   S    
C41   H20   S    
C27   C29   A    
C20   C33   A    
C37   H52   S    
C4    C16   S    
C20   C21   A    
C9    N2    A    
Br1   C10   S    
O12   P2    S    
O21   P8    S    
C2    C44   S    
C38   H2    S    
C26   C31   A    
O15   P2    D    
C36   C37   S    
C40   O3    S    
C19   C31   A    
H47   N7    S    
Ba1   O4    S    
O20   P4    S    
C28   O22   S    
C40   C41   S    
C38   O12   S    
Br2   C44   S    
C3    C5    D    
C36   O13   S    
C42   C43   S    
C22   H36   S    
C35   H34   S    
C22   C24   A    
C10   C15   A    
O14   P6    S    
C43   H26   S    
O8    P8    D    
C23   H10   S    
C29   H32   S    
C2    C3    S    
C18   C32   A    
N3    N4    A    
O23   P7    S    
C11   P4    S    
C16   H15   S    
C24   C26   A    
C12   O14   S    
C12   H7    S    
C4    N7    S    
Ba1   O1    S    
C8    N4    A    
H49   N8    S    
Ba2   O4    S    
O1    P1    D    
C14   H29   S    
C35   H12   S    
C8    C15   S    
C40   H17   S    
Ba2   O20   S    
C29   C30   A    
C42   O9    S    
C34   N6    S    
C43   H24   S    
C42   H22   S    
C6    C7    D    
O17   P3    D    
C34   H11   S    
C11   C17   A    
C19   C32   A    
C38   C39   S    
C25   C33   A    
N1    N2    A    
O9    P8    S    
C35   H23   S    
C10   C11   A    
Ba1   O5    S    
Ba1   P1    S    
Ba1   O10   S    
