data_mof_unit_36084.cif
_audit_creation_date              2012-12-11T15:56:39-0500
_audit_creation_method            fapswitch 2.2
_symmetry_space_group_name_H-M    P1
_symmetry_Int_Tables_number       1
_space_group_crystal_system       triclinic
_cell_length_a                    14.686511
_cell_length_b                    7.165112
_cell_length_c                    13.610082
_cell_angle_alpha                 89.999821
_cell_angle_beta                  100.062517
_cell_angle_gamma                 90.0
_cell_volume                      1410.16521073

loop_
_atom_site_label
_atom_site_type_symbol
_atom_type_description
_atom_site_fract_x
_atom_site_fract_y
_atom_site_fract_z
_atom_type_partial_charge
O1    O     O_R   0.336930 0.638190 0.166330 -0.546381
O2    O     O_R   0.663070 0.361810 0.833670 -0.546389
O3    O     O_R   0.163070 0.138190 0.333670 -0.546396
O4    O     O_R   0.836930 0.861810 0.666330 -0.546403
O5    O     O_R   0.147900 0.305430 0.139630 -0.538222
O6    O     O_R   0.852100 0.694570 0.860370 -0.538223
O7    O     O_R   0.352100 0.805430 0.360370 -0.538201
O8    O     O_R   0.647900 0.194570 0.639630 -0.538194
C1    C     C_R   0.115087 0.477589 0.113116 0.707346
C2    C     C_R   0.884913 0.522410 0.886883 0.707353
C3    C     C_R   0.384913 0.977589 0.386883 0.707416
C4    C     C_R   0.615086 0.022411 0.613117 0.707431
O9    O     O_R   0.335280 0.308290 0.154310 -0.508515
O10   O     O_R   0.664720 0.691710 0.845690 -0.508510
O11   O     O_R   0.164720 0.808290 0.345690 -0.508483
O12   O     O_R   0.835280 0.191710 0.654310 -0.508455
O13   O     O_R   0.351790 0.140890 0.348460 -0.533638
O14   O     O_R   0.648210 0.859110 0.651540 -0.533644
O15   O     O_R   0.148210 0.640890 0.151540 -0.533645
O16   O     O_R   0.851790 0.359110 0.848460 -0.533650
C5    C     C_R   0.363756 0.476766 0.132539 0.724362
C6    C     C_R   0.636243 0.523234 0.867460 0.724360
C7    C     C_R   0.136244 0.976766 0.367462 0.724404
C8    C     C_R   0.863758 0.023235 0.632539 0.724446
O17   O     O_3   0.255200 0.472570 0.313680 -0.372528
O18   O     O_3   0.744800 0.527430 0.686320 -0.372523
O19   O     O_3   0.244800 0.972570 0.186320 -0.372548
O20   O     O_3   0.755200 0.027430 0.813680 -0.372558
V1    V     V_3+5 0.249040 0.196590 0.238190 1.450171
V2    V     V_3+5 0.750960 0.803410 0.761810 1.450188
V3    V     V_3+5 0.250960 0.696590 0.261810 1.450235
V4    V     V_3+5 0.749040 0.303410 0.738190 1.450298
C9    C     C_R   0.041226 0.826689 0.486355 0.483710
C10   C     C_R   0.958776 0.173316 0.513649 0.483804
C11   C     C_R   0.458782 0.326685 0.013650 0.483774
C12   C     C_R   0.541216 0.673315 0.986347 0.483803
C13   C     C_R   0.974072 0.841868 0.547917 -0.316768
C14   C     C_R   0.025933 0.158137 0.452088 -0.316788
C15   C     C_R   0.525933 0.341864 0.952088 -0.316569
C16   C     C_R   0.474063 0.658137 0.047907 -0.316570
H1    H     H_    0.954858 0.716918 0.584030 0.199375
H2    H     H_    0.045154 0.283084 0.415978 0.199331
H3    H     H_    0.545136 0.216913 0.915967 0.199427
H4    H     H_    0.454857 0.783089 0.084024 0.199421
C17   C     C_R   0.932886 0.013884 0.563829 -0.215332
C18   C     C_R   0.067118 0.986120 0.436174 -0.215324
C19   C     C_R   0.567117 0.513882 0.936172 -0.215524
C20   C     C_R   0.432881 0.486118 0.063825 -0.215526
C21   C     C_1   0.533918 0.008212 0.533127 -0.185699
C22   C     C_1   0.466081 0.991788 0.466873 -0.185709
C23   C     C_1   0.966081 0.508211 0.966873 -0.185745
C24   C     C_1   0.033918 0.491788 0.033127 -0.185750
O21   O     O_3   0.077151 0.652827 0.471106 -0.540614
C25   C     C_3   0.143540 0.605487 0.555311 -0.194378
H5    H     H_    0.198587 0.713747 0.571356 0.103344
H6    H     H_    0.177346 0.473061 0.539475 0.153291
H7    H     H_    0.110695 0.581745 0.621944 0.130252
O22   O     O_3   0.922842 0.347173 0.528903 -0.540577
C26   C     C_3   0.856572 0.394679 0.444627 -0.194530
H8    H     H_    0.822628 0.526905 0.460540 0.153310
H9    H     H_    0.801607 0.286297 0.428309 0.103257
H10   H     H_    0.889562 0.418874 0.378137 0.130487
O23   O     O_3   0.422860 0.152808 0.028882 -0.540533
C27   C     C_3   0.356289 0.105754 0.944780 -0.194025
H11   H     H_    0.301144 0.213868 0.929151 0.103412
H12   H     H_    0.322666 0.973038 0.960496 0.153235
H13   H     H_    0.388909 0.082684 0.877931 0.129862
O24   O     O_3   0.577139 0.847190 0.971112 -0.540528
C28   C     C_3   0.643683 0.894285 0.055227 -0.194072
H14   H     H_    0.677345 0.026936 0.039479 0.153253
H15   H     H_    0.698806 0.786128 0.070935 0.103374
H16   H     H_    0.611027 0.917501 0.122040 0.129935

loop_
_geom_bond_atom_site_label_1
_geom_bond_atom_site_label_2
_ccdc_geom_bond_type
O2    C6    A    
C28   H16   S    
C11   C15   A    
C12   O24   S    
O1    C5    A    
O14   V2    S    
O12   V4    S    
C9    O21   S    
O13   V1    S    
O3    C7    A    
C28   H15   S    
C11   O23   S    
O1    V3    S    
O8    C4    A    
C5    C20   S    
O15   V3    S    
C27   H11   S    
O10   C6    A    
O11   C7    A    
C4    C21   S    
O9    C5    A    
C26   H8    S    
O12   C8    A    
C10   C17   A    
O24   C28   S    
O21   C25   S    
O18   V4    S    
C9    C18   A    
C27   H13   S    
O3    V1    S    
C6    C19   S    
C1    C24   S    
C2    O16   A    
O10   V2    S    
C11   C20   A    
C15   C19   A    
O6    V2    S    
C7    C18   S    
C9    C13   A    
O7    C3    A    
O5    V1    S    
C13   H1    S    
C28   H14   S    
O4    C8    A    
C10   O22   S    
C25   H6    S    
C14   C18   A    
O19   V1    S    
O6    C2    A    
C2    C23   S    
C13   C17   A    
O23   C27   S    
O8    V4    S    
C14   H2    S    
C8    C17   S    
C16   H4    S    
O7    V3    S    
O11   V3    S    
C12   C19   A    
O2    V4    S    
C21   C22   T    
O16   V4    S    
C26   H9    S    
C4    O14   A    
C16   C20   A    
C3    C22   S    
C25   H5    S    
C3    O13   A    
C12   C16   A    
C15   H3    S    
O22   C26   S    
C10   C14   A    
O17   V3    S    
C1    O15   A    
O4    V2    S    
C23   C24   T    
O9    V1    S    
O5    C1    A    
O20   V2    S    
C26   H10   S    
C25   H7    S    
C27   H12   S    
