data_mof_unit_15748.cif
_audit_creation_date              2012-12-10T17:47:12-0500
_audit_creation_method            fapswitch 2.2
_symmetry_space_group_name_H-M    P1
_symmetry_Int_Tables_number       1
_space_group_crystal_system       triclinic
_cell_length_a                    11.733713
_cell_length_b                    14.882188
_cell_length_c                    14.48915
_cell_angle_alpha                 64.597954
_cell_angle_beta                  104.507365
_cell_angle_gamma                 103.515517
_cell_volume                      2189.47719418

loop_
_atom_site_label
_atom_site_type_symbol
_atom_type_description
_atom_site_fract_x
_atom_site_fract_y
_atom_site_fract_z
_atom_type_partial_charge
C1    C     C_R   0.484176 0.119455 0.310533 0.805640
C2    C     C_R   0.515824 0.880544 0.689467 0.805642
C3    C     C_R   0.465858 0.327141 0.987799 0.039357
C4    C     C_R   0.534133 0.672856 0.012200 0.039354
C5    C     C_R   0.516501 0.465009 0.050651 -0.011812
C6    C     C_R   0.483498 0.534990 0.949346 -0.011812
C7    C     C_R   0.427754 0.498201 0.870721 -0.026510
C8    C     C_R   0.572247 0.501799 0.129275 -0.026509
C9    C     C_R   0.437170 0.400189 0.884559 0.104439
C10   C     C_R   0.562828 0.599809 0.115439 0.104441
C11   C     C_R   0.728051 0.305659 0.637615 -0.103456
C12   C     C_R   0.271949 0.694341 0.362385 -0.103452
C13   C     C_R   0.685108 0.215642 0.622749 0.331450
C14   C     C_R   0.314891 0.784358 0.377251 0.331454
C15   C     C_R   0.506893 0.279517 0.518886 -0.006615
C16   C     C_R   0.493107 0.720484 0.481113 -0.006612
C17   C     C_R   0.546453 0.373324 0.531194 -0.036843
C18   C     C_R   0.453549 0.626677 0.468805 -0.036843
C19   C     C_R   0.655822 0.381337 0.597469 0.051219
C20   C     C_R   0.344179 0.618664 0.402530 0.051223
C21   C     C_R   0.481322 0.458261 0.483301 0.026575
C22   C     C_R   0.518681 0.541740 0.516697 0.026571
C23   C     C_R   0.284016 0.999706 0.499799 0.820665
C24   C     C_R   0.715984 0.000294 0.500201 0.820664
C25   C     C_R   0.618260 0.534986 0.597716 -0.039498
C26   C     C_R   0.381742 0.465016 0.402282 -0.039497
C27   C     C_R   0.688862 0.461158 0.629754 -0.203517
C28   C     C_R   0.311141 0.538843 0.370243 -0.203521
C29   C     C_1   0.162038 0.999178 0.499650 -0.166662
C30   C     C_1   0.837962 0.000822 0.500350 -0.166662
C31   C     C_1   0.059757 0.999580 0.499826 0.018184
C32   C     C_1   0.940243 0.000420 0.500174 0.018184
C33   C     C_R   0.481010 0.186538 0.198424 -0.091739
C34   C     C_R   0.518987 0.813461 0.801575 -0.091740
C35   C     C_R   0.463111 0.221906 0.014121 0.006762
C36   C     C_R   0.536871 0.778090 0.985878 0.006766
C37   C     C_R   0.478939 0.153110 0.119854 0.089133
C38   C     C_R   0.521052 0.846889 0.880146 0.089140
C39   C     C_R   0.485862 0.288792 0.171323 -0.230131
C40   C     C_R   0.514138 0.711208 0.828676 -0.230132
C41   C     C_R   0.492569 0.360407 0.070420 0.039113
C42   C     C_R   0.507427 0.639592 0.929577 0.039112
Cu1   Cu    Cu3+1 0.469550 0.918260 0.475690 0.954455
Cu2   Cu    Cu3+1 0.530450 0.081740 0.524310 0.954454
H1    H     H_    0.517355 0.687097 0.769281 0.192743
H2    H     H_    0.482650 0.312904 0.230719 0.192743
H3    H     H_    0.767266 0.462488 0.688078 0.165811
H4    H     H_    0.232737 0.537514 0.311919 0.165812
H5    H     H_    0.580888 0.738215 0.518941 0.159198
H6    H     H_    0.419113 0.261786 0.481058 0.159198
N1    N     N_R   0.576230 0.204580 0.560790 -0.180862
N2    N     N_R   0.423770 0.795420 0.439210 -0.180861
O1    O     O_R   0.459870 0.022090 0.338120 -0.593678
O2    O     O_R   0.540130 0.977910 0.661880 -0.593679
O3    O     O_R   0.511290 0.160150 0.379180 -0.561647
O4    O     O_R   0.488710 0.839850 0.620820 -0.561646
O5    O     O_R   0.311490 0.930960 0.479480 -0.571450
O6    O     O_R   0.688510 0.069040 0.520520 -0.571449
O7    O     O_R   0.362910 0.069020 0.520540 -0.574988
O8    O     O_R   0.637090 0.930980 0.479460 -0.574989
C43   C     C_3   0.413220 0.377493 0.788122 -0.793882
H7    H     H_    0.403321 0.445235 0.714953 0.229648
H8    H     H_    0.490457 0.348250 0.785254 0.238519
H9    H     H_    0.329684 0.324280 0.786206 0.248829
C44   C     C_3   0.586787 0.622507 0.211876 -0.793881
H10   H     H_    0.596706 0.554768 0.285046 0.229649
H11   H     H_    0.670314 0.675731 0.213780 0.248825
H12   H     H_    0.509546 0.651736 0.214756 0.238523
C45   C     C_1   0.647955 0.593798 0.660194 0.202630
N3    N     N_1   0.674201 0.639860 0.711404 -0.297185
C46   C     C_1   0.352048 0.406204 0.339803 0.202633
N4    N     N_1   0.325804 0.360143 0.288593 -0.297185
C47   C     C_3   0.505954 0.954857 0.851491 -0.756983
H13   H     H_    0.428483 0.975926 0.788285 0.243388
H14   H     H_    0.486762 0.967241 0.915796 0.235654
H15   H     H_    0.588004 0.006187 0.827134 0.240200
C48   C     C_3   0.494037 0.045142 0.148507 -0.756970
H16   H     H_    0.571509 0.024073 0.211712 0.243386
H17   H     H_    0.411987 0.993811 0.172864 0.240204
H18   H     H_    0.513231 0.032761 0.084201 0.235652
C49   C     C_1   0.439853 0.180653 0.935920 0.234624
N5    N     N_1   0.421118 0.146675 0.874219 -0.305815
C50   C     C_1   0.560100 0.819338 0.064080 0.234624
N6    N     N_1   0.578812 0.853310 0.125783 -0.305825
C51   C     C_1   0.344861 0.554116 0.782394 0.249578
N7    N     N_1   0.278798 0.598409 0.712086 -0.257627
C52   C     C_1   0.655144 0.445885 0.217598 0.249577
N8    N     N_1   0.721212 0.401593 0.287903 -0.257627
C53   C     C_3   0.236738 0.866766 0.319295 -0.760373
H19   H     H_    0.278440 0.942196 0.311711 0.262101
H20   H     H_    0.207049 0.874666 0.237432 0.189616
H21   H     H_    0.156859 0.846984 0.355967 0.224536
C54   C     C_3   0.763261 0.133233 0.680705 -0.760372
H22   H     H_    0.721560 0.057803 0.688289 0.262102
H23   H     H_    0.843141 0.153015 0.644034 0.224536
H24   H     H_    0.792949 0.125332 0.762569 0.189615
C55   C     C_1   0.847853 0.320054 0.694306 0.227615
N9    N     N_1   0.942965 0.331449 0.739206 -0.260422
C56   C     C_1   0.152147 0.679945 0.305694 0.227615
N10   N     N_1   0.057035 0.668550 0.260795 -0.260422

loop_
_geom_bond_atom_site_label_1
_geom_bond_atom_site_label_2
_ccdc_geom_bond_type
C21   C26   A    
C4    C36   A    
C54   H22   S    
C47   H13   S    
C52   N8    T    
C49   N5    T    
C35   C49   S    
C1    C33   S    
C39   C41   A    
C48   H16   S    
C23   O7    A    
C11   C19   A    
C33   C39   A    
C50   N6    T    
C34   C40   A    
C23   C29   S    
C35   C37   A    
C5    C6    A    
Cu1   N2    S    
C10   C44   S    
Cu2   O7    S    
C7    C9    A    
C15   H6    S    
C43   H8    S    
C1    O1    A    
C12   C56   S    
C13   N1    A    
Cu1   O1    S    
C28   H4    S    
C56   N10   T    
Cu2   O6    S    
C44   H11   S    
C22   C25   A    
C15   N1    A    
C53   H20   S    
C19   C27   A    
C2    C34   S    
C40   C42   A    
C54   H23   S    
C34   C38   A    
C21   C22   A    
C26   C46   S    
C47   H14   S    
C45   N3    T    
C55   N9    T    
C24   C30   S    
C48   H17   S    
C40   H1    S    
C14   N2    A    
C16   H5    S    
C2    O2    A    
C20   C28   A    
C51   N7    T    
C37   C48   S    
C33   C37   A    
C13   C54   S    
C43   H9    S    
Cu1   Cu2   S    
C14   C53   S    
C3    C9    A    
C31   C32   S    
C3    C35   A    
C24   O8    A    
C44   H12   S    
C12   C20   A    
C16   C18   A    
C53   H21   S    
Cu1   O8    S    
C39   H2    S    
Cu2   N1    S    
C8    C10   A    
C12   C14   A    
C54   H24   S    
C47   H15   S    
C9    C43   S    
C25   C45   S    
C4    C10   A    
C48   H18   S    
C27   H3    S    
C23   O5    A    
C5    C41   A    
C3    C41   A    
C18   C22   A    
C16   N2    A    
C5    C8    A    
C15   C17   A    
C6    C7    A    
C25   C27   A    
C26   C28   A    
C11   C55   S    
C8    C52   S    
C36   C38   A    
C1    O3    A    
C46   N4    T    
C29   C31   T    
C2    O4    A    
C30   C32   T    
C11   C13   A    
Cu2   O3    S    
C7    C51   S    
C4    C42   A    
C17   C19   A    
C18   C20   A    
C43   H7    S    
C17   C21   A    
Cu1   O5    S    
Cu2   O2    S    
Cu1   O4    S    
C24   O6    A    
C44   H10   S    
C6    C42   A    
C36   C50   S    
C53   H19   S    
C38   C47   S    
