data_mof_unit_42243.cif
_audit_creation_date              2012-12-11T17:08:28-0500
_audit_creation_method            fapswitch 2.2
_symmetry_space_group_name_H-M    P1
_symmetry_Int_Tables_number       1
_space_group_crystal_system       triclinic
_cell_length_a                    6.979157
_cell_length_b                    14.510057
_cell_length_c                    16.088507
_cell_angle_alpha                 89.973872
_cell_angle_beta                  89.954354
_cell_angle_gamma                 89.959377
_cell_volume                      1629.24928245

loop_
_atom_site_label
_atom_site_type_symbol
_atom_type_description
_atom_site_fract_x
_atom_site_fract_y
_atom_site_fract_z
_atom_type_partial_charge
O1    O     O_R   0.505700 0.583890 0.413310 -0.536078
O2    O     O_R   0.175960 0.594920 0.586080 -0.539025
O3    O     O_R   0.005660 0.416110 0.586690 -0.537041
C1    C     C_R   0.344710 0.617052 0.614595 0.695951
O4    O     O_R   0.175980 0.594920 0.413930 -0.542385
O5    O     O_R   0.005680 0.416110 0.413310 -0.540322
C2    C     C_R   0.344676 0.616839 0.385189 0.703368
O6    O     O_R   0.505680 0.583890 0.586690 -0.539126
O7    O     O_3   0.339200 0.441330 0.500000 -0.371224
V1    V     V_3+5 0.064350 0.510880 0.500000 1.399999
O8    O     O_R   0.675960 0.405080 0.413920 -0.539502
C3    C     C_R   0.845052 0.383258 0.385079 0.699653
O9    O     O_R   0.675940 0.405080 0.586070 -0.544168
C4    C     C_R   0.844694 0.383093 0.614766 0.693855
V2    V     V_3+5 0.564340 0.489120 0.500000 1.394992
O10   O     O_3   0.839360 0.558670 0.500000 -0.368805
C5    C     C_R   0.007220 0.316934 0.741005 0.094066
C6    C     C_R   0.852679 0.317570 0.685437 -0.110960
C7    C     C_R   0.701075 0.256035 0.701481 -0.170395
H1    H     H_    0.578396 0.254136 0.660623 0.137196
C8    C     C_R   0.712348 0.191769 0.766992 -0.167518
H2    H     H_    0.597392 0.142588 0.774783 0.128192
C9    C     C_R   0.875851 0.186900 0.818272 -0.097421
C10   C     C_R   0.018788 0.253106 0.805601 0.099986
C11   C     C_3   0.228719 0.240282 0.793331 -0.407328
C12   C     C_3   0.216252 0.310230 0.723251 -0.395837
H3    H     H_    0.264098 0.169594 0.771575 0.175278
H4    H     H_    0.313259 0.265066 0.847397 0.170879
H5    H     H_    0.245204 0.280326 0.660884 0.176679
H6    H     H_    0.292846 0.375627 0.736957 0.164027
C13   C     C_R   0.726964 0.183538 0.240786 0.210863
C14   C     C_R   0.881790 0.182619 0.185296 -0.117103
C15   C     C_R   0.033803 0.243823 0.201496 -0.194812
H7    H     H_    0.156696 0.245582 0.160681 0.136391
C16   C     C_R   0.022683 0.307976 0.267085 -0.176524
H8    H     H_    0.137940 0.356942 0.274946 0.129821
C17   C     C_R   0.858924 0.313072 0.318317 -0.119117
C18   C     C_R   0.715589 0.247133 0.305504 0.105319
C19   C     C_3   0.505727 0.260149 0.293287 -0.431854
C20   C     C_3   0.518086 0.190395 0.223076 -0.398227
H9    H     H_    0.470712 0.330936 0.271660 0.166289
H10   H     H_    0.420964 0.235265 0.347331 0.189374
H11   H     H_    0.489492 0.220492 0.160752 0.156120
C21   C     C_R   0.507944 0.748120 0.688739 0.077088
C22   C     C_R   0.353439 0.686790 0.681740 -0.085357
C23   C     C_R   0.209831 0.691160 0.743173 -0.141677
H12   H     H_    0.090287 0.643765 0.741390 0.106549
C24   C     C_R   0.225968 0.752514 0.810745 -0.139069
H13   H     H_    0.122385 0.750557 0.860006 0.152601
C25   C     C_R   0.381377 0.812920 0.818044 -0.089870
C26   C     C_R   0.524345 0.807286 0.757182 0.014983
C27   C     C_3   0.731696 0.783753 0.768138 -0.030667
C28   C     C_3   0.716500 0.725797 0.688879 -0.437206
H14   H     H_    0.744757 0.650912 0.697135 0.142168
H15   H     H_    0.788186 0.755228 0.633179 0.212961
C29   C     C_R   0.502791 0.750612 0.312640 0.084050
C30   C     C_R   0.352371 0.687079 0.318370 -0.102234
C31   C     C_R   0.203628 0.694882 0.259516 -0.190756
H16   H     H_    0.082758 0.648388 0.261965 0.127686
C32   C     C_R   0.216047 0.758463 0.193324 -0.206035
H17   H     H_    0.103704 0.759505 0.147041 0.139188
C33   C     C_R   0.376894 0.816450 0.184400 -0.136969
C34   C     C_R   0.514167 0.813951 0.247799 0.166877
C35   C     C_3   0.727498 0.805927 0.243346 -0.190961
C36   C     C_3   0.714413 0.736487 0.314487 -0.467312
H18   H     H_    0.778303 0.760100 0.374117 0.179353
H19   H     H_    0.754656 0.665327 0.295841 0.166993
O11   O     O_R   0.229000 0.916070 0.913330 -0.538591
O12   O     O_R   0.558770 0.905070 0.086080 -0.524712
O13   O     O_R   0.729000 0.083900 0.086690 -0.533735
C37   C     C_R   0.389775 0.882863 0.114596 0.725701
O14   O     O_R   0.558720 0.905070 0.913930 -0.525042
O15   O     O_R   0.728960 0.083900 0.913310 -0.550793
C38   C     C_R   0.390298 0.881642 0.886328 0.709345
O16   O     O_R   0.229050 0.916070 0.086710 -0.543433
O17   O     O_3   0.395460 0.058650 0.000020 -0.382700
V3    V     V_3+5 0.670340 0.989120 0.000000 1.479881
O18   O     O_R   0.058670 0.094960 0.913900 -0.542599
C39   C     C_R   0.889653 0.116760 0.885066 0.669783
O19   O     O_R   0.058720 0.094960 0.086050 -0.548803
C40   C     C_R   0.889872 0.117029 0.114679 0.721778
V4    V     V_3+5 0.170330 0.010930 0.999970 1.423322
O20   O     O_3   0.895340 0.941350 0.999980 -0.350131
H20   H     H_    0.441327 0.124991 0.236704 0.196131
C41   C     C_2   0.764741 0.724608 0.844737 0.278936
H21   H     H_    0.761866 0.649976 0.840197 0.054608
O21   O     O_2   0.789453 0.759262 0.912999 -0.532749
C42   C     C_2   0.856963 0.868568 0.762725 0.405861
H22   H     H_    0.853797 0.918797 0.812559 0.076110
O22   O     O_2   0.962806 0.881938 0.703465 -0.539102
C43   C     C_2   0.831404 0.893041 0.266989 0.397350
H23   H     H_    0.983043 0.890166 0.281389 0.064435
O23   O     O_2   0.748288 0.967050 0.269797 -0.545342
H24   H     H_    0.777510 0.775341 0.183879 0.118586

loop_
_geom_bond_atom_site_label_1
_geom_bond_atom_site_label_2
_ccdc_geom_bond_type
C4    C6    S    
O12   V3    S    
C7    H1    S    
C1    O6    A    
C19   H9    S    
C28   H14   S    
C13   C20   S    
C11   H4    S    
C14   C40   S    
C33   C34   A    
C5    C12   S    
C27   C41   S    
C7    C8    A    
C17   C18   A    
C25   C38   S    
O5    C3    A    
C18   C19   S    
V3    O20   S    
C31   C32   A    
V2    O10   S    
C29   C30   A    
C32   C33   A    
C6    C7    A    
C3    C17   S    
O12   C37   A    
O13   C40   A    
C20   H20   S    
O8    V2    S    
C21   C28   S    
C20   H11   S    
C16   H8    S    
C36   H19   S    
C9    C10   A    
O1    V2    S    
O7    V1    S    
C24   C25   A    
O9    C4    A    
O13   V3    S    
C15   H7    S    
C19   H10   S    
C1    C22   S    
C28   H15   S    
C23   C24   A    
C5    C10   A    
C41   O21   D    
C26   C27   S    
C27   C42   S    
C10   C11   S    
O14   C38   A    
O17   V4    S    
C43   H23   S    
O4    C2    A    
O18   C39   A    
C25   C26   A    
C31   H16   S    
C41   H21   S    
C32   H17   S    
O2    C1    A    
O14   V3    S    
C43   O23   D    
O18   V4    S    
C13   C14   A    
C5    C6    A    
O15   C39   A    
C29   C34   A    
C27   C28   S    
O17   V3    S    
O3    C4    A    
C21   C26   A    
O19   V4    S    
C24   H13   S    
C42   O22   D    
C12   H6    S    
O6    V2    S    
C8    C9    A    
O2    V1    S    
C19   C20   S    
C21   C22   A    
C23   H12   S    
C16   C17   A    
O1    C2    A    
O19   C40   A    
O5    V1    S    
O8    C3    A    
O16   V4    S    
C11   H3    S    
C13   C18   A    
O11   V4    S    
C14   C15   A    
O9    V2    S    
C11   C12   S    
C35   H24   S    
O4    V1    S    
O3    V1    S    
V1    O10   S    
C35   C36   S    
C37   O16   A    
C30   C31   A    
C15   C16   A    
C33   C37   S    
C36   H18   S    
O7    V2    S    
C34   C35   S    
C22   C23   A    
C42   H22   S    
C12   H5    S    
V4    O20   S    
O15   V3    S    
C35   C43   S    
C9    C39   S    
C8    H2    S    
O11   C38   A    
C2    C30   S    
C29   C36   S    
