data_mof_unit_45097.cif
_audit_creation_date              2012-12-11T14:01:33-0500
_audit_creation_method            fapswitch 2.2
_symmetry_space_group_name_H-M    P1
_symmetry_Int_Tables_number       1
_space_group_crystal_system       triclinic
_cell_length_a                    19.042748
_cell_length_b                    11.082072
_cell_length_c                    18.76379
_cell_angle_alpha                 89.819587
_cell_angle_beta                  90.004658
_cell_angle_gamma                 89.744183
_cell_volume                      3959.72173717

loop_
_atom_site_label
_atom_site_type_symbol
_atom_type_description
_atom_site_fract_x
_atom_site_fract_y
_atom_site_fract_z
_atom_type_partial_charge
C1    C     C_R   0.271698 0.043473 0.851843 0.549100
C2    C     C_R   0.022819 0.655225 0.959344 -0.133395
C3    C     C_3   0.165600 0.260031 0.937458 -0.432432
C4    C     C_R   0.505896 0.160197 0.031685 -0.130535
C5    C     C_R   0.522597 0.155257 0.959418 -0.133331
C6    C     C_2   0.242575 0.570527 0.915857 -0.123438
C7    C     C_2   0.757369 0.572275 0.084024 -0.123714
C8    C     C_2   0.742587 0.070540 0.915867 -0.123386
C9    C     C_2   0.257373 0.072282 0.084026 -0.123689
C10   C     C_2   0.251125 0.582514 0.077862 0.012728
C11   C     C_2   0.747223 0.585056 0.920113 0.017571
C12   C     C_2   0.751137 0.082505 0.077859 0.012658
C13   C     C_R   0.727873 0.042673 0.147344 0.563689
C14   C     C_2   0.247230 0.085077 0.920104 0.017572
C15   C     C_2   0.270568 0.494458 0.032136 -0.110195
C16   C     C_2   0.731397 0.498327 0.967725 -0.112190
C17   C     C_2   0.770602 0.994451 0.032140 -0.110220
C18   C     C_2   0.231428 0.998355 0.967725 -0.112191
C19   C     C_2   0.290016 0.515107 0.957614 -0.026933
C20   C     C_2   0.709449 0.523271 0.040648 -0.031090
C21   C     C_2   0.790030 0.015080 0.957608 -0.026895
C22   C     C_2   0.209454 0.023321 0.040633 -0.031066
C23   C     C_2   0.512338 0.838627 0.584729 -0.105841
C24   C     C_R   0.771698 0.543465 0.851848 0.549141
C25   C     C_2   0.514000 0.828775 0.428485 -0.103762
C26   C     C_2   0.012339 0.338627 0.584729 -0.105840
C27   C     C_2   0.014001 0.328775 0.428485 -0.103765
C28   C     C_2   0.544691 0.747326 0.472102 -0.157030
C29   C     C_2   0.531069 0.741294 0.547915 -0.158860
C30   C     C_2   0.044693 0.247326 0.472102 -0.157031
C31   C     C_2   0.031072 0.241294 0.547916 -0.158857
C32   C     C_2   0.242863 0.559326 0.586476 -0.106425
C33   C     C_2   0.728723 0.659816 0.436429 -0.107450
C34   C     C_2   0.742863 0.059325 0.586477 -0.106425
C35   C     C_R   0.227872 0.542679 0.147348 0.563697
C36   C     C_2   0.228723 0.159816 0.436429 -0.107453
C37   C     C_2   0.222718 0.524507 0.434098 -0.105820
C38   C     C_2   0.741806 0.612336 0.588839 -0.104819
C39   C     C_2   0.722718 0.024506 0.434098 -0.105821
C40   C     C_2   0.241806 0.112335 0.588838 -0.104818
C41   C     C_R   0.471191 0.821317 0.853054 0.531204
C42   C     C_R   0.528655 0.822373 0.146949 0.539201
C43   C     C_R   0.971195 0.321315 0.853050 0.531191
C44   C     C_R   0.028661 0.322380 0.146944 0.539168
C45   C     C_2   0.169453 0.530350 0.480464 -0.161487
C46   C     C_R   0.494344 0.054485 0.069811 -0.082353
C47   C     C_2   0.779763 0.695633 0.554367 -0.150161
C48   C     C_2   0.669453 0.030349 0.480464 -0.161488
C49   C     C_2   0.279763 0.195632 0.554366 -0.150161
C50   C     C_2   0.180309 0.569118 0.554090 -0.148397
C51   C     C_2   0.765677 0.730004 0.480461 -0.161725
C52   C     C_2   0.680310 0.069117 0.554090 -0.148396
C53   C     C_2   0.265677 0.230004 0.480461 -0.161726
C54   C     C_R   0.259908 0.634045 0.850089 0.538396
C55   C     C_R   0.739982 0.635112 0.149700 0.553701
C56   C     C_R   0.759910 0.134046 0.850091 0.538388
C57   C     C_R   0.522633 0.045450 0.924148 -0.089330
C58   C     C_R   0.239982 0.135116 0.149699 0.553671
C59   C     C_R   0.270995 0.048883 0.649888 0.555407
C60   C     C_R   0.709043 0.999041 0.360065 0.546360
C61   C     C_R   0.770994 0.548883 0.649889 0.555409
C62   C     C_R   0.209043 0.499041 0.360065 0.546363
C63   C     C_R   0.472199 0.824359 0.649558 0.556104
C64   C     C_R   0.532498 0.823118 0.353867 0.540367
C65   C     C_R   0.972200 0.324359 0.649559 0.556101
C66   C     C_R   0.032498 0.323118 0.353867 0.540380
C67   C     C_R   0.259514 0.633788 0.647756 0.557583
C68   C     C_R   0.994511 0.554558 0.069761 -0.082278
C69   C     C_R   0.724823 0.689105 0.361481 0.546638
C70   C     C_R   0.759514 0.133788 0.647756 0.557586
C71   C     C_R   0.224823 0.189105 0.361481 0.546640
C72   C     C_R   0.499920 0.831174 0.074730 -0.011899
C73   C     C_R   0.498886 0.827299 0.925573 -0.007710
C74   C     C_R   0.999942 0.331208 0.074718 -0.011946
C75   C     C_R   0.998905 0.327287 0.925562 -0.007723
C76   C     C_R   0.500158 0.941351 0.036171 0.025918
C77   C     C_R   0.507068 0.938148 0.961157 0.025690
C78   C     C_R   0.000244 0.441384 0.036142 0.025922
C79   C     C_R   0.022764 0.545395 0.924093 -0.089383
C80   C     C_R   0.007144 0.438138 0.961127 0.025681
C81   C     C_R   0.496568 0.720206 0.964995 -0.177661
C82   C     C_R   0.494456 0.722312 0.037873 -0.183157
C83   C     C_R   0.996558 0.220208 0.964997 -0.177579
C84   C     C_R   0.994438 0.222340 0.037873 -0.183171
C85   C     C_3   0.360780 0.473983 0.930030 -0.248984
C86   C     C_3   0.403518 0.399318 0.982320 -0.467267
C87   C     C_3   0.634913 0.497734 0.063306 -0.243767
C88   C     C_3   0.591226 0.437475 0.006401 -0.472907
C89   C     C_3   0.860761 0.973828 0.929980 -0.248984
C90   C     C_R   0.006146 0.660235 0.031617 -0.130544
C91   C     C_3   0.903475 0.899023 0.982230 -0.467172
C92   C     C_3   0.134885 0.997891 0.063240 -0.243706
C93   C     C_3   0.091203 0.937768 0.006277 -0.472833
C94   C     C_3   0.252122 0.716002 0.061735 -0.279169
C95   C     C_3   0.327087 0.760159 0.051566 -0.428481
C96   C     C_3   0.741697 0.718554 0.933652 -0.279683
C97   C     C_3   0.665592 0.760031 0.937331 -0.432692
C98   C     C_3   0.752148 0.215993 0.061739 -0.279165
C99   C     C_3   0.827114 0.260126 0.051549 -0.428329
C100  C     C_3   0.241708 0.218579 0.933634 -0.279583
Cr1   Cr    Cr6+3 0.230530 0.836340 0.748870 1.013351
Cr2   Cr    Cr6+3 0.614360 0.677860 0.250770 1.004592
Cr3   Cr    Cr6+3 0.885640 0.177860 0.749230 1.003361
Cr4   Cr    Cr6+3 0.114360 0.177860 0.250770 1.004591
Cr5   Cr    Cr6+3 0.769470 0.836340 0.251130 1.014357
Cr6   Cr    Cr6+3 0.730530 0.336340 0.748870 1.013370
Cr7   Cr    Cr6+3 0.269470 0.336340 0.251130 1.014343
Cr8   Cr    Cr6+3 0.387420 0.989430 0.750820 1.013063
Cr9   Cr    Cr6+3 0.612580 0.989430 0.249180 1.011243
Cr10  Cr    Cr6+3 0.887420 0.489430 0.750820 1.013073
Cr11  Cr    Cr6+3 0.112580 0.489430 0.249180 1.011207
Cr12  Cr    Cr6+3 0.385640 0.677860 0.749230 1.003371
H1    H     H_    0.494669 0.633231 0.939442 0.136864
H2    H     H_    0.793564 0.807709 0.459599 0.137244
H3    H     H_    0.637156 0.117202 0.579272 0.151979
H4    H     H_    0.293563 0.307709 0.459599 0.137244
H5    H     H_    0.276795 0.539292 0.449922 0.110174
H6    H     H_    0.691676 0.581520 0.568554 0.097435
H7    H     H_    0.776795 0.039292 0.449922 0.110175
H8    H     H_    0.191676 0.081521 0.568554 0.097435
H9    H     H_    0.284720 0.504229 0.564315 0.097183
H10   H     H_    0.702071 0.579073 0.454458 0.107653
H11   H     H_    0.784720 0.004228 0.564316 0.097183
H12   H     H_    0.491325 0.636634 0.065506 0.139760
H13   H     H_    0.202071 0.079073 0.454458 0.107653
H14   H     H_    0.479593 0.062684 0.125225 0.133316
H15   H     H_    0.536525 0.045062 0.868244 0.125615
H16   H     H_    0.979762 0.562826 0.125172 0.133357
H17   H     H_    0.036635 0.544951 0.868182 0.125592
H18   H     H_    0.002727 0.745376 0.059040 0.112150
H19   H     H_    0.034587 0.736029 0.929489 0.107319
H20   H     H_    0.502394 0.245308 0.059122 0.112139
H21   H     H_    0.534325 0.236094 0.929581 0.107336
H22   H     H_    0.271950 0.401759 0.050603 0.135561
H23   H     H_    0.994624 0.133228 0.939454 0.136833
H24   H     H_    0.734225 0.404336 0.952151 0.135778
H25   H     H_    0.771997 0.901758 0.050615 0.135575
H26   H     H_    0.234268 0.904360 0.952162 0.135748
H27   H     H_    0.189888 0.585960 0.936548 0.101128
H28   H     H_    0.810950 0.583099 0.064738 0.096893
H29   H     H_    0.689910 0.086011 0.936577 0.101087
H30   H     H_    0.310963 0.083071 0.064757 0.096931
H31   H     H_    0.577327 0.675246 0.450930 0.150488
H32   H     H_    0.530410 0.651931 0.571923 0.153328
H33   H     H_    0.077328 0.175245 0.450931 0.150487
H34   H     H_    0.991267 0.136672 0.065516 0.139760
H35   H     H_    0.030413 0.151931 0.571924 0.153326
H36   H     H_    0.481286 0.902064 0.447880 0.099895
H37   H     H_    0.517135 0.928587 0.562076 0.099731
H38   H     H_    0.981288 0.402064 0.447880 0.099896
H39   H     H_    0.017134 0.428588 0.562076 0.099730
H40   H     H_    0.414420 0.451648 0.031438 0.152833
H41   H     H_    0.377020 0.313837 0.996271 0.156656
H42   H     H_    0.453207 0.376650 0.955367 0.132959
H43   H     H_    0.353577 0.419948 0.880813 0.153772
H44   H     H_    0.392107 0.554346 0.916861 0.186684
H45   H     H_    0.115777 0.519072 0.462104 0.138745
H46   H     H_    0.589315 0.492578 0.956934 0.162846
H47   H     H_    0.613049 0.346946 0.994659 0.153604
H48   H     H_    0.537790 0.429367 0.027938 0.121740
H49   H     H_    0.635280 0.438475 0.111230 0.160404
H50   H     H_    0.608727 0.583963 0.076229 0.191128
H51   H     H_    0.914452 0.951313 0.031348 0.152759
H52   H     H_    0.876920 0.813600 0.996193 0.156638
H53   H     H_    0.953131 0.876210 0.955243 0.133083
H54   H     H_    0.853501 0.919849 0.880749 0.153733
H55   H     H_    0.892140 0.054138 0.916815 0.186619
H56   H     H_    0.827558 0.731190 0.577749 0.152194
H57   H     H_    0.089383 0.992917 0.956816 0.162922
H58   H     H_    0.112999 0.847213 0.994537 0.153549
H59   H     H_    0.037727 0.929754 0.027748 0.121686
H60   H     H_    0.135190 0.938576 0.111145 0.160360
H61   H     H_    0.108737 0.084155 0.076172 0.191116
H62   H     H_    0.328424 0.859744 0.048458 0.142272
H63   H     H_    0.359854 0.731374 0.097551 0.160650
H64   H     H_    0.349489 0.724236 0.001450 0.175232
H65   H     H_    0.219638 0.736107 0.014515 0.136919
H66   H     H_    0.228756 0.767032 0.106866 0.157065
H67   H     H_    0.615777 0.019071 0.462104 0.138745
H68   H     H_    0.662926 0.859858 0.938653 0.143165
H69   H     H_    0.636240 0.727995 0.889918 0.154304
H70   H     H_    0.640661 0.725682 0.986528 0.173385
H71   H     H_    0.768891 0.740532 0.983561 0.140029
H72   H     H_    0.767530 0.768880 0.889744 0.151992
H73   H     H_    0.828458 0.359758 0.048576 0.142286
H74   H     H_    0.859928 0.231126 0.097484 0.160676
H75   H     H_    0.849461 0.224351 0.001338 0.175196
H76   H     H_    0.719656 0.236116 0.014530 0.136882
H77   H     H_    0.728803 0.267019 0.106883 0.157057
H78   H     H_    0.327558 0.231188 0.577748 0.152194
H79   H     H_    0.162932 0.359910 0.938430 0.143091
H80   H     H_    0.136068 0.227482 0.890246 0.154374
H81   H     H_    0.140845 0.226152 0.986902 0.173212
H82   H     H_    0.269009 0.240589 0.983483 0.140010
H83   H     H_    0.267447 0.268896 0.889661 0.151914
H84   H     H_    0.137156 0.617203 0.579272 0.151979
O1    O     O_R   0.215090 0.709860 0.828130 -0.527433
O2    O     O_R   0.543740 0.718170 0.330000 -0.512598
O3    O     O_R   0.956260 0.218170 0.670000 -0.512680
O4    O     O_R   0.043740 0.218170 0.330000 -0.512591
O5    O     O_R   0.320940 0.626760 0.674370 -0.497800
O6    O     O_R   0.679060 0.626760 0.325630 -0.497435
O7    O     O_R   0.820940 0.126760 0.674370 -0.497801
O8    O     O_R   0.179060 0.126760 0.325630 -0.497428
O9    O     O_3   0.334530 0.834540 0.749640 -0.243189
O10   O     O_3   0.665470 0.834540 0.250360 -0.290389
O11   O     O_3   0.834530 0.334540 0.749640 -0.243197
O12   O     O_R   0.784910 0.709860 0.171870 -0.520399
O13   O     O_3   0.165470 0.334540 0.250360 -0.290393
O14   O     O_R   0.236990 0.958390 0.823710 -0.509864
O15   O     O_R   0.763010 0.958390 0.176290 -0.502039
O16   O     O_R   0.736990 0.458390 0.823710 -0.509853
O17   O     O_R   0.263010 0.458390 0.176290 -0.502037
O18   O     O_R   0.332380 0.074750 0.830850 -0.517142
O19   O     O_R   0.667620 0.074750 0.169150 -0.510927
O20   O     O_R   0.832380 0.574750 0.830850 -0.517146
O21   O     O_R   0.167620 0.574750 0.169150 -0.510961
O22   O     O_R   0.445800 0.917770 0.825070 -0.503467
O23   O     O_R   0.715090 0.209860 0.828130 -0.527427
O24   O     O_R   0.554200 0.917770 0.174930 -0.503158
O25   O     O_R   0.945800 0.417770 0.825070 -0.503441
O26   O     O_R   0.054200 0.417770 0.174930 -0.503196
O27   O     O_R   0.456410 0.716580 0.829970 -0.537394
O28   O     O_R   0.543590 0.716580 0.170030 -0.530887
O29   O     O_R   0.956410 0.216580 0.829970 -0.537412
O30   O     O_R   0.043590 0.216580 0.170030 -0.530887
O31   O     O_R   0.321080 0.625290 0.822650 -0.509611
O32   O     O_R   0.678920 0.625290 0.177350 -0.501103
O33   O     O_R   0.821080 0.125290 0.822650 -0.509600
O34   O     O_R   0.284910 0.209860 0.171870 -0.520407
O35   O     O_R   0.178920 0.125290 0.177350 -0.501104
O36   O     O_R   0.214930 0.711450 0.668160 -0.514028
O37   O     O_R   0.785070 0.711450 0.331840 -0.501589
O38   O     O_R   0.714930 0.211450 0.668160 -0.514025
O39   O     O_R   0.285070 0.211450 0.331840 -0.501588
O40   O     O_R   0.236850 0.959870 0.675420 -0.497840
O41   O     O_R   0.763150 0.959870 0.324580 -0.511553
O42   O     O_R   0.736850 0.459870 0.675420 -0.497838
O43   O     O_R   0.263150 0.459870 0.324580 -0.511552
O44   O     O_R   0.332230 0.076350 0.670880 -0.516573
O45   O     O_R   0.445660 0.919250 0.676780 -0.500413
O46   O     O_R   0.667770 0.076350 0.329120 -0.492764
O47   O     O_R   0.832230 0.576350 0.670880 -0.516570
O48   O     O_R   0.167770 0.576350 0.329120 -0.492764
O49   O     O_R   0.554340 0.919250 0.323220 -0.517249
O50   O     O_R   0.945660 0.419250 0.676780 -0.500416
O51   O     O_R   0.054340 0.419250 0.323220 -0.517240
O52   O     O_R   0.456260 0.718170 0.670000 -0.512678

loop_
_geom_bond_atom_site_label_1
_geom_bond_atom_site_label_2
_ccdc_geom_bond_type
C11   C96   S    
Cr3   O33   S    
C65   O50   A    
C49   C53   S    
C61   O47   A    
Cr11  O48   S    
C64   O2    A    
C13   O15   A    
C59   O40   A    
C7    C55   S    
C86   H40   S    
C72   C76   A    
C8    C56   S    
C46   C76   A    
C37   C62   S    
C24   O16   A    
Cr2   O28   S    
Cr5   O10   S    
C4    H20   S    
C15   H22   S    
C4    C46   A    
C85   C86   S    
C25   C28   D    
C5    H21   S    
C63   O52   A    
C93   H57   S    
C3    H81   S    
C54   O1    A    
C30   H33   S    
C67   O5    A    
C61   O42   A    
Cr4   O8    S    
C26   H39   S    
C43   O25   A    
C86   H41   S    
Cr3   O11   S    
Cr12  O9    S    
C48   C52   S    
C42   O24   A    
C10   C15   D    
Cr2   O2    S    
C94   H66   S    
C30   C31   S    
C99   H74   S    
C10   C35   S    
C78   C80   A    
C9    C22   D    
C52   H3    S    
C10   C94   S    
C40   C49   D    
C79   H17   S    
C20   C87   S    
C11   C24   S    
C2    C90   A    
C9    C58   S    
C85   H43   S    
C88   H47   S    
C73   C81   A    
C6    H27   S    
C18   H26   S    
C95   H63   S    
C89   H55   S    
C69   O37   A    
C36   C53   D    
C46   H14   S    
C40   C59   S    
C15   C19   S    
C50   H84   S    
Cr10  O47   S    
C64   O49   A    
Cr8   O44   S    
C12   C17   D    
C68   C90   A    
Cr10  O11   S    
C58   O35   A    
C71   O39   A    
C89   C91   S    
C75   C80   A    
C34   C70   S    
C12   C98   S    
Cr5   O41   S    
C36   C71   S    
C33   C69   S    
Cr7   O39   S    
C38   C61   S    
Cr8   O22   S    
Cr10  O50   S    
C23   C63   S    
Cr6   O23   S    
C23   H37   S    
Cr9   O49   S    
C69   O6    A    
Cr12  O31   S    
C65   O3    A    
C99   H75   S    
C27   C30   D    
C68   C78   A    
Cr4   O4    S    
C91   H51   S    
C1    C14   S    
Cr9   O10   S    
Cr4   O13   S    
C6    C54   S    
C98   H77   S    
C42   O28   A    
C35   O21   A    
C83   H23   S    
C82   H12   S    
C91   H53   S    
C41   O22   A    
C66   O51   A    
C43   C75   S    
C71   O8    A    
C54   O31   A    
C93   H58   S    
C51   H2    S    
C2    H19   S    
C2    C79   A    
C57   C77   A    
C97   H70   S    
C45   H45   S    
C76   C77   A    
C3    C100  S    
Cr6   O11   S    
Cr9   O19   S    
Cr8   O9    S    
C97   H68   S    
C47   C51   S    
C49   H78   S    
C19   C85   S    
C29   H32   S    
Cr7   O43   S    
C55   O12   A    
C81   C82   A    
C62   O43   A    
C94   H65   S    
C38   H6    S    
C55   O32   A    
Cr8   O45   S    
Cr10  O20   S    
C95   H64   S    
Cr11  O13   S    
C66   O4    A    
C58   O34   A    
C3    H79   S    
C35   O17   A    
C11   C16   D    
C83   C84   A    
Cr7   O17   S    
Cr8   O18   S    
C16   C20   S    
Cr6   O16   S    
C96   C97   S    
C87   H50   S    
Cr1   O40   S    
Cr2   O32   S    
C8    C21   D    
C14   C100  S    
C28   H31   S    
Cr3   O3    S    
C88   H48   S    
C44   C74   S    
C33   C51   D    
Cr2   O10   S    
C32   C50   D    
C38   C47   D    
C41   O27   A    
Cr1   O9    S    
C85   H44   S    
C32   C67   S    
C25   C64   S    
C40   H8    S    
C67   O36   A    
C98   C99   S    
C27   H38   S    
C100  H82   S    
C62   O48   A    
C74   C78   A    
C33   H10   S    
Cr1   O14   S    
Cr12  O27   S    
C91   H52   S    
C44   O26   A    
C96   H71   S    
C37   C45   D    
Cr4   O30   S    
C16   H24   S    
C34   C52   D    
C23   C29   D    
C99   H73   S    
C28   C29   S    
Cr5   O12   S    
Cr1   O36   S    
C100  H83   S    
C70   O7    A    
Cr12  O52   S    
C68   H16   S    
C93   H59   S    
C22   C92   S    
Cr6   O38   S    
C87   H49   S    
C1    O14   A    
C96   H72   S    
C26   C65   S    
Cr5   O37   S    
C14   C18   D    
C95   H62   S    
C13   O19   A    
C21   C89   S    
C74   C84   A    
C4    C5    A    
Cr4   O35   S    
C88   H46   S    
C57   H15   S    
Cr12  O5    S    
C9    H30   S    
C53   H4    S    
C97   H69   S    
Cr7   O13   S    
C84   H34   S    
C92   H61   S    
Cr3   O29   S    
C60   O46   A    
Cr5   O15   S    
C5    C57   A    
C63   O45   A    
C70   O38   A    
C8    H29   S    
C18   C22   S    
C59   O44   A    
C86   H42   S    
C31   H35   S    
C27   C66   S    
C3    H80   S    
C45   C50   S    
C47   H56   S    
C24   O20   A    
C75   C83   A    
C7    H28   S    
C44   O30   A    
Cr9   O46   S    
C92   H60   S    
C39   H7    S    
C39   C60   S    
C92   C93   S    
C56   O33   A    
C25   H36   S    
Cr1   O1    S    
C56   O23   A    
Cr2   O6    S    
C94   C95   S    
Cr3   O7    S    
C89   H54   S    
C41   C73   S    
C79   C80   A    
C90   H18   S    
C26   C31   D    
C36   H13   S    
C37   H5    S    
C12   C13   S    
C87   C88   S    
Cr11  O51   S    
C7    C20   D    
Cr6   O42   S    
Cr7   O34   S    
C81   H1    S    
C1    O18   A    
Cr9   O24   S    
C34   H11   S    
C73   C77   A    
C32   H9    S    
C17   H25   S    
C60   O41   A    
Cr11  O21   S    
C42   C72   S    
Cr10  O25   S    
C98   H76   S    
C6    C19   D    
Cr11  O26   S    
C48   H67   S    
C72   C82   A    
C43   O29   A    
C39   C48   D    
C17   C21   S    
