data_mof_unit_44095.cif
_audit_creation_date              2013-03-05T15:57:28-0500
_audit_creation_method            fapswitch 2.2
_symmetry_space_group_name_H-M    P1
_symmetry_Int_Tables_number       1
_space_group_crystal_system       triclinic
_cell_length_a                    13.69969
_cell_length_b                    15.052221
_cell_length_c                    15.656402
_cell_angle_alpha                 89.864068
_cell_angle_beta                  69.670666
_cell_angle_gamma                 89.670935
_cell_volume                      3027.3678219

loop_
_atom_site_label
_atom_site_type_symbol
_atom_site_description
_atom_site_fract_x
_atom_site_fract_y
_atom_site_fract_z
_atom_type_partial_charge
O1    O     O_R   0.417730 0.629750 0.499970 -0.601105
O2    O     O_R   0.582270 0.370250 0.500030 -0.588225
O3    O     O_R   0.582270 0.629730 0.499980 -0.591584
O4    O     O_R   0.417730 0.370270 0.500020 -0.583387
C1    C     C_R   0.499837 0.671407 0.499721 0.793518
C2    C     C_R   0.500140 0.328617 0.500065 0.826550
O5    O     O_R   0.371590 0.500020 0.629830 -0.538433
O6    O     O_R   0.628410 0.499980 0.370170 -0.531597
O7    O     O_R   0.536130 0.499990 0.629840 -0.576897
O8    O     O_R   0.463870 0.500010 0.370160 -0.575812
C3    C     C_R   0.436536 0.498396 0.673360 0.830585
C4    C     C_R   0.563647 0.499071 0.326640 0.836473
Cu1   Cu    Cu3+1 0.402580 0.500010 0.499990 0.986182
Cu2   Cu    Cu3+1 0.597420 0.499990 0.500010 0.992425
C5    C     C_R   0.398437 0.485327 0.773268 -0.173869
C6    C     C_R   0.603766 0.490447 0.226247 -0.167270
C7    C     C_R   0.267865 0.437567 0.915073 -0.266330
C8    C     C_R   0.743971 0.473486 0.080770 -0.258572
C9    C     C_R   0.294208 0.462988 0.823438 0.452311
C10   C     C_R   0.711584 0.488535 0.175146 0.459696
C11   C     C_R   0.471537 0.487371 0.817420 -0.228539
C12   C     C_R   0.531822 0.479429 0.181702 -0.216120
C13   C     C_R   0.448256 0.454784 0.906363 0.110468
C14   C     C_R   0.563814 0.457710 0.088818 0.109961
C15   C     C_R   0.343392 0.434592 0.956746 0.023778
C16   C     C_R   0.671164 0.460870 0.037550 0.025250
C17   C     C_R   0.525342 0.445807 0.947968 -0.088088
C18   C     C_R   0.491478 0.438174 0.044594 -0.075030
C19   C     C_R   0.387260 0.410338 0.092474 0.336701
C20   C     C_R   0.634661 0.442964 0.897758 0.339983
C21   C     C_R   0.314950 0.409707 0.047853 -0.253453
C22   C     C_R   0.705365 0.450120 0.943539 -0.235028
H1    H     H_    0.235797 0.388732 0.084598 0.185351
H2    H     H_    0.788158 0.447265 0.905037 0.187262
H3    H     H_    0.450196 0.489015 0.220250 0.207042
H4    H     H_    0.547102 0.515079 0.781153 0.200817
H5    H     H_    0.188760 0.417717 0.953249 0.149784
H6    H     H_    0.826308 0.470643 0.041034 0.139623
C23   C     C_R   0.560473 0.185446 0.541540 -0.183464
C24   C     C_R   0.437746 0.814583 0.459461 -0.205225
C25   C     C_R   0.499873 0.232018 0.500503 -0.096796
C26   C     C_R   0.499184 0.768059 0.499922 -0.088475
C27   C     C_R   0.437727 0.186445 0.460891 -0.150429
C28   C     C_R   0.559947 0.813741 0.540871 -0.164536
C29   C     C_R   0.437405 0.093953 0.460335 0.056785
C30   C     C_R   0.558494 0.906229 0.543139 0.068421
C31   C     C_R   0.497836 0.046637 0.502231 -0.006698
C32   C     C_R   0.497613 0.953441 0.501606 0.000750
C33   C     C_R   0.558447 0.092598 0.544661 0.023992
C34   C     C_R   0.437501 0.907466 0.458601 0.018629
C35   C     C_R   0.378211 0.048306 0.417841 -0.239487
C36   C     C_R   0.616694 0.951974 0.586649 -0.268468
C37   C     C_R   0.379464 0.955495 0.415009 0.438015
C38   C     C_R   0.614612 0.044978 0.590191 0.461398
H7    H     H_    0.607544 0.222039 0.572332 0.208751
H8    H     H_    0.391653 0.778105 0.427513 0.192427
H9    H     H_    0.391256 0.223080 0.428865 0.179670
H10   H     H_    0.606758 0.777140 0.572579 0.162994
H11   H     H_    0.332035 0.084515 0.385290 0.187128
H12   H     H_    0.663778 0.915623 0.618184 0.171677
C39   C     C_R   0.222050 0.568682 0.460721 0.096511
C40   C     C_R   0.778154 0.431075 0.538888 0.166541
N1    N     N_R   0.256170 0.500070 0.500040 -0.212463
N2    N     N_R   0.743830 0.499930 0.499960 -0.215425
C41   C     C_R   0.192108 0.430917 0.538462 0.098792
C42   C     C_R   0.808710 0.567947 0.459480 0.089241
C43   C     C_R   0.088514 0.428581 0.539465 -0.143082
C44   C     C_R   0.911787 0.571032 0.459805 -0.140164
C45   C     C_R   0.052152 0.499477 0.499060 0.010888
C46   C     C_R   0.948695 0.499401 0.498885 -0.003005
C47   C     C_R   0.119663 0.570316 0.458559 -0.121736
C48   C     C_R   0.881947 0.427554 0.537537 -0.102992
C49   C     C_R   0.021916 0.356300 0.577554 0.229814
C50   C     C_R   0.978930 0.642751 0.420551 0.237001
C51   C     C_R   0.919533 0.355114 0.575323 0.288485
C52   C     C_R   0.082994 0.641633 0.418702 0.259970
H13   H     H_    0.275336 0.622152 0.431247 0.170898
H14   H     H_    0.723716 0.379263 0.571557 0.181896
H15   H     H_    0.222413 0.377698 0.568443 0.189620
H16   H     H_    0.779538 0.619445 0.426495 0.170703
N3    N     N_R   0.059056 0.281862 0.615201 0.135882
O9    O     O_R   0.060750 0.202851 0.581188 -0.275262
O10   O     O_R   0.083526 0.291717 0.687801 -0.347717
N4    N     N_R   0.942175 0.717108 0.382329 0.131233
O11   O     O_R   0.864325 0.764811 0.433371 -0.350559
O12   O     O_R   0.992632 0.742565 0.299254 -0.334270
N5    N     N_R   0.854549 0.279523 0.610826 0.162028
O13   O     O_R   0.819328 0.233449 0.557678 -0.327134
O14   O     O_R   0.840321 0.250761 0.692692 -0.256119
N6    N     N_R   0.150188 0.714597 0.378332 0.129867
O15   O     O_R   0.124467 0.794935 0.408559 -0.274461
O16   O     O_R   0.233497 0.701589 0.307356 -0.399560
O17   O     O_3   0.783565 0.492899 0.219426 -0.589783
C53   C     C_3   0.860749 0.558157 0.181170 0.058923
H17   H     H_    0.858877 0.605255 0.236284 0.185352
H18   H     H_    0.848249 0.599122 0.126278 0.123434
C54   C     C_3   0.968173 0.513630 0.146066 -0.343539
H19   H     H_    0.983798 0.481078 0.203875 0.246943
H20   H     H_    0.969737 0.461663 0.095345 0.213443
C55   C     C_3   0.053973 0.580735 0.101604 -0.874451
H21   H     H_    0.042050 0.611691 0.041463 0.242845
H22   H     H_    0.130730 0.546551 0.078703 0.255726
H23   H     H_    0.054587 0.633274 0.151026 0.304766
O18   O     O_3   0.221084 0.458530 0.780692 -0.573687
C56   C     C_3   0.140426 0.520915 0.820111 0.055742
H24   H     H_    0.172619 0.587893 0.825168 0.131066
H25   H     H_    0.090083 0.498530 0.889087 0.141852
C57   C     C_3   0.073164 0.528621 0.760299 -0.291637
H26   H     H_    0.121471 0.553391 0.691777 0.224205
H27   H     H_    0.042613 0.462065 0.752460 0.261454
C58   C     C_3   0.981580 0.592018 0.801556 -0.888692
H28   H     H_    0.931763 0.568486 0.870105 0.245865
H29   H     H_    0.933824 0.594991 0.756972 0.284224
H30   H     H_    0.010133 0.659854 0.807489 0.258961
N7    N     N_R   0.356924 0.370814 0.181569 0.110007
O19   O     O_R   0.417709 0.313106 0.200317 -0.358482
O20   O     O_R   0.263108 0.382646 0.239496 -0.359507
N8    N     N_R   0.676212 0.421525 0.802556 0.115583
O21   O     O_R   0.637206 0.356343 0.770658 -0.371412
O22   O     O_R   0.761959 0.458401 0.750446 -0.402272
O23   O     O_3   0.321550 0.912594 0.370929 -0.556840
C59   C     C_3   0.380789 0.905745 0.276875 0.059060
H31   H     H_    0.416764 0.838451 0.263406 0.167049
H32   H     H_    0.444516 0.955839 0.252193 0.118929
C60   C     C_3   0.308701 0.918219 0.221949 -0.226688
H33   H     H_    0.244528 0.869214 0.244317 0.296869
H34   H     H_    0.273950 0.985976 0.234471 0.225349
C61   C     C_3   0.367395 0.906511 0.120092 -0.910350
H35   H     H_    0.430594 0.956314 0.095520 0.255740
H36   H     H_    0.312885 0.916009 0.082325 0.268713
H37   H     H_    0.401411 0.838632 0.105865 0.265416
O24   O     O_3   0.673225 0.089759 0.632624 -0.544805
C62   C     C_3   0.627007 0.081861 0.728498 0.111889
H38   H     H_    0.687084 0.100356 0.757938 0.224736
H39   H     H_    0.603741 0.012443 0.751025 0.102658
C63   C     C_3   0.533629 0.145272 0.766492 -0.386543
H40   H     H_    0.555436 0.212543 0.737312 0.275179
H41   H     H_    0.467880 0.121488 0.746642 0.204409
C64   C     C_3   0.497603 0.151503 0.870128 -0.798503
H42   H     H_    0.474340 0.084994 0.901197 0.241978
H43   H     H_    0.429596 0.197149 0.895108 0.265901
H44   H     H_    0.560913 0.178087 0.891687 0.276023

loop_
_geom_bond_atom_site_label_1
_geom_bond_atom_site_label_2
_geom_bond_distance
_ccdc_geom_bond_type
C15   C21   1.392737 A    
C42   C44   1.414934 A    
C1    C26   1.454806 S    
N1    C41   1.362451 A    
C16   C22   1.390389 A    
O17   C53   1.418025 S    
C41   H15   1.078980 S    
C49   C51   1.415357 A    
C58   H28   1.111352 S    
C8    C16   1.400198 A    
N5    O13   1.300671 A    
C61   H35   1.110959 S    
C54   H19   1.111921 S    
C23   C25   1.398313 A    
C11   H4    1.078631 S    
O5    C3    1.295267 A    
C12   H3    1.079427 S    
C56   H25   1.113032 S    
C50   C52   1.415846 A    
O1    C1    1.289762 A    
C18   C19   1.427475 A    
N4    O12   1.300892 A    
C48   C51   1.416401 A    
C47   C52   1.415120 A    
C64   H44   1.111013 S    
C41   C43   1.414465 A    
C29   C35   1.398507 A    
C44   C50   1.415860 A    
N7    O19   1.301706 A    
C30   C36   1.399937 A    
C57   H26   1.111543 S    
C39   N1    1.362139 A    
O4    Cu1   1.962704 S    
C45   C47   1.412474 A    
N8    O21   1.300526 A    
C40   N2    1.362819 A    
C36   H12   1.084063 S    
N3    O10   1.300967 A    
C3    C5    1.479951 S    
C23   H7    1.083031 S    
C4    C6    1.479655 S    
C28   H10   1.084921 S    
O24   C62   1.416959 S    
C24   H8    1.084052 S    
C2    C25   1.454055 S    
C62   C63   1.536646 S    
C6    C12   1.401906 A    
C21   H1    1.084482 S    
C43   C49   1.414927 A    
C13   C17   1.426097 A    
C6    C10   1.414619 A    
C39   C47   1.414860 A    
C24   C26   1.400607 A    
C19   N7    1.438238 S    
Cu1   Cu2   2.669355 S    
C17   C20   1.429720 A    
C25   C27   1.398432 A    
O2    C2    1.290870 A    
C26   C28   1.398678 A    
C63   C64   1.526058 S    
C49   N3    1.435414 S    
O18   C56   1.414443 S    
C54   H20   1.110785 S    
C36   C38   1.400872 A    
N3    O9    1.301009 A    
C29   C31   1.411105 A    
C56   C57   1.528814 S    
C30   C32   1.411143 A    
C34   C37   1.410220 A    
N4    O11   1.301300 A    
C63   H41   1.111225 S    
C39   H13   1.079135 S    
C20   N8    1.435441 S    
C53   C54   1.531509 S    
N7    O20   1.301662 A    
C55   H23   1.109816 S    
C43   C45   1.413079 A    
N2    C42   1.362294 A    
C5    C9    1.412047 A    
O7    Cu2   1.910726 S    
C60   C61   1.526250 S    
O7    C3    1.296453 A    
C9    O18   1.386642 S    
N6    O16   1.301140 A    
C31   C32   1.402889 A    
Cu1   N1    2.005495 S    
C5    C11   1.401136 A    
O6    C4    1.293128 A    
Cu2   N2    2.005496 S    
C55   H22   1.109841 S    
C40   C48   1.415407 A    
C53   H17   1.111352 S    
C58   H29   1.110899 S    
C7    H5    1.083407 S    
C53   H18   1.116530 S    
C27   C29   1.392309 A    
O23   C59   1.416715 S    
O3    Cu2   1.962704 S    
O8    C4    1.298301 A    
C51   N5    1.435595 S    
C23   C33   1.398402 A    
C11   C13   1.404064 A    
C60   H33   1.109933 S    
C12   C14   1.404109 A    
O4    C2    1.288459 A    
O1    Cu1   1.965046 S    
C59   H32   1.118863 S    
C61   H37   1.110947 S    
C54   C55   1.525855 S    
C38   O24   1.385456 S    
C60   H34   1.111652 S    
O6    Cu2   1.926905 S    
C40   H14   1.079711 S    
C14   C18   1.424418 A    
C50   N4    1.436686 S    
C63   H40   1.108918 S    
O3    C1    1.289936 A    
O8    Cu1   1.910726 S    
C61   H36   1.110378 S    
C64   H42   1.110868 S    
C31   C33   1.414729 A    
C42   H16   1.079449 S    
C56   H24   1.116668 S    
C57   C58   1.525809 S    
C7    C15   1.402382 A    
C59   C60   1.528818 S    
N5    O14   1.301144 A    
C8    H6    1.083150 S    
C19   C21   1.396594 A    
C37   O23   1.382472 S    
C20   C22   1.395549 A    
C64   H43   1.110764 S    
C14   C16   1.410602 A    
N6    O15   1.300925 A    
C62   H38   1.110934 S    
C24   C34   1.398121 A    
C32   C34   1.415783 A    
C55   H21   1.110990 S    
C7    C9    1.405058 A    
C57   H27   1.111288 S    
C58   H30   1.111096 S    
C8    C10   1.405837 A    
C13   C15   1.412421 A    
C45   C46   1.418288 A    
O2    Cu2   1.965045 S    
C10   O17   1.390441 S    
N8    O22   1.301182 A    
C27   H9    1.085019 S    
O5    Cu1   1.926907 S    
C35   H11   1.084288 S    
C44   C46   1.413540 A    
C52   N6    1.434267 S    
C17   C18   1.424483 A    
C62   H39   1.114347 S    
C46   C48   1.412699 A    
C35   C37   1.397632 A    
C59   H31   1.111957 S    
C28   C30   1.392538 A    
C33   C38   1.409358 A    
C22   H2    1.084534 S    
