data_mof_unit_65068.cif
_audit_creation_date              2012-12-11T15:00:50-0500
_audit_creation_method            fapswitch 2.2
_symmetry_space_group_name_H-M    P1
_symmetry_Int_Tables_number       1
_space_group_crystal_system       triclinic
_cell_length_a                    13.272943
_cell_length_b                    13.280895
_cell_length_c                    26.81866
_cell_angle_alpha                 96.811283
_cell_angle_beta                  97.040205
_cell_angle_gamma                 61.248838
_cell_volume                      4103.75570509

loop_
_atom_site_label
_atom_site_type_symbol
_atom_type_description
_atom_site_fract_x
_atom_site_fract_y
_atom_site_fract_z
_atom_type_partial_charge
Br1   Br    Br    0.583931 0.748749 0.197018 -0.522675
Br2   Br    Br    0.211829 0.068111 0.320672 -0.627270
Br3   Br    Br    0.463099 0.477770 0.721966 -0.574931
Br4   Br    Br    0.922364 0.494288 0.209401 -0.481634
C1    C     C_R   0.379011 0.723075 0.435241 0.544363
C2    C     C_3   0.727285 0.399884 0.208694 -0.200770
C3    C     C_3   0.853604 0.312332 0.198818 0.062847
C4    C     C_R   0.394566 0.373116 0.417693 0.546326
C5    C     C_3   0.936856 0.351652 0.230632 0.061871
C6    C     C_3   0.917549 0.364425 0.287429 -0.179476
C7    C     C_1   0.871596 0.301270 0.145374 -0.025221
C8    C     C_1   0.803782 0.344747 0.348377 -0.055994
C9    C     C_1   0.775251 0.364729 0.390610 0.002539
C10   C     C_3   0.454271 0.724288 0.269722 -0.227148
C11   C     C_3   0.337468 0.938638 0.286534 0.056412
C12   C     C_1   0.329155 0.338922 0.268295 0.014845
C13   C     C_3   0.325653 0.955876 0.229411 -0.173060
C14   C     C_1   0.304864 0.889905 0.101054 0.015677
C15   C     C_3   0.344813 0.820857 0.293893 0.050591
C16   C     C_R   0.724645 0.399248 0.437483 0.544800
C17   C     C_3   0.448616 0.739731 0.212762 0.043051
C18   C     C_3   0.333850 0.846887 0.197406 0.046260
C19   C     C_3   0.232323 0.829028 0.209250 -0.252222
C20   C     C_3   0.238387 0.814334 0.266033 -0.213184
C21   C     C_1   0.323101 0.864374 0.143825 -0.022881
C22   C     C_1   0.352303 0.801190 0.347032 -0.014053
C23   C     C_1   0.343148 0.346640 0.321161 -0.019637
C24   C     C_1   0.361715 0.773142 0.388903 0.017278
C25   C     C_3   0.439828 0.346607 0.731331 0.058339
C26   C     C_3   0.329595 0.236120 0.705838 -0.251899
C27   C     C_3   0.319589 0.229435 0.762077 -0.226482
C28   C     C_R   0.381592 0.724384 0.575538 0.551720
C29   C     C_1   0.296590 0.309001 0.887846 -0.007545
C30   C     C_3   0.333831 0.347696 0.698327 0.070894
C31   C     C_3   0.427995 0.341739 0.787751 -0.182108
C32   C     C_3   0.316196 0.336634 0.793764 0.035784
C33   C     C_3   0.211878 0.445920 0.773078 -0.215758
C34   C     C_1   0.361916 0.355886 0.365980 0.013199
C35   C     C_3   0.221567 0.451872 0.716566 -0.201727
C36   C     C_1   0.306203 0.327134 0.846438 -0.068474
C37   C     C_1   0.345324 0.352841 0.645306 -0.028720
C38   C     C_1   0.363244 0.360279 0.603544 0.018194
C39   C     C_1   0.888327 0.294467 0.864559 -0.004447
C40   C     C_R   0.395666 0.375969 0.557710 0.556615
C41   C     C_1   0.860225 0.306440 0.820305 -0.035907
C42   C     C_1   0.836914 0.320592 0.768093 0.013852
C43   C     C_1   0.819823 0.334126 0.723607 0.022563
C44   C     C_1   0.797492 0.353106 0.671797 -0.018839
C45   C     C_3   0.710398 0.412411 0.265536 -0.222492
C46   C     C_1   0.770759 0.373420 0.628111 0.008368
C47   C     C_1   0.293482 0.893551 0.862875 -0.004403
C48   C     C_1   0.313313 0.865796 0.819287 -0.034459
C49   C     C_1   0.331027 0.842191 0.767469 0.017434
C50   C     C_1   0.343149 0.824286 0.722940 0.026842
C51   C     C_1   0.355604 0.800508 0.670716 -0.015482
C52   C     C_R   0.723935 0.403849 0.577767 0.550046
C53   C     C_1   0.366516 0.772432 0.626502 0.010597
C54   C     C_R   0.942414 0.277714 0.056076 0.549465
C55   C     C_R   0.287927 0.271130 0.073280 0.542182
C56   C     C_3   0.862179 0.205771 0.273491 -0.223030
C57   C     C_R   0.270606 0.937519 0.053347 0.546086
C58   C     C_R   0.936802 0.279115 0.915612 0.542479
C59   C     C_R   0.281646 0.274047 0.933230 0.543066
C60   C     C_R   0.262686 0.940971 0.912949 0.544430
C61   C     C_1   0.304524 0.302099 0.125248 0.006541
C62   C     C_1   0.313379 0.319285 0.170167 -0.027697
C63   C     C_1   0.321203 0.331720 0.223055 0.011914
C64   C     C_3   0.879892 0.194468 0.216588 -0.251328
C65   C     C_1   0.896438 0.291958 0.103019 0.022712
C66   C     C_3   0.823979 0.331230 0.295127 0.030776
Cr1   Cr    Cr6+3 0.585490 0.589720 0.509170 1.044455
Cr2   Cr    Cr6+3 0.329280 0.580760 0.494920 1.050036
Cr3   Cr    Cr6+3 0.585250 0.329540 0.495950 1.048707
Cr4   Cr    Cr6+3 0.077160 0.074530 0.981700 1.035639
Cr5   Cr    Cr6+3 0.079310 0.333830 0.996170 1.058997
Cr6   Cr    Cr6+3 0.334250 0.081620 0.994710 1.051687
H1    H     H_    0.667883 0.370381 0.187210 0.109193
H2    H     H_    0.461871 0.638584 0.274280 0.091966
H3    H     H_    0.451686 0.661850 0.190801 0.130288
H4    H     H_    0.148600 0.904089 0.198198 0.130395
H5    H     H_    0.504113 0.264392 0.802828 0.106800
H6    H     H_    0.519367 0.268515 0.719603 0.136979
H7    H     H_    0.254636 0.234202 0.682907 0.125581
H8    H     H_    0.408781 0.159395 0.692857 0.117989
H9    H     H_    0.394167 0.149543 0.776083 0.127415
H10   H     H_    0.943804 0.145825 0.293986 0.169266
H11   H     H_    0.240055 0.223623 0.766072 0.128917
H12   H     H_    0.682402 0.503323 0.279957 0.143223
H13   H     H_    0.145399 0.451750 0.694029 0.112112
H14   H     H_    0.208434 0.524204 0.794768 0.138062
H15   H     H_    0.426712 0.418174 0.810326 0.168849
H16   H     H_    0.795735 0.180440 0.278799 0.134239
H17   H     H_    0.970294 0.129116 0.209810 0.122267
H18   H     H_    0.891011 0.454305 0.303054 0.170636
H19   H     H_    0.999787 0.308170 0.308619 0.161599
H20   H     H_    0.704058 0.485085 0.195449 0.206467
H21   H     H_    0.027417 0.284915 0.225022 0.145073
H22   H     H_    0.532439 0.724992 0.289805 0.160969
H23   H     H_    0.418199 0.938728 0.303629 0.160936
H24   H     H_    0.219991 0.534204 0.710847 0.171907
H25   H     H_    0.130152 0.444896 0.777655 0.124763
H26   H     H_    0.822414 0.163108 0.194647 0.132976
H27   H     H_    0.393936 0.975408 0.220663 0.162390
H28   H     H_    0.241801 0.031580 0.219190 0.145226
H29   H     H_    0.243696 0.729789 0.270960 0.124024
H30   H     H_    0.640446 0.392261 0.271181 0.116531
H31   H     H_    0.157795 0.882048 0.282221 0.173791
H32   H     H_    0.235027 0.751528 0.187057 0.126439
O1    O     O_R   0.700490 0.499650 0.456540 -0.505862
O2    O     O_R   0.362200 0.173970 0.055450 -0.502051
O3    O     O_R   0.326660 0.983110 0.039170 -0.483018
O4    O     O_R   0.479270 0.682700 0.457880 -0.497352
O5    O     O_R   0.165170 0.960730 0.925500 -0.503757
O6    O     O_R   0.978790 0.179600 0.932440 -0.495029
O7    O     O_R   0.960680 0.356080 0.937360 -0.502016
O8    O     O_R   0.182750 0.328100 0.950670 -0.496011
O9    O     O_R   0.356720 0.175530 0.946790 -0.506089
O10   O     O_R   0.321590 0.984560 0.938450 -0.492596
O11   O     O_3   0.163570 0.163330 0.990860 -0.261889
O12   O     O_R   0.339040 0.474950 0.540330 -0.489748
O13   O     O_R   0.304400 0.696100 0.445190 -0.503614
O14   O     O_R   0.337880 0.472540 0.439600 -0.496421
O15   O     O_R   0.493250 0.300300 0.435260 -0.502410
O16   O     O_R   0.681040 0.341130 0.451400 -0.495877
O17   O     O_R   0.701750 0.502250 0.565200 -0.502957
O18   O     O_R   0.480430 0.685110 0.558610 -0.491315
O19   O     O_R   0.305650 0.698700 0.553850 -0.499719
O20   O     O_R   0.494500 0.302900 0.543920 -0.502164
O21   O     O_R   0.682200 0.343540 0.552130 -0.489656
O22   O     O_3   0.500010 0.500010 0.500010 -0.258232
O23   O     O_R   0.170650 0.959160 0.034150 -0.510734
O24   O     O_R   0.983870 0.178140 0.033160 -0.503881
O25   O     O_R   0.966160 0.354510 0.046020 -0.478456
O26   O     O_R   0.187830 0.326650 0.051390 -0.485938

loop_
_geom_bond_atom_site_label_1
_geom_bond_atom_site_label_2
_ccdc_geom_bond_type
Br1   C17   S    
C27   H9    S    
Cr4   O24   S    
Cr2   O13   S    
C37   C38   T    
C31   C32   S    
C31   H5    S    
Cr5   O26   S    
C49   C50   T    
C11   C15   S    
Cr4   O11   S    
C30   C37   S    
C4    C34   S    
C33   H14   S    
C10   C17   S    
C32   C33   S    
C13   H28   S    
C64   H26   S    
C58   O6    A    
C26   C27   S    
C59   O9    A    
C6    H18   S    
C23   C34   T    
Cr4   O6    S    
C1    O13   A    
C55   O2    A    
C60   O10   A    
C11   C13   S    
C42   C43   T    
C28   O18   A    
C26   H7    S    
Br3   C25   S    
C15   C22   S    
C3    C64   S    
C50   C51   S    
C54   O24   A    
Cr3   O15   S    
C18   C21   S    
C19   C20   S    
Cr1   O18   S    
C19   H4    S    
C5    C6    S    
C52   O21   A    
C12   C23   S    
C44   C46   T    
C62   C63   S    
C2    C45   S    
Cr4   O23   S    
C45   H12   S    
C17   H3    S    
C14   C21   T    
C38   C40   S    
C28   C53   S    
C10   H22   S    
C56   H16   S    
C54   O25   A    
Cr3   O21   S    
C29   C36   T    
C27   H11   S    
C26   C30   S    
Cr2   O19   S    
C30   C35   S    
Cr6   O11   S    
C32   C36   S    
Cr5   O11   S    
C20   H31   S    
C56   H10   S    
C2    H1    S    
C41   C42   S    
Cr4   O5    S    
C25   C30   S    
Cr6   O10   S    
C47   C48   T    
C3    C7    S    
C1    C24   S    
C43   C44   S    
C56   C66   S    
C29   C59   S    
Cr3   O16   S    
Cr1   O4    S    
Cr2   O12   S    
Cr5   O25   S    
C14   C57   S    
C12   C63   T    
C52   O17   A    
Br2   C11   S    
C39   C41   T    
C45   H30   S    
C59   O8    A    
C6    C66   S    
C2    H20   S    
C45   C66   S    
C51   C53   T    
Cr5   O7    S    
C57   O3    A    
C48   C49   S    
C28   O19   A    
C3    C5    S    
C8    C66   S    
Cr3   O22   S    
C40   O20   A    
C5    H21   S    
C60   O5    A    
C9    C16   S    
Cr2   O14   S    
C27   C32   S    
C10   C15   S    
C47   C60   S    
C64   H17   S    
C11   H23   S    
C7    C65   T    
C54   C65   S    
Cr2   O22   S    
C2    C3    S    
Cr5   O8    S    
C1    O4    A    
Cr3   O20   S    
C25   C31   S    
C55   O26   A    
C22   C24   T    
C13   C18   S    
C15   C20   S    
C13   H27   S    
C25   H6    S    
C33   C35   S    
C55   C61   S    
Cr1   O22   S    
C33   H25   S    
C4    O14   A    
C35   H24   S    
C6    H19   S    
Cr6   O3    S    
C19   H32   S    
Cr1   O1    S    
C10   H2    S    
C4    O15   A    
C26   H8    S    
Cr6   O9    S    
C46   C52   S    
C16   O16   A    
C57   O23   A    
C16   O1    A    
C58   O7    A    
C8    C9    T    
C56   C64   S    
Cr6   O2    S    
C61   C62   T    
C40   O12   A    
C18   C19   S    
Cr1   O17   S    
C20   H29   S    
Br4   C5    S    
C17   C18   S    
C35   H13   S    
C39   C58   S    
C31   H15   S    
