data_mof_unit_45748.cif
_audit_creation_date              2012-12-10T17:47:18-0500
_audit_creation_method            fapswitch 2.2
_symmetry_space_group_name_H-M    P1
_symmetry_Int_Tables_number       1
_space_group_crystal_system       triclinic
_cell_length_a                    11.700236
_cell_length_b                    14.699954
_cell_length_c                    14.719965
_cell_angle_alpha                 65.274881
_cell_angle_beta                  102.914392
_cell_angle_gamma                 102.611225
_cell_volume                      2219.06392367

loop_
_atom_site_label
_atom_site_type_symbol
_atom_type_description
_atom_site_fract_x
_atom_site_fract_y
_atom_site_fract_z
_atom_type_partial_charge
C1    C     C_R   0.481021 0.119616 0.312408 0.795014
C2    C     C_R   0.519852 0.880356 0.687642 0.795969
C3    C     C_R   0.489714 0.321622 0.004694 0.164611
C4    C     C_R   0.555587 0.679431 0.998533 0.164324
C5    C     C_R   0.521325 0.467456 0.053373 0.067199
C6    C     C_R   0.520930 0.533444 0.949821 0.069045
C7    C     C_R   0.511359 0.490979 0.877502 -0.205824
C8    C     C_R   0.545303 0.510313 0.127027 -0.208959
C9    C     C_R   0.496692 0.387216 0.904790 -0.214698
C10   C     C_R   0.563009 0.614199 0.099832 -0.214105
C11   C     C_R   0.692983 0.280053 0.673772 -0.105531
C12   C     C_R   0.308412 0.720123 0.325640 -0.104389
C13   C     C_R   0.660873 0.199887 0.641495 -0.006503
C14   C     C_R   0.339036 0.799811 0.358635 -0.006986
C15   C     C_R   0.520614 0.287618 0.507121 0.015620
C16   C     C_R   0.480820 0.713121 0.492098 0.016660
C17   C     C_R   0.547674 0.372502 0.534719 -0.044209
C18   C     C_R   0.455478 0.628825 0.463654 -0.045286
C19   C     C_R   0.632283 0.365922 0.622467 0.130689
C20   C     C_R   0.370837 0.635221 0.375960 0.129263
C21   C     C_R   0.490960 0.461644 0.480106 0.092584
C22   C     C_R   0.513437 0.540279 0.517590 0.095283
C23   C     C_R   0.284187 0.000344 0.500058 0.825380
C24   C     C_R   0.715812 0.999658 0.499939 0.825552
C25   C     C_R   0.591573 0.527008 0.608758 -0.253161
C26   C     C_R   0.414230 0.475544 0.388161 -0.254314
C27   C     C_R   0.649732 0.442622 0.659274 -0.149707
C28   C     C_R   0.355243 0.559495 0.338084 -0.141341
C29   C     C_1   0.162661 0.000824 0.500198 -0.172828
C30   C     C_1   0.837335 0.999179 0.499793 -0.172586
C31   C     C_1   0.060033 0.000417 0.500098 0.012446
C32   C     C_1   0.939961 0.999586 0.499890 0.012390
C33   C     C_R   0.476922 0.187199 0.205265 -0.049975
C34   C     C_R   0.533533 0.812778 0.795120 -0.049989
C35   C     C_R   0.472825 0.216785 0.030322 -0.187713
C36   C     C_R   0.570514 0.784237 0.972587 -0.188351
C37   C     C_R   0.467556 0.149890 0.130256 -0.192403
C38   C     C_R   0.560496 0.850626 0.871447 -0.191887
C39   C     C_R   0.489438 0.291522 0.179161 -0.236380
C40   C     C_R   0.519049 0.708346 0.820983 -0.242529
C41   C     C_R   0.500529 0.360806 0.079896 0.091992
C42   C     C_R   0.532572 0.639877 0.922345 0.091518
Cu1   Cu    Cu3+1 0.469550 0.918260 0.475690 0.947803
Cu2   Cu    Cu3+1 0.530450 0.081740 0.524310 0.948509
H1    H     H_    0.490407 0.358131 0.846934 0.148252
H2    H     H_    0.581501 0.643641 0.158773 0.150498
H3    H     H_    0.493983 0.682092 0.760290 0.151373
H4    H     H_    0.489256 0.316649 0.238013 0.143582
H5    H     H_    0.465310 0.186590 0.973162 0.133733
H6    H     H_    0.589354 0.814810 0.030649 0.134437
H7    H     H_    0.705460 0.437172 0.730021 0.196549
H8    H     H_    0.300233 0.565418 0.266932 0.196476
H9    H     H_    0.548584 0.717204 0.553610 0.127391
H10   H     H_    0.452556 0.283800 0.445661 0.127020
H11   H     H_    0.294704 0.866314 0.319976 0.125857
H12   H     H_    0.704182 0.132843 0.680688 0.125451
N1    N     N_R   0.576230 0.204580 0.560790 -0.175837
N2    N     N_R   0.423770 0.795420 0.439210 -0.176153
O1    O     O_R   0.459870 0.022090 0.338120 -0.591199
O2    O     O_R   0.540130 0.977910 0.661880 -0.591126
O3    O     O_R   0.511290 0.160150 0.379180 -0.587978
O4    O     O_R   0.488710 0.839850 0.620820 -0.588754
O5    O     O_R   0.311490 0.930960 0.479480 -0.568345
O6    O     O_R   0.688510 0.069040 0.520520 -0.568065
O7    O     O_R   0.362910 0.069020 0.520540 -0.573960
O8    O     O_R   0.637090 0.930980 0.479460 -0.574920
H13   H     H_    0.608868 0.580207 0.644570 0.130613
H14   H     H_    0.399129 0.423325 0.351331 0.133265
H15   H     H_    0.572207 0.931217 0.853075 0.150133
H16   H     H_    0.457633 0.069343 0.148916 0.151882
H17   H     H_    0.518340 0.535787 0.799036 0.138135
H18   H     H_    0.554536 0.465989 0.207165 0.145719
C43   C     C_2   0.790909 0.269583 0.759759 0.327472
H19   H     H_    0.805112 0.194790 0.816024 0.065427
O9    O     O_2   0.861054 0.342468 0.765519 -0.526685
C44   C     C_2   0.210114 0.729965 0.240018 0.328933
H20   H     H_    0.194143 0.804654 0.184506 0.066384
O10   O     O_2   0.141580 0.656496 0.233784 -0.527756

loop_
_geom_bond_atom_site_label_1
_geom_bond_atom_site_label_2
_ccdc_geom_bond_type
C40   H3    S    
C21   C26   A    
C4    C36   A    
C9    H1    S    
C11   C13   A    
C43   H19   S    
C25   H13   S    
Cu1   O5    S    
C39   C41   A    
Cu2   O6    S    
C11   C19   A    
C33   C39   A    
C34   C40   A    
C23   C29   S    
C35   C37   A    
C44   O10   D    
C1    O1    A    
C7    H17   S    
C5    C6    A    
C2    O2    A    
C13   N1    A    
C15   C17   A    
C16   H9    S    
Cu1   N2    S    
C22   C25   A    
C10   H2    S    
C19   C27   A    
Cu1   O1    S    
C13   H12   S    
C2    C34   S    
C40   C42   A    
C14   H11   S    
C38   H15   S    
C24   O6    A    
C34   C38   A    
C37   H16   S    
C43   O9    D    
Cu2   O7    S    
C27   H7    S    
C14   N2    A    
C8    H18   S    
C1    C33   S    
C15   H10   S    
C44   H20   S    
C11   C43   S    
C20   C28   A    
C33   C37   A    
Cu1   Cu2   S    
C35   H5    S    
C3    C9    A    
C31   C32   S    
C3    C35   A    
Cu2   N1    S    
C12   C20   A    
C16   N2    A    
C16   C18   A    
C12   C14   A    
C12   C44   S    
C4    C10   A    
C36   H6    S    
C7    C9    A    
C5    C41   A    
C3    C41   A    
C18   C22   A    
C1    O3    A    
C5    C8    A    
C6    C7    A    
C24   O8    A    
Cu2   O3    S    
C25   C27   A    
C26   C28   A    
C26   H14   S    
C23   O7    A    
C36   C38   A    
C29   C31   T    
C30   C32   T    
C28   H8    S    
C4    C42   A    
Cu2   O2    S    
Cu1   O8    S    
C15   N1    A    
C23   O5    A    
C17   C19   A    
C18   C20   A    
C24   C30   S    
C8    C10   A    
C6    C42   A    
C21   C22   A    
C2    O4    A    
Cu1   O4    S    
C39   H4    S    
C17   C21   A    
