data_mof_unit_67884.cif
_audit_creation_date              2012-12-10T16:56:32-0500
_audit_creation_method            fapswitch 2.2
_symmetry_space_group_name_H-M    P1
_symmetry_Int_Tables_number       1
_space_group_crystal_system       triclinic
_cell_length_a                    7.805186
_cell_length_b                    8.731039
_cell_length_c                    15.678658
_cell_angle_alpha                 93.75325
_cell_angle_beta                  85.283806
_cell_angle_gamma                 93.545025
_cell_volume                      1060.84479267

loop_
_atom_site_label
_atom_site_type_symbol
_atom_type_description
_atom_site_fract_x
_atom_site_fract_y
_atom_site_fract_z
_atom_type_partial_charge
C1    C     C_R   0.544672 0.793144 0.493279 0.848082
C2    C     C_R   0.454500 0.205367 0.499538 0.851160
C3    C     C_R   0.501953 0.504872 0.662024 0.878911
C4    C     C_R   0.497354 0.491203 0.338054 0.860473
C5    C     C_2   0.568742 0.954131 0.482979 0.201776
C6    C     C_2   0.428803 0.041386 0.492266 0.181389
C7    C     C_3   0.397499 0.577639 0.038263 0.456811
C8    C     C_3   0.607854 0.373985 0.960531 0.421478
C9    C     C_3   0.566117 0.617501 0.985671 0.439639
C10   C     C_3   0.438386 0.332689 0.013336 0.493335
C11   C     C_1   0.506543 0.510822 0.751043 -0.203815
C12   C     C_1   0.489972 0.466723 0.249322 -0.214517
C13   C     C_3   0.344781 0.453499 0.969155 -0.393965
C14   C     C_3   0.658754 0.495898 0.030846 -0.487512
C15   C     C_3   0.515750 0.494947 0.916227 -0.099723
C16   C     C_3   0.485992 0.455827 0.082885 -0.070317
C17   C     C_1   0.512222 0.509535 0.826166 -0.005744
C18   C     C_1   0.484373 0.451913 0.173944 0.011096
H1    H     H_    0.787288 0.507265 0.056991 0.184111
H2    H     H_    0.215084 0.438958 0.944440 0.167699
N1    N     N_2   0.950320 0.457950 0.477300 0.195716
N2    N     N_2   0.049680 0.542050 0.522700 0.193864
O1    O     O_R   0.389250 0.738570 0.505570 -0.601525
O2    O     O_R   0.610750 0.261430 0.494430 -0.580524
O3    O     O_R   0.678390 0.711630 0.491020 -0.568907
O4    O     O_R   0.321610 0.288370 0.508980 -0.587851
O5    O     O_R   0.355460 0.513480 0.630490 -0.662250
O6    O     O_R   0.644540 0.486520 0.369510 -0.666454
O7    O     O_R   0.644600 0.486540 0.615950 -0.583062
O8    O     O_R   0.355400 0.513460 0.384050 -0.579741
Zn1   Zn    Zn3+2 0.306940 0.517990 0.509710 1.018344
Zn2   Zn    Zn3+2 0.693060 0.482010 0.490290 1.029316
O9    O     O_3   0.629092 0.769637 0.970726 -0.645057
C19   C     C_3   0.758695 0.815089 0.026832 0.022495
H3    H     H_    0.879636 0.758865 0.003818 0.176521
H4    H     H_    0.719814 0.784689 0.093837 0.129957
C20   C     C_3   0.794355 0.988331 0.028427 -0.298551
H5    H     H_    0.842176 0.019341 0.962937 0.260669
H6    H     H_    0.673480 0.046081 0.048208 0.257980
C21   C     C_3   0.927813 0.042510 0.091427 -0.936348
H7    H     H_    0.878470 0.017647 0.157900 0.240835
H8    H     H_    0.955321 0.168512 0.088669 0.286501
H9    H     H_    0.049256 0.983796 0.074838 0.287366
O10   O     O_3   0.364022 0.186587 0.034359 -0.666113
C22   C     C_3   0.369368 0.078584 0.962660 0.095342
H10   H     H_    0.337743 0.963576 0.987711 0.211423
H11   H     H_    0.499122 0.071150 0.929183 0.197651
C23   C     C_3   0.237871 0.106507 0.898863 -0.413006
H12   H     H_    0.115835 0.137312 0.934950 0.251582
H13   H     H_    0.286471 0.202681 0.858886 0.209356
C24   C     C_3   0.204058 0.964184 0.839368 -0.957196
H14   H     H_    0.325663 0.930497 0.803085 0.267789
H15   H     H_    0.111085 0.989607 0.792998 0.253806
H16   H     H_    0.148373 0.866825 0.876874 0.279234
O11   O     O_3   0.273001 0.681893 0.070612 -0.652831
C25   C     C_3   0.323334 0.770672 0.143789 0.102179
H17   H     H_    0.327771 0.893892 0.129922 0.174777
H18   H     H_    0.452804 0.748419 0.163179 0.113602
C26   C     C_3   0.187716 0.743140 0.217917 -0.412341
H19   H     H_    0.060201 0.775258 0.200214 0.219150
H20   H     H_    0.177575 0.619144 0.230483 0.235185
C27   C     C_3   0.233048 0.836425 0.299218 -0.828591
H21   H     H_    0.362902 0.810606 0.316556 0.255550
H22   H     H_    0.137307 0.805690 0.352563 0.292966
H23   H     H_    0.230640 0.961369 0.290092 0.256213
O12   O     O_3   0.724209 0.263065 0.928205 -0.683013
C28   C     C_3   0.824508 0.306709 0.853887 0.080996
H24   H     H_    0.960959 0.291039 0.863560 0.151396
H25   H     H_    0.820716 0.429692 0.840133 0.144491
C29   C     C_3   0.772419 0.199449 0.778170 -0.363234
H26   H     H_    0.784313 0.078185 0.793525 0.228517
H27   H     H_    0.635733 0.213579 0.767090 0.220758
C30   C     C_3   0.885377 0.230849 0.696720 -0.926683
H28   H     H_    0.876847 0.351209 0.680226 0.290276
H29   H     H_    0.840265 0.153399 0.643150 0.283082
H30   H     H_    0.021664 0.210396 0.705448 0.243260
O13   O     O_3   0.737261 0.015294 0.473262 -0.599700
C31   C     C_3   0.802712 0.982707 0.387681 -0.286946
H31   H     H_    0.723347 0.031686 0.341409 0.124593
H32   H     H_    0.811980 0.857460 0.371883 0.167753
H33   H     H_    0.935404 0.035184 0.379295 0.222298
O14   O     O_3   0.264287 0.976034 0.479581 -0.618384
C32   C     C_3   0.144033 0.014798 0.548636 -0.194206
H34   H     H_    0.080653 0.120640 0.537028 0.237022
H35   H     H_    0.200769 0.024138 0.611861 0.097472
H36   H     H_    0.038727 0.924435 0.550628 0.240796
O15   O     O_3   0.034266 0.351885 0.426635 -0.521484
C33   C     C_3   0.971310 0.348628 0.345354 -0.145449
H37   H     H_    0.968465 0.466255 0.322268 0.142022
H38   H     H_    0.843031 0.287403 0.345685 0.175901
H39   H     H_    0.059391 0.283567 0.299225 0.135212
O16   O     O_3   0.963361 0.645909 0.574094 -0.528847
C34   C     C_3   0.050575 0.678185 0.648377 -0.201696
H40   H     H_    0.178244 0.737142 0.633873 0.190431
H41   H     H_    0.059876 0.572770 0.683213 0.159760
H42   H     H_    0.974538 0.758213 0.692029 0.138219

loop_
_geom_bond_atom_site_label_1
_geom_bond_atom_site_label_2
_ccdc_geom_bond_type
C1    O3    A    
O11   C25   S    
N1    O15   S    
C8    O12   S    
C34   H40   S    
C6    O14   S    
C19   C20   S    
C30   H28   S    
C7    O11   S    
O15   C33   S    
O13   C31   S    
C27   H21   S    
C1    C5    S    
C20   C21   S    
O8    Zn1   S    
C31   H32   S    
C25   H17   S    
C7    C9    S    
C19   H3    S    
C3    O7    A    
C27   H22   S    
C21   H9    S    
C11   C17   T    
C29   H26   S    
C4    C12   S    
C13   H2    S    
O3    Zn2   S    
C21   H8    S    
O12   C28   S    
C26   H19   S    
C34   H41   S    
N1    N2    D    
C9    O9    S    
C30   H29   S    
C2    C6    S    
C4    O6    A    
C22   H11   S    
C23   C24   S    
N1    Zn2   S    
C26   H20   S    
N2    Zn1   S    
C10   O10   S    
C24   H14   S    
O6    Zn2   S    
C31   H31   S    
C8    C15   S    
C22   H10   S    
O5    Zn1   S    
C28   H24   S    
C24   H15   S    
O1    Zn1   S    
C9    C14   S    
O2    Zn2   S    
C20   H5    S    
C32   H34   S    
C33   H39   S    
C29   C30   S    
O9    C19   S    
C2    O4    A    
C16   C18   S    
C23   H12   S    
C32   H35   S    
C33   H38   S    
C1    O1    A    
C34   H42   S    
C13   C15   S    
C2    O2    A    
C30   H30   S    
C14   C16   S    
C5    O13   S    
O10   C22   S    
C22   C23   S    
C15   C17   S    
C21   H7    S    
C26   C27   S    
C8    C14   S    
C27   H23   S    
O4    Zn1   S    
C14   H1    S    
C7    C16   S    
C10   C13   S    
O7    Zn2   S    
C25   C26   S    
C24   H16   S    
C28   C29   S    
C3    O5    A    
C9    C15   S    
C20   H6    S    
C10   C16   S    
C31   H33   S    
C5    C6    D    
C23   H13   S    
O16   C34   S    
C25   H18   S    
C19   H4    S    
C3    C11   S    
C7    C13   S    
C32   H36   S    
C33   H37   S    
C8    C10   S    
O14   C32   S    
C12   C18   T    
N2    O16   S    
C29   H27   S    
C28   H25   S    
C4    O8    A    
