data_mof_unit_40344.cif
_audit_creation_date              2012-12-10T20:43:32-0500
_audit_creation_method            fapswitch 2.2
_symmetry_space_group_name_H-M    P1
_symmetry_Int_Tables_number       1
_space_group_crystal_system       triclinic
_cell_length_a                    18.383658
_cell_length_b                    18.888872
_cell_length_c                    18.740344
_cell_angle_alpha                 109.77643
_cell_angle_beta                  108.698704
_cell_angle_gamma                 108.944728
_cell_volume                      5069.62916559

loop_
_atom_site_label
_atom_site_type_symbol
_atom_type_description
_atom_site_fract_x
_atom_site_fract_y
_atom_site_fract_z
_atom_type_partial_charge
C1    C     C_R   0.380918 0.501655 0.380453 0.894513
C2    C     C_R   0.801974 0.766868 0.819497 -0.110817
C3    C     C_R   0.969423 0.740133 0.966230 -0.200485
C4    C     C_R   0.956067 0.724399 0.029733 -0.143784
C5    C     C_R   0.017598 0.781616 0.117583 0.143419
C6    C     C_R   0.255219 0.567854 0.913329 0.031866
C7    C     C_R   0.177309 0.489499 0.861211 -0.189972
C8    C     C_R   0.171798 0.415794 0.866785 0.052670
C9    C     C_R   0.250206 0.419271 0.919126 0.187724
C10   C     C_R   0.328913 0.499416 0.972102 -0.023255
C11   C     C_R   0.330432 0.573056 0.969697 -0.229789
C12   C     C_R   0.080970 0.267845 0.738580 -0.001691
C13   C     C_R   0.825900 0.811584 0.572674 -0.242405
C14   C     C_R   0.001955 0.189681 0.683259 -0.123017
C15   C     C_R   0.925897 0.177709 0.690271 -0.011386
C16   C     C_R   0.930463 0.241662 0.757264 -0.240631
C17   C     C_R   0.008911 0.318329 0.816049 -0.128702
C18   C     C_R   0.086286 0.333347 0.807330 0.009640
C19   C     C_R   0.790180 0.084464 0.546264 -0.078678
C20   C     C_R   0.705759 0.012943 0.490294 0.271703
C21   C     C_R   0.672525 0.955995 0.518326 -0.186211
C22   C     C_R   0.722418 0.971170 0.601364 -0.168918
C23   C     C_R   0.805970 0.042257 0.656605 -0.185711
C24   C     C_R   0.810814 0.811152 0.494746 -0.074351
C25   C     C_R   0.840332 0.099020 0.629209 0.067220
C26   C     C_R   0.730583 0.748893 0.417187 -0.025649
C27   C     C_R   0.671790 0.680670 0.418169 -0.078493
C28   C     C_R   0.687240 0.683121 0.497771 -0.128904
C29   C     C_R   0.763112 0.750181 0.575596 -0.015830
C30   C     C_R   0.627394 0.766777 0.308791 -0.190386
C31   C     C_R   0.597113 0.771345 0.232781 0.027299
C32   C     C_R   0.642625 0.768206 0.185651 -0.166942
C33   C     C_R   0.621157 0.619124 0.500192 0.882779
C34   C     C_R   0.718235 0.759443 0.213677 0.271436
C35   C     C_R   0.747989 0.754493 0.290185 -0.182247
C36   C     C_R   0.702513 0.757446 0.337716 0.103370
C37   C     C_R   0.432754 0.767652 0.553958 -0.144886
C38   C     C_R   0.365577 0.698270 0.472817 -0.108558
C39   C     C_R   0.384972 0.664017 0.406701 0.133356
C40   C     C_R   0.471812 0.699870 0.422432 -0.169794
C41   C     C_R   0.539031 0.767131 0.504303 -0.120881
C42   C     C_R   0.519685 0.801484 0.570061 -0.093485
C43   C     C_R   0.252829 0.580722 0.260476 0.160141
C44   C     C_R   0.617104 0.496618 0.619620 0.877473
C45   C     C_R   0.185599 0.500551 0.187451 -0.113170
C46   C     C_R   0.179430 0.422003 0.182050 -0.054434
C47   C     C_R   0.247198 0.425338 0.244959 -0.264886
C48   C     C_R   0.315268 0.503915 0.315793 -0.097170
C49   C     C_R   0.317136 0.582092 0.326366 -0.075861
C50   C     C_R   0.060128 0.278911 0.138381 -0.155262
C51   C     C_R   0.988996 0.197125 0.075308 -0.137577
C52   C     C_R   0.960298 0.170837 0.987549 -0.132872
C53   C     C_R   0.002790 0.226194 0.962852 -0.121664
C54   C     C_R   0.073625 0.308223 0.025797 -0.096089
C55   C     C_R   0.380182 0.380521 0.501016 0.871011
C56   C     C_R   0.103034 0.335488 0.114128 0.148648
C57   C     C_R   0.188617 0.503242 0.552853 -0.160338
C58   C     C_R   0.213483 0.442868 0.561690 -0.212039
C59   C     C_R   0.221751 0.388764 0.495549 0.155146
C60   C     C_R   0.205746 0.396383 0.420823 -0.174785
C61   C     C_R   0.180347 0.456390 0.411763 -0.216478
C62   C     C_R   0.170106 0.509342 0.476978 0.307196
C63   C     C_R   0.176996 0.253885 0.500131 -0.235662
C64   C     C_R   0.187860 0.184258 0.499807 -0.083448
C65   C     C_R   0.262940 0.178596 0.502124 -0.058183
C66   C     C_R   0.786874 0.828500 0.800885 0.277798
C67   C     C_R   0.327641 0.244837 0.504404 -0.068340
C68   C     C_R   0.315512 0.314803 0.503369 -0.131399
C69   C     C_R   0.240103 0.319609 0.501642 -0.005526
C70   C     C_R   0.331835 0.108673 0.572563 -0.105416
C71   C     C_R   0.340264 0.036743 0.569001 -0.140741
C72   C     C_R   0.289597 0.958274 0.491443 -0.110544
C73   C     C_R   0.230428 0.951611 0.417325 -0.119698
C74   C     C_R   0.221285 0.023213 0.420732 -0.147313
C75   C     C_R   0.272132 0.102234 0.498417 0.139598
C76   C     C_R   0.541879 0.582425 0.843748 -0.140750
C77   C     C_R   0.775026 0.822925 0.720823 -0.221919
C78   C     C_R   0.613054 0.579451 0.833258 -0.125526
C79   C     C_R   0.601677 0.502405 0.773278 0.134676
C80   C     C_R   0.518953 0.428331 0.725101 -0.157422
C81   C     C_R   0.448109 0.431386 0.736133 -0.120204
C82   C     C_R   0.459498 0.508462 0.795270 -0.095182
C83   C     C_R   0.742510 0.500833 0.823067 -0.260765
C84   C     C_R   0.812670 0.496603 0.811411 -0.076358
C85   C     C_R   0.816696 0.489328 0.735712 0.011437
C86   C     C_R   0.748818 0.484974 0.671654 -0.242910
C87   C     C_R   0.680153 0.491969 0.684322 -0.076814
C88   C     C_R   0.778880 0.757314 0.660741 0.120399
C89   C     C_R   0.675928 0.499309 0.760044 0.001221
C90   C     C_R   0.958644 0.565851 0.742935 -0.135081
C91   C     C_R   0.025096 0.566958 0.722287 -0.198216
C92   C     C_R   0.024420 0.490335 0.678870 -0.188134
C93   C     C_R   0.957305 0.410528 0.656244 0.243375
C94   C     C_R   0.890257 0.410037 0.678383 -0.043712
C95   C     C_R   0.891032 0.488037 0.721357 0.052406
C96   C     C_R   0.995845 0.875387 0.380861 0.871242
C97   C     C_R   0.879086 0.878653 0.498101 0.884279
C98   C     C_R   0.999556 0.120026 0.619180 0.887475
C99   C     C_R   0.796014 0.697806 0.681209 -0.158455
C100  C     C_R   0.120502 0.119027 0.499359 0.898976
C101  C     C_R   0.004551 0.381082 0.882520 0.867597
C102  C     C_R   0.120110 0.499727 0.119786 0.890899
C103  C     C_R   0.998165 0.619525 0.119138 0.859652
C104  C     C_R   0.879686 0.498495 0.878590 0.875207
C105  C     C_R   0.003487 0.743698 0.528164 -0.151955
C106  C     C_R   0.023999 0.757292 0.466837 -0.163834
C107  C     C_R   0.962371 0.706706 0.378104 0.019434
C108  C     C_R   0.883790 0.632816 0.350601 0.172940
C109  C     C_R   0.863295 0.620429 0.413602 0.002200
C110  C     C_R   0.807574 0.702946 0.760307 -0.202735
C111  C     C_R   0.922449 0.677076 0.501811 -0.188367
C112  C     C_R   0.983938 0.668647 0.248879 -0.197015
C113  C     C_R   0.995376 0.684348 0.184423 -0.104243
C114  C     C_R   0.007048 0.762288 0.185240 0.012013
C115  C     C_R   0.007728 0.823533 0.251958 -0.281234
C116  C     C_R   0.996185 0.808053 0.316191 -0.105990
C117  C     C_R   0.982765 0.729311 0.315101 0.027686
C118  C     C_R   0.090212 0.857111 0.140909 -0.219904
C119  C     C_R   0.101919 0.874144 0.077210 -0.142935
C120  C     C_R   0.041419 0.815729 0.989138 0.297191
H1    H     H_    0.808366 0.767222 0.879043 0.131256
H2    H     H_    0.619887 0.773936 0.127998 0.136331
H3    H     H_    0.806963 0.749343 0.313557 0.117790
H4    H     H_    0.571905 0.853228 0.633836 0.109348
H5    H     H_    0.417771 0.793369 0.605095 0.125406
H6    H     H_    0.299351 0.668989 0.462756 0.120558
H7    H     H_    0.487532 0.672740 0.372503 0.119317
H8    H     H_    0.606168 0.790645 0.516794 0.131140
H9    H     H_    0.245230 0.365838 0.240421 0.162016
H10   H     H_    0.081333 0.298406 0.206146 0.124999
H11   H     H_    0.956132 0.154216 0.094537 0.133710
H12   H     H_    0.905058 0.107737 0.938601 0.131680
H13   H     H_    0.980658 0.205450 0.894876 0.132567
H14   H     H_    0.105211 0.351096 0.006014 0.096318
H15   H     H_    0.183488 0.544868 0.605046 0.134219
H16   H     H_    0.225716 0.437797 0.619816 0.142216
H17   H     H_    0.210932 0.354481 0.368778 0.117180
H18   H     H_    0.166584 0.460308 0.353009 0.141062
H19   H     H_    0.761637 0.868839 0.704736 0.108896
H20   H     H_    0.118393 0.256523 0.498330 0.157568
H21   H     H_    0.371412 0.169212 0.632932 0.121969
H22   H     H_    0.386183 0.041865 0.626328 0.128562
H23   H     H_    0.296334 0.902694 0.488695 0.124830
H24   H     H_    0.191847 0.890947 0.357290 0.137716
H25   H     H_    0.175092 0.017376 0.363023 0.107834
H26   H     H_    0.404552 0.510852 0.803579 0.131191
H27   H     H_    0.550421 0.642106 0.889203 0.125202
H28   H     H_    0.676513 0.637173 0.870837 0.120265
H29   H     H_    0.799376 0.646985 0.635564 0.118341
H30   H     H_    0.509724 0.368385 0.679530 0.126747
H31   H     H_    0.384409 0.374073 0.698789 0.151328
H32   H     H_    0.740171 0.506128 0.881696 0.151477
H33   H     H_    0.751866 0.480533 0.613499 0.161074
H34   H     H_    0.958814 0.625672 0.774450 0.120930
H35   H     H_    0.076924 0.627505 0.739054 0.158078
H36   H     H_    0.077125 0.494573 0.663729 0.144906
H37   H     H_    0.907028 0.667983 0.550303 0.145628
H38   H     H_    0.819335 0.656171 0.774983 0.145513
H39   H     H_    0.050751 0.784898 0.596416 0.144227
H40   H     H_    0.088827 0.807167 0.488889 0.166778
H41   H     H_    0.976666 0.608948 0.247910 0.168636
H42   H     H_    0.016494 0.883824 0.253529 0.159347
H43   H     H_    0.138681 0.902016 0.208361 0.136813
H44   H     H_    0.159264 0.931816 0.096581 0.144225
H45   H     H_    0.923987 0.692752 0.899242 0.121622
H46   H     H_    0.885829 0.861864 0.632353 0.162059
H47   H     H_    0.899061 0.666300 0.010304 0.107037
H48   H     H_    0.390971 0.634076 0.010107 0.159578
H49   H     H_    0.119858 0.485886 0.816678 0.174260
H50   H     H_    0.871275 0.231666 0.762583 0.184548
H51   H     H_    0.816979 0.128715 0.525482 0.131061
H52   H     H_    0.607341 0.901034 0.476209 0.129782
H53   H     H_    0.696507 0.929008 0.624188 0.128185
H54   H     H_    0.843481 0.053724 0.721087 0.130586
H55   H     H_    0.592264 0.770012 0.345455 0.121848
O1    O     O_R   0.408360 0.551710 0.460090 -0.606202
O2    O     O_R   0.948280 0.908380 0.356650 -0.629818
O3    O     O_R   0.960110 0.908350 0.551690 -0.627086
O4    O     O_R   0.856660 0.908370 0.448270 -0.616097
O5    O     O_R   0.051720 0.091580 0.643310 -0.614514
O6    O     O_R   0.948270 0.091600 0.539890 -0.633975
O7    O     O_R   0.143340 0.091590 0.551680 -0.605177
O8    O     O_R   0.039890 0.091610 0.448270 -0.631038
O9    O     O_R   0.051730 0.460050 0.908360 -0.622713
O10   O     O_R   0.948290 0.356630 0.908390 -0.622433
O11   O     O_R   0.143340 0.551690 0.091580 -0.587796
O12   O     O_R   0.408400 0.448280 0.356670 -0.620640
O13   O     O_R   0.039900 0.448270 0.091610 -0.627183
O14   O     O_R   0.051710 0.643320 0.091560 -0.598843
O15   O     O_R   0.948270 0.539900 0.091590 -0.626095
O16   O     O_R   0.960100 0.551680 0.908340 -0.618780
O17   O     O_R   0.856660 0.448270 0.908370 -0.615612
O18   O     O_R   0.591600 0.643340 0.551710 -0.610177
O19   O     O_R   0.591630 0.539900 0.448290 -0.606409
O20   O     O_R   0.591600 0.551720 0.643330 -0.608335
O21   O     O_R   0.591640 0.448290 0.539910 -0.618750
O22   O     O_R   0.408370 0.460100 0.551710 -0.608408
O23   O     O_R   0.408400 0.356660 0.448290 -0.620608
O24   O     O_R   0.051730 0.908360 0.460060 -0.621881
Zn1   Zn    Zn3+2 0.499980 0.569060 0.569060 0.994063
Zn2   Zn    Zn3+2 0.500020 0.430940 0.430940 0.994853
Zn3   Zn    Zn3+2 0.069070 0.999960 0.569030 0.959130
Zn4   Zn    Zn3+2 0.930930 0.999990 0.430930 0.964672
Zn5   Zn    Zn3+2 0.069070 0.569030 0.999960 0.999364
Zn6   Zn    Zn3+2 0.930930 0.430930 0.000000 0.964865
N1    N     N_2   0.766614 0.759646 0.167520 -0.302299
H56   H     H_    0.827415 0.765964 0.199526 0.240116
C121  C     C_3   0.718322 0.693961 0.077129 -0.813209
H57   H     H_    0.763277 0.698572 0.048926 0.236063
H58   H     H_    0.690127 0.628912 0.070429 0.250981
H59   H     H_    0.664959 0.703022 0.039990 0.242229
N2    N     N_2   0.255156 0.659087 0.266749 -0.279549
H60   H     H_    0.317156 0.710896 0.297148 0.235191
C122  C     C_3   0.196970 0.680897 0.295015 -0.777105
H61   H     H_    0.191468 0.732738 0.282312 0.245547
H62   H     H_    0.223231 0.704525 0.365447 0.216783
H63   H     H_    0.130347 0.624353 0.259694 0.226778
N3    N     N_2   0.778333 0.892713 0.859517 -0.312789
H64   H     H_    0.758277 0.928915 0.835824 0.212299
C123  C     C_3   0.849252 0.944346 0.948076 -0.830433
H65   H     H_    0.835006 0.991793 0.986813 0.239823
H66   H     H_    0.912050 0.979828 0.950223 0.237469
H67   H     H_    0.855942 0.903901 0.978336 0.252250
N4    N     N_2   0.142683 0.569269 0.466481 -0.325731
H68   H     H_    0.143099 0.577394 0.414829 0.213465
C124  C     C_3   0.062801 0.558789 0.470576 -0.798962
H69   H     H_    0.046354 0.606961 0.459409 0.253413
H70   H     H_    0.071219 0.569206 0.535289 0.244041
H71   H     H_    0.007405 0.493415 0.419679 0.242268
C125  C     C_1   0.405963 0.240354 0.507432 0.169729
N5    N     N_1   0.468321 0.236739 0.509911 -0.188655
N6    N     N_2   0.956150 0.331114 0.612371 -0.300416
H72   H     H_    0.894806 0.277694 0.571665 0.224159
C126  C     C_3   0.018878 0.330117 0.581589 -0.816895
H73   H     H_    0.010410 0.352466 0.533244 0.246905
H74   H     H_    0.008062 0.263436 0.550216 0.247400
H75   H     H_    0.086919 0.371049 0.636673 0.240361
C127  C     C_1   0.819935 0.329829 0.656148 0.126633
N7    N     N_1   0.763539 0.265793 0.638294 -0.202425
N8    N     N_2   0.831657 0.566640 0.261893 -0.316580
H76   H     H_    0.806838 0.505024 0.252861 0.231236
C128  C     C_3   0.766638 0.578402 0.206843 -0.770443
H77   H     H_    0.729207 0.522499 0.140208 0.242852
H78   H     H_    0.799302 0.636473 0.203049 0.250673
H79   H     H_    0.719923 0.583237 0.231446 0.251690
C129  C     C_1   0.781663 0.549800 0.388842 0.135260
N9    N     N_1   0.716171 0.493217 0.369029 -0.185772
N10   N     N_2   0.054844 0.830809 0.923715 -0.309328
H80   H     H_    0.016738 0.777846 0.862381 0.217386
C130  C     C_3   0.054845 0.907600 0.924317 -0.794352
H81   H     H_    0.067291 0.913991 0.872023 0.241295
H82   H     H_    0.107320 0.965970 0.986954 0.242395
H83   H     H_    0.990011 0.903189 0.912624 0.247472
C131  C     C_1   0.257830 0.643077 0.908600 0.148435
N11   N     N_1   0.259813 0.703489 0.904748 -0.215206
N12   N     N_2   0.252949 0.342039 0.910026 -0.305925
H84   H     H_    0.312578 0.344577 0.920631 0.237146
C132  C     C_3   0.213018 0.300350 0.949611 -0.779754
H85   H     H_    0.240140 0.346706 0.018961 0.245179
H86   H     H_    0.226960 0.246570 0.945655 0.242216
H87   H     H_    0.140840 0.272054 0.913652 0.243718
C133  C     C_1   0.409562 0.507501 0.028863 0.152988
N13   N     N_1   0.474347 0.514192 0.074341 -0.188691
C134  C     C_1   0.154544 0.282345 0.721061 0.173191
N14   N     N_1   0.213118 0.294111 0.707197 -0.233782
N15   N     N_2   0.654890 0.997231 0.405630 -0.316947
H88   H     H_    0.600283 0.936978 0.365515 0.229822
C135  C     C_3   0.635554 0.064818 0.402222 -0.764794
H89   H     H_    0.595263 0.045713 0.333629 0.244637
H90   H     H_    0.696842 0.125699 0.431081 0.238938
H91   H     H_    0.598033 0.075598 0.437130 0.252007
C136  C     C_1   0.594427 0.609585 0.337670 0.179126
N16   N     N_1   0.532864 0.552995 0.273622 -0.174465
C137  C     C_1   0.519059 0.779212 0.203103 0.115144
N17   N     N_1   0.456302 0.785521 0.179343 -0.206237

loop_
_geom_bond_atom_site_label_1
_geom_bond_atom_site_label_2
_ccdc_geom_bond_type
C8    C9    A    
C72   H23   S    
C67   C125  S    
C1    O1    A    
C93   C94   A    
O9    Zn5   S    
C5    C114  S    
C96   O24   A    
C85   C95   S    
C63   H20   S    
C92   C93   A    
C74   H25   S    
C86   C87   A    
C19   C20   A    
C35   H3    S    
N4    H68   S    
C123  H66   S    
C55   C68   S    
C57   C58   A    
C42   H4    S    
C7    C8    A    
C23   H54   S    
O6    Zn4   S    
C45   C46   A    
C34   N1    S    
C80   H30   S    
C112  H41   S    
C99   H29   S    
C26   C27   A    
C102  O11   A    
C47   H9    S    
C83   C84   A    
C13   C29   A    
C28   C29   A    
C103  C113  S    
C86   H33   S    
C76   C78   A    
O20   Zn1   S    
O5    Zn3   S    
C109  C111  A    
C12   C134  S    
C112  C117  A    
C34   C35   A    
C122  H62   S    
C61   H18   S    
C97   O4    A    
C55   O23   A    
C106  C107  A    
C126  H75   S    
C130  H82   S    
C15   C16   A    
C104  O17   A    
C108  C109  A    
C6    C131  S    
C137  N17   T    
O17   Zn6   S    
C37   C42   A    
C100  O8    A    
C17   C101  S    
C118  C119  A    
C123  H65   S    
C29   C88   S    
C50   H10   S    
C82   H26   S    
C46   C47   A    
C94   C127  S    
C2    C110  A    
C63   C69   A    
C76   H27   S    
C16   C17   A    
C65   C67   A    
N12   C132  S    
O24   Zn3   S    
C128  H78   S    
C107  C108  A    
O2    Zn4   S    
C14   C98   S    
C70   C71   A    
C103  O14   A    
C62   N4    S    
C96   O2    A    
C90   H34   S    
C44   C87   S    
C100  O7    A    
C9    C10   A    
C110  H38   S    
C78   H28   S    
C60   H17   S    
C72   C73   A    
C130  H83   S    
C41   C42   A    
C105  C111  A    
C33   O18   A    
C59   C60   A    
O14   Zn5   S    
C21   C22   A    
C41   H8    S    
C94   C95   A    
C126  H74   S    
O1    Zn1   S    
C101  O10   A    
N10   H80   S    
N6    C126  S    
C112  C113  A    
C38   H6    S    
N10   C130  S    
C114  C115  A    
C37   H5    S    
C1    O12   A    
C73   C74   A    
C38   C39   A    
C83   C89   A    
C54   C56   A    
O13   Zn6   S    
C44   O21   A    
C128  H79   S    
C79   C89   S    
C74   C75   A    
C124  H71   S    
C51   C52   A    
C52   H12   S    
O10   Zn6   S    
C57   C62   A    
C53   H13   S    
C84   C85   A    
C77   C88   A    
C113  C114  A    
N15   H88   S    
C20   N15   S    
C39   C40   A    
C51   H11   S    
C78   C79   A    
C134  N14   T    
C58   H16   S    
C130  H81   S    
C85   C86   A    
C99   C110  A    
C125  N5    T    
C81   C82   A    
C67   C68   A    
C13   C24   A    
C60   C61   A    
C35   C36   A    
C32   C34   A    
O22   Zn1   S    
C132  H86   S    
C105  H39   S    
C91   H35   S    
C37   C38   A    
C32   H2    S    
O15   Zn6   S    
N3    C123  S    
C47   C48   A    
C14   C15   A    
C135  H91   S    
C12   C14   A    
C30   C31   A    
N12   H84   S    
C20   C21   A    
O23   Zn2   S    
N8    C128  S    
C17   C18   A    
O11   Zn5   S    
C92   H36   S    
C103  O15   A    
C108  N8    S    
C135  H89   S    
C43   N2    S    
C43   C45   A    
C121  H57   S    
C44   O20   A    
C133  N13   T    
C101  O9    A    
N15   C135  S    
C59   C69   S    
C71   H22   S    
C97   O3    A    
C123  H67   S    
C93   N6    S    
C26   C36   S    
C48   C49   A    
C39   C49   S    
C135  H90   S    
C28   C33   S    
O4    Zn4   S    
C124  H70   S    
C10   C11   A    
O3    Zn3   S    
C115  H42   S    
C11   H48   S    
C84   C104  S    
C79   C80   A    
C9    N12   S    
C126  H73   S    
C136  N16   T    
C90   C91   A    
C3    C4    A    
O18   Zn1   S    
C30   H55   S    
C6    C11   A    
C22   H53   S    
C52   C53   A    
C3    H45   S    
C83   H32   S    
C2    H1    S    
C10   C133  S    
C66   C77   A    
C129  N9    T    
C40   C41   A    
C70   H21   S    
C128  H77   S    
O7    Zn3   S    
C45   C102  S    
C68   C69   A    
C31   C32   A    
C43   C49   A    
C77   H19   S    
C19   H51   S    
C80   C81   A    
C2    C66   A    
C122  H63   S    
N4    C124  S    
C119  H44   S    
C109  C129  S    
C119  C120  A    
C1    C48   S    
C53   C54   A    
C6    C7    A    
C40   H7    S    
C8    C18   S    
C21   H52   S    
C105  C106  A    
O12   Zn2   S    
C46   C56   S    
C65   C75   S    
C4    H47   S    
C30   C36   A    
C5    C118  A    
O8    Zn4   S    
C64   C65   A    
C131  N11   T    
C7    H49   S    
C132  H85   S    
C58   C59   A    
C64   C100  S    
C57   H15   S    
C71   C72   A    
C66   N3    S    
C81   H31   S    
C50   C56   A    
C33   O19   A    
N8    H76   S    
C104  O16   A    
C24   C26   A    
N3    H64   S    
C55   O22   A    
C13   H46   S    
C98   O6    A    
C121  H59   S    
C76   C82   A    
C118  H43   S    
C122  H61   S    
C127  N7    T    
N6    H72   S    
O19   Zn2   S    
C116  C117  A    
C27   C136  S    
N1    C121  S    
C24   C97   S    
C23   C25   A    
C111  H37   S    
C61   C62   A    
C19   C25   A    
C102  O13   A    
N1    H56   S    
C88   C99   A    
C15   C25   S    
C3    C120  A    
N2    C122  S    
C63   C64   A    
C132  H87   S    
C16   H50   S    
C4    C5    A    
N2    H60   S    
C121  H58   S    
C124  H69   S    
O16   Zn5   S    
C12   C18   A    
C70   C75   A    
C87   C89   A    
C50   C51   A    
C22   C23   A    
C96   C116  S    
C120  N10   S    
O21   Zn2   S    
C31   C137  S    
C98   O5    A    
C107  C117  S    
C90   C95   A    
C91   C92   A    
C115  C116  A    
C106  H40   S    
C27   C28   A    
C73   H24   S    
C54   H14   S    
