data_mof_unit_8520.cif
_audit_creation_date              2013-03-05T16:00:38-0500
_audit_creation_method            fapswitch 2.2
_symmetry_space_group_name_H-M    P1
_symmetry_Int_Tables_number       1
_space_group_crystal_system       triclinic
_cell_length_a                    10.720318
_cell_length_b                    14.706696
_cell_length_c                    14.737108
_cell_angle_alpha                 65.035443
_cell_angle_beta                  103.502764
_cell_angle_gamma                 102.851845
_cell_volume                      2027.82646533

loop_
_atom_site_label
_atom_site_type_symbol
_atom_site_description
_atom_site_fract_x
_atom_site_fract_y
_atom_site_fract_z
_atom_type_partial_charge
O1    O     O_R   0.455060 0.022100 0.338110 -0.579052
O2    O     O_R   0.512640 0.160150 0.379180 -0.589446
C1    C     C_R   0.479464 0.119709 0.312310 0.830277
O3    O     O_R   0.288900 0.930980 0.479450 -0.590418
O4    O     O_R   0.346480 0.069030 0.520520 -0.594884
C2    C     C_R   0.259982 0.001308 0.498665 0.768914
Cu1   Cu    Cu3+1 0.465900 0.918260 0.475680 0.973906
Cu2   Cu    Cu3+1 0.534100 0.081740 0.524320 0.938347
O5    O     O_R   0.487360 0.839850 0.620820 -0.592465
O6    O     O_R   0.544940 0.977900 0.661890 -0.591988
O7    O     O_R   0.653520 0.930970 0.479480 -0.554671
O8    O     O_R   0.711100 0.069020 0.520550 -0.591694
C3    C     C_R   0.523301 0.880280 0.687703 0.796209
C4    C     C_R   0.739853 0.000644 0.498830 0.815033
C5    C     C_3   0.040654 0.003389 0.395222 -0.432268
H1    H     H_    0.054057 0.937289 0.381937 0.160438
H2    H     H_    0.075354 0.072536 0.331751 0.191389
C6    C     C_3   0.895176 0.997779 0.396828 0.215794
H3    H     H_    0.846035 0.922555 0.396730 0.157820
H4    H     H_    0.079519 0.837628 0.576915 0.204741
H5    H     H_    0.869068 0.838091 0.583368 0.257203
C7    C     C_3   0.071189 0.907505 0.585716 -0.365570
C8    C     C_3   0.105025 0.098869 0.509840 -0.369351
C9    C     C_3   0.122161 0.002807 0.497438 0.089350
H6    H     H_    0.163622 0.101836 0.581936 0.175913
H7    H     H_    0.139561 0.168357 0.446506 0.179662
C10   C     C_3   0.877946 0.002329 0.497228 0.010328
C11   C     C_3   0.928239 0.908794 0.587360 -0.434015
C12   C     C_3   0.962323 0.098134 0.510927 -0.335182
H8    H     H_    0.928557 0.168866 0.451319 0.221194
H9    H     H_    0.953688 0.098405 0.584698 0.162004
H10   H     H_    0.130646 0.905035 0.659362 0.164571
H11   H     H_    0.919266 0.910432 0.660404 0.174752
C13   C     C_R   0.477885 0.187406 0.205131 -0.039834
C14   C     C_R   0.542875 0.812643 0.795317 -0.056919
C15   C     C_R   0.475278 0.216614 0.030507 -0.179252
C16   C     C_R   0.466023 0.149803 0.130218 -0.118012
C17   C     C_R   0.497054 0.292010 0.179112 -0.232788
C18   C     C_R   0.512637 0.360913 0.080249 0.097905
C19   C     C_R   0.498561 0.321616 0.004995 0.158623
C20   C     C_R   0.539537 0.467483 0.053995 0.067190
C21   C     C_R   0.538001 0.533635 0.950294 0.064476
C22   C     C_R   0.526792 0.491367 0.877871 -0.196561
C23   C     C_R   0.508319 0.387329 0.905176 -0.216090
C24   C     C_R   0.570468 0.510047 0.128037 -0.208087
C25   C     C_R   0.590734 0.614076 0.100825 -0.218765
C26   C     C_R   0.578169 0.679480 0.999191 0.156721
C27   C     C_R   0.549802 0.640001 0.922793 0.091509
C28   C     C_R   0.592722 0.784291 0.973096 -0.188643
C29   C     C_R   0.576037 0.850597 0.871694 -0.198657
C30   C     C_R   0.529516 0.708234 0.821282 -0.224442
H12   H     H_    0.500394 0.358152 0.847355 0.146760
H13   H     H_    0.499206 0.681526 0.760823 0.150892
H14   H     H_    0.587438 0.931205 0.853204 0.157183
H15   H     H_    0.614215 0.643448 0.159947 0.158398
H16   H     H_    0.465516 0.186188 0.973421 0.133487
H17   H     H_    0.451236 0.069033 0.148819 0.163949
H18   H     H_    0.497733 0.317910 0.237471 0.143438
H19   H     H_    0.535925 0.536702 0.799518 0.153212
H20   H     H_    0.583665 0.465162 0.208334 0.151310
H21   H     H_    0.615958 0.814893 0.031243 0.146878
N1    N     N_R   0.585360 0.204570 0.560800 -0.179582
N2    N     N_R   0.414550 0.795430 0.439160 -0.190996
C31   C     C_R   0.726310 0.289009 0.660657 -0.283360
C32   C     C_R   0.686306 0.204594 0.635892 0.076293
C33   C     C_R   0.518687 0.285334 0.509282 0.024315
C34   C     C_R   0.554961 0.374313 0.530549 -0.021482
C35   C     C_R   0.662041 0.374356 0.607568 0.086831
C36   C     C_R   0.490401 0.462531 0.478354 0.034126
C37   C     C_R   0.535256 0.549749 0.504097 -0.048035
C38   C     C_R   0.653551 0.549982 0.572816 0.305864
C39   C     C_R   0.709466 0.461206 0.627525 -0.250297
C40   C     C_R   0.384206 0.467182 0.399733 -0.205841
C41   C     C_R   0.321540 0.552301 0.349351 -0.181985
C42   C     C_R   0.357151 0.634354 0.378371 0.157077
C43   C     C_R   0.461022 0.633329 0.458251 0.000458
C44   C     C_R   0.287752 0.717116 0.328836 -0.307782
C45   C     C_R   0.319719 0.798016 0.359402 0.081952
C46   C     C_R   0.481447 0.714726 0.490601 0.075225
H22   H     H_    0.797702 0.462496 0.681231 0.187406
H23   H     H_    0.548128 0.714856 0.557511 0.162971
H24   H     H_    0.268356 0.862996 0.319746 0.123807
H25   H     H_    0.241663 0.552676 0.288550 0.146884
H26   H     H_    0.808674 0.288305 0.719712 0.143435
H27   H     H_    0.736936 0.139226 0.675726 0.119420
H28   H     H_    0.438828 0.278196 0.451896 0.114998
H29   H     H_    0.347501 0.406369 0.374007 0.128742
H30   H     H_    0.209517 0.719404 0.266521 0.144389
N3    N     N_R   0.835559 0.076199 0.305847 0.112830
O9    O     O_R   0.737483 0.049817 0.246670 -0.370783
O10   O     O_R   0.883679 0.171474 0.279795 -0.380798
N4    N     N_R   0.730349 0.641786 0.576644 0.082494
O11   O     O_R   0.758056 0.716096 0.492903 -0.406145
O12   O     O_R   0.791906 0.644289 0.663044 -0.413156

loop_
_geom_bond_atom_site_label_1
_geom_bond_atom_site_label_2
_geom_bond_distance
_ccdc_geom_bond_type
C5    C6    1.548530 S    
C30   H13   1.075711 S    
C24   H20   1.077070 S    
C10   C12   1.559499 S    
C13   C16   1.399760 A    
C20   C21   1.422197 A    
C43   C46   1.422893 A    
C41   H25   1.084346 S    
C42   C43   1.416441 A    
Cu1   Cu2   2.693847 S    
C26   C28   1.403177 A    
N2    C46   1.364915 A    
C44   C45   1.390980 A    
Cu1   O7    1.967885 S    
C29   H14   1.083032 S    
C7    H10   1.113327 S    
C8    C12   1.531226 S    
C15   C16   1.393028 A    
C3    C14   1.467797 S    
C17   C18   1.403425 A    
O7    C4    1.299755 A    
C5    H1    1.113508 S    
C5    H2    1.112973 S    
C6    H3    1.114960 S    
C40   C41   1.387896 A    
C8    H7    1.113775 S    
O5    C3    1.299608 A    
C40   H29   1.076317 S    
C17   H18   1.075725 S    
C27   C30   1.403647 A    
C31   H26   1.083871 S    
C38   N4    1.432474 S    
C44   H30   1.083830 S    
C25   H15   1.084436 S    
C8    C9    1.553098 S    
C36   C40   1.412425 A    
C37   C38   1.426563 A    
C4    C10   1.480634 S    
N3    O10   1.301407 A    
C22   H19   1.077648 S    
C23   H12   1.084475 S    
C33   C34   1.422938 A    
C13   C17   1.397889 A    
O3    Cu1   1.963285 S    
C28   H21   1.083921 S    
C41   C42   1.392585 A    
N1    C33   1.364234 A    
C34   C35   1.413464 A    
C15   C19   1.403774 A    
O3    C2    1.294970 A    
C18   C19   1.418026 A    
C46   H23   1.074770 S    
C1    C13   1.467629 S    
C24   C25   1.386945 A    
C35   C39   1.390972 A    
C34   C36   1.436096 A    
C22   C23   1.387407 A    
C12   H8    1.110159 S    
C15   H16   1.083877 S    
C45   H24   1.081827 S    
C26   C27   1.417933 A    
Cu2   O8    1.963286 S    
C2    C9    1.478324 S    
C14   C29   1.400020 A    
N4    O12   1.301715 A    
C21   C27   1.424076 A    
C42   C44   1.402527 A    
Cu1   N2    2.023806 S    
Cu2   O6    1.952283 S    
C5    C9    1.552581 S    
H5    C11   1.108072 S    
O8    C4    1.290096 A    
C11   H11   1.113499 S    
C14   C30   1.398761 A    
C7    C9    1.551647 S    
C21   C22   1.416669 A    
C31   C35   1.402266 A    
Cu1   O5    1.940092 S    
C25   C26   1.390695 A    
N1    C32   1.355236 A    
O1    Cu1   1.952283 S    
C6    N3    1.469272 S    
O2    Cu2   1.940092 S    
C6    C10   1.563510 S    
H4    C7    1.113383 S    
O6    C3    1.300658 A    
C33   H28   1.075184 S    
O4    Cu2   1.967885 S    
C32   H27   1.081838 S    
C31   C32   1.389545 A    
O2    C1    1.299361 A    
C38   C39   1.395652 A    
C12   H9    1.114143 S    
C37   C43   1.443524 A    
O4    C2    1.294600 A    
N4    O11   1.301488 A    
C8    H6    1.113843 S    
C36   C37   1.439320 A    
C19   C23   1.391302 A    
C18   C20   1.424225 A    
C39   H22   1.084724 S    
C28   C29   1.392396 A    
C10   C11   1.549334 S    
C20   C24   1.416934 A    
C7    C11   1.542740 S    
O1    C1    1.300907 A    
N3    O9    1.300958 A    
C16   H17   1.083019 S    
Cu2   N1    2.023455 S    
N2    C45   1.355719 A    
