data_mof_unit_33778.cif
_audit_creation_date              2012-12-10T17:22:32-0500
_audit_creation_method            fapswitch 2.2
_symmetry_space_group_name_H-M    P1
_symmetry_Int_Tables_number       1
_space_group_crystal_system       triclinic
_cell_length_a                    19.265017
_cell_length_b                    17.999241
_cell_length_c                    19.187562
_cell_angle_alpha                 108.615067
_cell_angle_beta                  111.185657
_cell_angle_gamma                 108.522862
_cell_volume                      5124.77617904

loop_
_atom_site_label
_atom_site_type_symbol
_atom_type_description
_atom_site_fract_x
_atom_site_fract_y
_atom_site_fract_z
_atom_type_partial_charge
C1    C     C_R   0.380867 0.377557 0.499074 0.939055
C2    C     C_R   0.320468 0.320852 0.576156 0.023055
C3    C     C_2   0.317055 0.818324 0.369681 0.916078
C4    C     C_2   0.820072 0.726609 0.287862 0.933728
C5    C     C_2   0.692485 0.696057 0.116731 0.994510
C6    C     C_2   0.656280 0.583475 0.804092 0.935095
C7    C     C_2   0.589318 0.417275 0.739155 0.849695
C8    C     C_R   0.183614 0.185677 0.497196 -0.191354
C9    C     C_R   0.617240 0.495441 0.620029 0.845599
C10   C     C_R   0.185516 0.163396 0.420674 0.070101
C11   C     C_R   0.248623 0.227621 0.418711 0.106699
C12   C     C_R   0.316783 0.306454 0.497554 -0.188429
C13   C     C_R   0.124678 0.078916 0.345402 -0.153855
C14   C     C_R   0.121716 0.061682 0.268126 -0.117361
C15   C     C_R   0.178054 0.128178 0.263795 -0.139237
C16   C     C_R   0.240442 0.210339 0.337638 -0.066869
C17   C     C_3   0.811232 0.502683 0.809908 0.034442
C18   C     C_R   0.234541 0.517782 0.395652 0.001568
C19   C     C_R   0.189687 0.559806 0.417566 -0.171724
C20   C     C_R   0.143835 0.583602 0.363025 -0.151380
C21   C     C_R   0.620508 0.622419 0.502362 0.921971
C22   C     C_R   0.138907 0.561337 0.284597 -0.126769
C23   C     C_R   0.189126 0.525678 0.264421 0.080596
C24   C     C_R   0.246373 0.514884 0.325470 0.029279
C25   C     C_R   0.181754 0.498514 0.183755 -0.078340
C26   C     C_R   0.240304 0.476747 0.167653 0.109747
C27   C     C_R   0.312862 0.491835 0.236371 -0.026868
C28   C     C_3   0.846790 0.577713 0.787839 -0.138777
C29   C     C_R   0.312154 0.502748 0.313487 -0.198601
C30   C     C_R   0.228922 0.442864 0.084466 -0.188168
C31   C     C_R   0.289827 0.426719 0.069779 -0.030443
C32   C     C_R   0.367928 0.456139 0.140343 -0.192305
C33   C     C_R   0.378941 0.500795 0.379568 0.907259
C34   C     C_R   0.382402 0.494990 0.223792 -0.102384
C35   C     C_R   0.627266 0.794710 0.524933 -0.081125
C36   C     C_R   0.631730 0.876849 0.536602 -0.139401
C37   C     C_R   0.700112 0.941802 0.543559 -0.110079
C38   C     C_R   0.762741 0.923644 0.536050 -0.144826
C39   C     C_3   0.747825 0.513571 0.838396 -0.474105
C40   C     C_R   0.758460 0.839387 0.521627 0.060771
C41   C     C_R   0.691886 0.775170 0.519805 0.113347
C42   C     C_R   0.819668 0.818703 0.509815 -0.216587
C43   C     C_R   0.823803 0.741466 0.509727 0.064613
C44   C     C_R   0.761078 0.680391 0.514423 0.062107
C45   C     C_3   0.693541 0.406814 0.653013 -0.158480
C46   C     C_R   0.691848 0.693822 0.512291 -0.167150
C47   C     C_R   0.888938 0.722998 0.504757 -0.082396
C48   C     C_R   0.893411 0.648572 0.507899 -0.111170
C49   C     C_R   0.834376 0.591356 0.517234 -0.088118
C50   C     C_R   0.392957 0.390366 0.657249 -0.094164
C51   C     C_R   0.769585 0.607158 0.521585 -0.153848
C52   C     C_R   0.000070 0.376981 0.882723 0.821223
C53   C     C_R   0.877959 0.501943 0.877590 0.815571
C54   C     C_R   0.000704 0.621740 0.118443 0.823743
C55   C     C_R   0.116740 0.499456 0.117702 0.841275
C56   C     C_R   0.001281 0.879995 0.380933 0.870205
C57   C     C_3   0.763088 0.409915 0.728126 -0.494782
C58   C     C_R   0.118963 0.120261 0.499514 0.865686
C59   C     C_R   0.997608 0.120224 0.617882 0.909367
C60   C     C_R   0.881476 0.879971 0.501224 0.867829
C61   C     C_R   0.392207 0.406928 0.732747 -0.078690
C62   C     C_R   0.968980 0.388322 0.731671 -0.203326
C63   C     C_R   0.973327 0.408196 0.668217 -0.073047
C64   C     C_R   0.968603 0.343609 0.599381 -0.057555
C65   C     C_R   0.963172 0.264092 0.598979 -0.123893
C66   C     C_R   0.973897 0.250982 0.670758 0.089943
C67   C     C_R   0.976780 0.314338 0.738382 0.071403
C68   C     C_R   0.983077 0.177789 0.677655 -0.151102
C69   C     C_3   0.771445 0.577212 0.721410 -0.461199
C70   C     C_R   0.974216 0.156442 0.739602 0.063499
C71   C     C_R   0.979854 0.220502 0.810714 0.036203
C72   C     C_R   0.316489 0.362786 0.728569 -0.144944
C73   C     C_R   0.987638 0.303401 0.811316 -0.140286
C74   C     C_R   0.957235 0.069775 0.729232 -0.147543
C75   C     C_R   0.951143 0.046866 0.789502 -0.123146
C76   C     C_R   0.962662 0.109523 0.862389 -0.171361
C77   C     C_R   0.977312 0.195564 0.875227 -0.103649
C78   C     C_R   0.159407 0.754653 0.278106 -0.230659
C79   C     C_R   0.237059 0.822036 0.353200 0.025374
C80   C     C_R   0.237901 0.893360 0.411279 -0.178554
C81   C     C_3   0.668248 0.502213 0.765601 -0.089855
C82   C     C_R   0.161953 0.893920 0.397352 -0.179850
C83   C     C_R   0.242681 0.298601 0.648700 -0.067062
C84   C     C_R   0.081957 0.821520 0.325630 0.075497
C85   C     C_R   0.081803 0.755298 0.262193 0.047119
C86   C     C_R   0.002337 0.813716 0.314653 -0.166074
C87   C     C_R   0.924095 0.747783 0.235554 0.011605
C88   C     C_R   0.928656 0.696240 0.167124 0.066689
C89   C     C_R   0.004385 0.692771 0.183583 -0.155388
C90   C     C_R   0.841007 0.731560 0.221321 -0.050211
C91   C     C_R   0.773089 0.693253 0.136345 -0.072253
C92   C     C_R   0.782341 0.651527 0.067877 -0.180611
C93   C     C_3   0.685195 0.494599 0.687916 -0.043787
C94   C     C_R   0.248363 0.267029 0.573944 -0.031991
C95   C     C_R   0.857148 0.648397 0.083297 -0.135408
C96   C     C_2   0.708496 0.387251 0.578213 0.939789
C97   C     C_2   0.910234 0.671705 0.864224 0.937071
C98   C     C_2   0.161288 0.287759 0.641944 0.910451
C99   C     C_2   0.244457 0.457311 0.430602 0.933955
C100  C     C_2   0.273190 0.383899 0.981139 0.926331
C101  C     C_2   0.472901 0.554942 0.293550 0.962433
C102  C     C_2   0.982732 0.496727 0.677327 0.969233
C103  C     C_2   0.972456 0.356778 0.528078 0.997293
C104  C     C_2   0.990687 0.251354 0.959293 0.937185
H1    H     H_    0.781879 0.579886 0.896269 0.204415
H2    H     H_    0.582008 0.890265 0.540791 0.170799
H3    H     H_    0.704460 0.006345 0.554263 0.153922
H4    H     H_    0.937475 0.764391 0.497838 0.197885
H5    H     H_    0.943499 0.635807 0.503926 0.168731
H6    H     H_    0.958570 0.432108 0.775166 0.185621
H7    H     H_    0.938128 0.980155 0.779918 0.153664
H8    H     H_    0.730665 0.619167 0.002206 0.191025
H9    H     H_    0.168011 0.952854 0.443108 0.169602
H10   H     H_    0.781478 0.575068 0.667582 0.179384
H11   H     H_    0.881383 0.558446 0.756203 0.197464
H12   H     H_    0.770298 0.641046 0.747384 0.228451
H13   H     H_    0.728664 0.465021 0.860892 0.212054
H14   H     H_    0.790414 0.411659 0.536741 0.353111
H15   H     H_    0.935157 0.777858 0.966400 0.346575
H16   H     H_    0.173756 0.115976 0.202967 0.151724
H17   H     H_    0.448521 0.459136 0.794144 0.224422
H18   H     H_    0.313871 0.385119 0.786677 0.197075
H19   H     H_    0.119378 0.297795 0.533256 0.321284
H20   H     H_    0.078607 0.025245 0.344973 0.142203
H21   H     H_    0.419599 0.454242 0.130786 0.211952
H22   H     H_    0.251260 0.427176 0.524884 0.345100
H23   H     H_    0.451476 0.432216 0.663901 0.214856
H24   H     H_    0.106303 0.612453 0.378263 0.165101
H25   H     H_    0.095760 0.572864 0.240443 0.125891
H26   H     H_    0.188451 0.320845 0.854279 0.386351
H27   H     H_    0.451683 0.654821 0.349558 0.294292
H28   H     H_    0.838753 0.534315 0.520631 0.202270
H29   H     H_    0.732521 0.355648 0.740549 0.200325
H30   H     H_    0.815026 0.977396 0.543302 0.143992
H31   H     H_    0.727404 0.561622 0.531681 0.157504
H32   H     H_    0.959615 0.090140 0.909734 0.157241
H33   H     H_    0.024850 0.626333 0.757543 0.363768
H34   H     H_    0.074297 0.997223 0.211052 0.151923
H35   H     H_    0.809133 0.395834 0.711963 0.175500
H36   H     H_    0.926548 0.302202 0.400767 0.353670
H37   H     H_    0.954607 0.216066 0.542090 0.231195
H38   H     H_    0.945940 0.017014 0.672869 0.139117
H39   H     H_    0.110731 0.273880 0.022340 0.305557
H40   H     H_    0.160688 0.702264 0.232316 0.186171
H41   H     H_    0.372923 0.749576 0.330932 0.344417
H42   H     H_    0.297381 0.948814 0.468077 0.183546
H43   H     H_    0.737246 0.717049 0.330093 0.355181
H44   H     H_    0.635926 0.768494 0.145513 0.355753
H45   H     H_    0.633810 0.346286 0.628091 0.195024
H46   H     H_    0.860315 0.611721 0.028892 0.142606
H47   H     H_    0.580236 0.629367 0.829219 0.352309
H48   H     H_    0.484083 0.297900 0.645750 0.356459
H49   H     H_    0.279843 0.259107 0.328215 0.186483
H50   H     H_    0.183115 0.566431 0.472664 0.200016
H51   H     H_    0.171200 0.426122 0.029815 0.176947
H52   H     H_    0.571461 0.747863 0.519089 0.183939
O1    O     O_R   0.408690 0.356690 0.448570 -0.627054
O2    O     O_R   0.052500 0.908420 0.460860 -0.623835
O3    O     O_R   0.039610 0.091640 0.448030 -0.597554
O4    O     O_R   0.408090 0.460090 0.551440 -0.614495
O5    O     O_R   0.143600 0.091610 0.551990 -0.621394
O6    O     O_R   0.947500 0.091600 0.539170 -0.655455
O7    O     O_R   0.051490 0.091570 0.643140 -0.594438
O8    O     O_R   0.856400 0.908420 0.448030 -0.583044
O9    O     O_R   0.960390 0.908390 0.552000 -0.648274
O10   O     O_R   0.592400 0.448300 0.540670 -0.603313
O11   O     O_R   0.591800 0.551700 0.643540 -0.622344
O12   O     O_R   0.049540 0.460090 0.906170 -0.588342
O13   O     O_R   0.591910 0.539910 0.448560 -0.578172
O14   O     O_R   0.591310 0.643310 0.551430 -0.650591
O15   O     O_R   0.408200 0.448300 0.356460 -0.615928
O16   O     O_R   0.407600 0.551700 0.459330 -0.628939
O17   O     O_R   0.946100 0.356720 0.906240 -0.602136
O18   O     O_2   0.651560 0.323283 0.507319 -0.595523
O19   O     O_R   0.787787 0.437877 0.590363 -0.840353
O20   O     O_2   0.982790 0.709333 0.878208 -0.608417
O21   O     O_R   0.886621 0.715988 0.917970 -0.776552
O22   O     O_2   0.150405 0.289943 0.701137 -0.625455
O23   O     O_R   0.853530 0.448360 0.905250 -0.620766
O24   O     O_R   0.099774 0.284331 0.572298 -0.806841
O25   O     O_2   0.235672 0.385541 0.385385 -0.677045
O26   O     O_R   0.255074 0.478073 0.511805 -0.782121
O27   O     O_2   0.329043 0.376000 0.968677 -0.600171
O28   O     O_R   0.192835 0.351079 0.911314 -0.818569
O29   O     O_2   0.526702 0.533567 0.291998 -0.557702
O30   O     O_R   0.499026 0.639084 0.357905 -0.824139
O31   O     O_2   0.957332 0.506783 0.614562 -0.627824
O32   O     O_R   0.021418 0.569542 0.759092 -0.780398
O33   O     O_2   0.026881 0.427330 0.543179 -0.574987
O34   O     O_R   0.956970 0.551730 0.905180 -0.598301
O35   O     O_R   0.916712 0.286076 0.443664 -0.799884
O36   O     O_2   0.929247 0.249590 0.965274 -0.533137
O37   O     O_R   0.068704 0.289826 0.034086 -0.792891
O38   O     O_2   0.385326 0.879098 0.433762 -0.632117
O39   O     O_R   0.314550 0.744777 0.312271 -0.815702
O40   O     O_2   0.864184 0.714038 0.342077 -0.678483
O41   O     O_R   0.747296 0.728562 0.285338 -0.745516
O42   O     O_2   0.624424 0.631474 0.055543 -0.599715
O43   O     O_R   0.694796 0.774346 0.165714 -0.748431
O44   O     O_2   0.713910 0.660313 0.838415 -0.584677
O45   O     O_R   0.945170 0.540000 0.088470 -0.612974
O46   O     O_R   0.579713 0.570725 0.801523 -0.822886
O47   O     O_2   0.576242 0.407633 0.794417 -0.591538
O48   O     O_R   0.530070 0.352028 0.653066 -0.864381
O49   O     O_R   0.048600 0.643370 0.088400 -0.615805
O50   O     O_R   0.037740 0.448360 0.089460 -0.571824
O51   O     O_R   0.141170 0.551730 0.089390 -0.622107
O52   O     O_R   0.948510 0.908450 0.356890 -0.620761
Zn1   Zn    Zn3+2 0.500400 0.430960 0.431310 1.061204
Zn2   Zn    Zn3+2 0.499600 0.569040 0.568690 1.017166
Zn3   Zn    Zn3+2 0.928290 0.431030 0.997370 1.063587
Zn4   Zn    Zn3+2 0.066410 0.569060 0.997270 1.064887
Zn5   Zn    Zn3+2 0.930570 0.000030 0.430590 1.052041
Zn6   Zn    Zn3+2 0.069430 0.999990 0.569430 0.995796

loop_
_geom_bond_atom_site_label_1
_geom_bond_atom_site_label_2
_ccdc_geom_bond_type
C28   C97   S    
C64   C103  S    
C66   C68   A    
C87   C88   A    
C69   H12   S    
O1    Zn1   S    
O52   Zn5   S    
O3    Zn5   S    
C96   O19   S    
C29   C33   S    
C27   C29   A    
O12   Zn4   S    
C19   C20   A    
O5    Zn6   S    
C3    C79   S    
C76   H32   S    
C5    O43   S    
C31   C32   A    
C23   C25   A    
C45   C57   S    
C26   C27   A    
C7    O48   S    
C96   O18   D    
C62   C67   A    
C18   C24   A    
H41   O39   S    
C9    O10   A    
O11   Zn2   S    
C84   C86   A    
C6    O46   S    
C69   C93   S    
C58   O3    A    
O10   Zn1   S    
C30   C31   A    
O15   Zn1   S    
O7    Zn6   S    
C21   O13   A    
C21   O14   A    
C104  O36   D    
O23   Zn3   S    
C81   C93   S    
C15   H16   S    
C57   H35   S    
C61   H17   S    
C18   C19   A    
C17   C39   S    
C100  O27   D    
O34   Zn4   S    
C24   C29   A    
C99   O26   S    
C7    O47   D    
C2    C50   A    
C8    C58   S    
C87   C90   A    
C51   H31   S    
O50   Zn3   S    
C28   C69   S    
C102  O31   D    
C49   C51   A    
C83   C98   S    
O14   Zn2   S    
C70   C74   A    
C100  O28   S    
C56   O2    A    
C104  O37   S    
C70   C71   A    
C67   C73   A    
C98   O22   D    
C53   O34   A    
H33   O32   S    
C80   H42   S    
C66   C67   A    
C74   H38   S    
C88   C95   A    
C45   C93   S    
C6    C81   S    
C13   C14   A    
C59   O7    A    
C57   H29   S    
O17   Zn3   S    
C1    C12   S    
C63   C102  S    
C101  O29   D    
C53   O23   A    
C44   C46   A    
C4    C90   S    
O16   Zn2   S    
C27   C34   A    
C49   H28   S    
C69   H10   S    
C34   C101  S    
C56   C86   S    
C74   C75   A    
C36   H2    S    
C3    O38   D    
C14   H34   S    
C9    O11   A    
C8    C94   A    
C84   C85   A    
C39   C81   S    
C54   C89   S    
C80   C82   A    
C52   C73   S    
C45   C96   S    
C42   C60   S    
C91   C92   A    
C71   C73   A    
C13   H20   S    
C85   C89   A    
C78   C79   A    
C92   H8    S    
O49   Zn4   S    
C25   C26   A    
C39   H13   S    
C83   C94   A    
C78   C85   A    
C92   C95   A    
C3    O39   S    
C4    O40   D    
C79   C80   A    
C35   C36   A    
C32   C34   A    
C32   H21   S    
C75   C76   A    
C37   C38   A    
C28   H11   S    
C78   H40   S    
C59   C68   S    
C65   H37   S    
C11   C16   A    
C47   H4    S    
C97   O21   S    
C47   C48   A    
C62   H6    S    
C2    C94   A    
C9    C93   S    
C41   C46   A    
C54   O49   A    
O13   Zn1   S    
C62   C63   A    
C14   C15   A    
C95   H46   S    
C31   C100  S    
C76   C77   A    
C5    C91   S    
C103  O33   D    
C61   C72   A    
C68   C70   A    
C30   H51   S    
C7    C81   S    
C20   C22   A    
H14   O19   S    
C26   C30   A    
C82   C84   A    
C22   H25   S    
O51   Zn4   S    
H43   O41   S    
C103  O35   S    
C18   C99   S    
H47   O46   S    
C98   O24   S    
C101  O30   S    
C33   O15   A    
C17   C53   S    
C71   C77   A    
O4    Zn2   S    
C44   C51   A    
C2    C12   A    
C39   H1    S    
C55   O50   A    
C36   C37   A    
C72   H18   S    
C86   C87   A    
C17   C28   S    
C1    O4    A    
C25   C55   S    
C82   H9    S    
C4    O41   S    
H19   O24   S    
C10   C13   A    
C11   C12   A    
H44   O43   S    
C20   H24   S    
C5    O42   D    
O8    Zn5   S    
O2    Zn6   S    
C54   O45   A    
C55   O51   A    
C75   H7    S    
C60   O9    A    
C64   C65   A    
C1    O1    A    
C56   O52   A    
C59   O6    A    
H26   O28   S    
C52   O12   A    
C6    O44   D    
C33   O16   A    
C90   C91   A    
C38   C40   A    
C43   C44   A    
C48   C49   A    
C52   O17   A    
C40   C42   A    
C60   O8    A    
C48   H5    S    
C45   H45   S    
C38   H30   S    
C35   C41   A    
C102  O32   S    
C99   O25   D    
C72   C83   A    
H22   O26   S    
C10   C11   A    
C23   C24   A    
C63   C64   A    
C21   C46   S    
H27   O30   S    
O9    Zn6   S    
C50   C61   A    
C35   H52   S    
C88   C89   A    
C8    C10   A    
C65   C66   A    
C42   C43   A    
C37   H3    S    
C16   H49   S    
C97   O20   D    
C19   H50   S    
C22   C23   A    
H48   O48   S    
C77   C104  S    
C40   C41   A    
C50   H23   S    
H15   O21   S    
C58   O5    A    
C43   C47   A    
H36   O35   S    
O45   Zn3   S    
C15   C16   A    
C17   C57   S    
O6    Zn5   S    
H39   O37   S    
