data_mof_unit_10358.cif
_audit_creation_date              2012-12-11T16:06:39-0500
_audit_creation_method            fapswitch 2.2
_symmetry_space_group_name_H-M    P1
_symmetry_Int_Tables_number       1
_space_group_crystal_system       triclinic
_cell_length_a                    8.294747
_cell_length_b                    12.710268
_cell_length_c                    17.265127
_cell_angle_alpha                 94.601008
_cell_angle_beta                  95.752228
_cell_angle_gamma                 98.032015
_cell_volume                      1785.08400102

loop_
_atom_site_label
_atom_site_type_symbol
_atom_type_description
_atom_site_fract_x
_atom_site_fract_y
_atom_site_fract_z
_atom_type_partial_charge
Ba1   Ba    Ba6+2 0.158660 0.552610 0.463110 1.699227
Ba2   Ba    Ba6+2 0.651510 0.447380 0.536830 1.685675
Br1   Br    Br    0.186971 0.086582 0.350834 -0.602266
Br2   Br    Br    0.496623 0.905667 0.623710 -0.619158
Br3   Br    Br    0.941518 0.940890 0.121268 -0.631881
C1    C     C_3   0.359236 0.809791 0.165524 -0.316196
C2    C     C_R   0.731279 0.816207 0.470803 -0.201982
C3    C     C_R   0.699689 0.996049 0.441273 -0.077449
C4    C     C_3   0.887899 0.835703 0.259672 0.434183
C5    C     C_R   0.636140 0.887508 0.438447 0.020475
C6    C     C_R   0.887219 0.850819 0.510408 0.069981
C7    C     C_R   0.950331 0.963044 0.517308 -0.039362
C8    C     C_R   0.855753 0.036670 0.481473 -0.032421
C9    C     C_R   0.920250 0.148668 0.488332 0.052497
C10   C     C_R   0.169823 0.112483 0.560026 0.033853
C11   C     C_R   0.105666 0.004090 0.557772 -0.076758
C12   C     C_3   0.392547 0.781070 0.248936 0.359652
C13   C     C_R   0.602484 0.543433 0.280988 -0.271552
C14   C     C_R   0.445799 0.488270 0.256564 0.050906
C15   C     C_R   0.383702 0.480555 0.177187 -0.129549
C16   C     C_3   0.794515 0.878294 0.191325 0.075661
C17   C     C_R   0.480472 0.526019 0.122574 -0.000438
C18   C     C_R   0.641529 0.575342 0.147165 -0.145996
C19   C     C_R   0.702730 0.582532 0.226218 0.003090
C20   C     C_R   0.414616 0.552335 0.837585 -0.131950
C21   C     C_R   0.360788 0.541748 0.757444 -0.018485
C22   C     C_R   0.103891 0.439369 0.780634 0.023109
C23   C     C_3   0.436420 0.795480 0.689025 0.516435
C24   C     C_R   0.155821 0.450456 0.861153 -0.133674
C25   C     C_R   0.312190 0.505793 0.889756 0.007016
C26   C     C_1   0.368627 0.513058 0.972156 -0.001805
C27   C     C_1   0.417998 0.518693 0.040871 0.003805
C28   C     C_3   0.738992 0.316215 0.304422 0.301814
C29   C     C_R   0.207593 0.483272 0.729438 -0.259452
C30   C     C_3   0.662356 0.282001 0.220574 -0.392521
C31   C     C_3   0.997908 0.698241 0.708299 0.309443
C32   C     C_3   0.906014 0.736399 0.776102 -0.177175
C33   C     C_3   0.161253 0.222739 0.313126 0.542368
C34   C     C_3   0.428457 0.843464 0.771608 -0.366211
C35   C     C_3   0.073119 0.203830 0.230370 -0.309835
C36   C     C_3   0.014738 0.802150 0.845401 -0.248066
C37   C     C_3   0.099370 0.732701 0.899739 -0.386233
C38   C     C_3   0.291276 0.106668 0.808314 -0.198818
C39   C     C_3   0.209642 0.155386 0.875465 -0.474387
C40   C     C_3   0.853355 0.165568 0.713126 0.352924
C41   C     C_3   0.824856 0.056243 0.743336 -0.358563
C42   C     C_3   0.349333 0.185787 0.750254 0.365950
C43   C     C_3   0.465671 0.281552 0.791957 -0.272767
C44   C     C_R   0.075449 0.183536 0.527943 -0.238525
H1    H     H_    0.305435 0.708683 0.255961 0.091166
H2    H     H_    0.228931 0.819492 0.152608 0.200440
H3    H     H_    0.045848 0.280457 0.209467 0.059205
H4    H     H_    0.957066 0.148341 0.229470 0.145518
H5    H     H_    0.151108 0.167863 0.190019 0.161782
H6    H     H_    0.519704 0.763043 0.258074 -0.097253
H7    H     H_    0.386444 0.745375 0.123725 0.055446
H8    H     H_    0.316399 0.751636 0.663493 0.047437
H9    H     H_    0.549470 0.887684 0.797253 0.125309
H10   H     H_    0.336725 0.898284 0.769753 0.105833
H11   H     H_    0.392143 0.779489 0.809083 0.056411
H12   H     H_    0.542907 0.230158 0.220320 0.160323
H13   H     H_    0.436721 0.885680 0.157287 0.127230
H14   H     H_    0.708211 0.812125 0.157503 0.054598
H15   H     H_    0.751809 0.169810 0.666933 0.118868
H16   H     H_    0.971022 0.174099 0.687293 -0.071068
H17   H     H_    0.834176 0.993506 0.696084 0.113355
H18   H     H_    0.916859 0.050283 0.793234 0.106511
H19   H     H_    0.701435 0.043128 0.763465 0.161029
H20   H     H_    0.239822 0.215513 0.722480 -0.056894
H21   H     H_    0.491741 0.340879 0.749326 0.144888
H22   H     H_    0.580598 0.255565 0.817080 0.158573
H23   H     H_    0.643251 0.352629 0.189316 0.056972
H24   H     H_    0.970877 0.902813 0.293597 0.117199
H25   H     H_    0.410639 0.321506 0.840177 0.057327
H26   H     H_    0.624100 0.047721 0.413228 0.132403
H27   H     H_    0.179242 0.952656 0.586767 0.137622
H28   H     H_    0.126962 0.267030 0.530951 0.060700
H29   H     H_    0.680172 0.732666 0.467781 0.065133
H30   H     H_    0.534739 0.595826 0.858913 0.069126
H31   H     H_    0.719517 0.606765 0.105086 0.086858
H32   H     H_    0.075607 0.415525 0.901089 0.083188
H33   H     H_    0.262190 0.437683 0.157933 0.082851
H34   H     H_    0.743216 0.237078 0.187914 0.127847
H35   H     H_    0.650908 0.549107 0.341990 0.063686
H36   H     H_    0.800227 0.804958 0.300277 -0.209217
H37   H     H_    0.166110 0.474355 0.667484 0.060526
H38   H     H_    0.724537 0.940209 0.213984 0.045498
H39   H     H_    0.649212 0.352786 0.336855 0.043819
H40   H     H_    0.850087 0.375744 0.303691 0.040154
H41   H     H_    0.175057 0.784029 0.949059 0.151237
H42   H     H_    0.007248 0.675992 0.923875 0.140663
H43   H     H_    0.180112 0.687222 0.867806 0.122283
H44   H     H_    0.105785 0.862125 0.824357 0.132397
H45   H     H_    0.114765 0.675344 0.732488 -0.063346
H46   H     H_    0.936231 0.847002 0.880209 0.140798
H47   H     H_    0.139114 0.090577 0.903212 0.156016
H48   H     H_    0.303411 0.200436 0.921117 0.142198
H49   H     H_    0.124966 0.209423 0.853805 0.160033
H50   H     H_    0.200864 0.042154 0.774853 0.097286
H51   H     H_    0.396912 0.070751 0.833775 0.128020
H52   H     H_    0.925932 0.625831 0.675791 0.077207
H53   H     H_    0.832149 0.667196 0.797606 0.100336
H54   H     H_    0.821843 0.789652 0.753378 0.150066
H55   H     H_    0.091523 0.264195 0.354102 0.008812
O1    O     O_2   0.163080 0.763400 0.536930 -0.444698
O2    O     O_2   0.770944 0.432943 0.774843 -0.496710
O3    O     O_3   0.856130 0.244592 0.775256 -0.617129
O4    O     O_3   0.893330 0.628980 0.538660 -0.496604
O5    O     O_3   0.422000 0.445190 0.409310 -0.459468
O6    O     O_2   0.648720 0.552000 0.685060 -0.450632
O7    O     O_3   0.561666 0.733845 0.689553 -0.638518
O8    O     O_2   0.503552 0.115239 0.551792 -0.424230
O9    O     O_3   0.433891 0.131756 0.696070 -0.591240
O10   O     O_3   0.379830 0.697590 0.399610 -0.496531
O11   O     O_2   0.300109 0.885561 0.445011 -0.401915
O12   O     O_3   0.319228 0.276479 0.311828 -0.624342
O13   O     O_3   0.031819 0.782621 0.661622 -0.659047
O14   O     O_3   0.370754 0.866845 0.301527 -0.558355
O15   O     O_2   0.161570 0.447940 0.314920 -0.494993
O16   O     O_3   0.953630 0.643360 0.361440 -0.473071
O17   O     O_2   0.032486 0.563137 0.224968 -0.495265
O18   O     O_3   0.984017 0.761380 0.231157 -0.577722
O19   O     O_2   0.647210 0.236530 0.463040 -0.431829
O20   O     O_3   0.916960 0.371010 0.461280 -0.502189
O21   O     O_3   0.430470 0.302400 0.600330 -0.479241
O22   O     O_3   0.781355 0.226171 0.338429 -0.637137
O23   O     O_3   0.388290 0.554800 0.590630 -0.454038
O24   O     O_3   0.856660 0.356630 0.638500 -0.497594
P1    P     P_3+3 0.990420 0.746550 0.559720 0.996978
P2    P     P_3+3 0.330880 0.415450 0.326700 0.981291
P3    P     P_3+3 0.917246 0.635356 0.259706 0.970275
P4    P     P_3+3 0.819870 0.253440 0.440220 0.991073
P5    P     P_3+3 0.898822 0.370402 0.741036 0.917643
P6    P     P_3+3 0.422845 0.835779 0.397013 1.057589
P7    P     P_3+3 0.484496 0.599457 0.684836 0.936647
P8    P     P_3+3 0.382334 0.164537 0.600922 1.022012

loop_
_geom_bond_atom_site_label_1
_geom_bond_atom_site_label_2
_ccdc_geom_bond_type
C2    C5    A    
C16   H38   S    
Ba2   O5    S    
C3    C8    A    
C15   H33   S    
O19   P4    D    
C22   C24   A    
O16   P3    S    
C36   C37   S    
C14   C15   A    
O7    P7    S    
C9    P4    S    
C23   H8    S    
C2    C6    A    
C5    P6    S    
C17   C27   S    
C13   C19   A    
C31   C32   S    
C28   H39   S    
O23   P7    S    
C41   H17   S    
Ba1   P1    S    
C29   H37   S    
C32   H53   S    
C9    C44   A    
C10   C11   A    
O15   P2    D    
O20   P4    S    
C13   C14   A    
Ba1   O15   S    
C42   H20   S    
C33   H55   S    
C21   P7    S    
C4    H36   S    
C39   H49   S    
C21   C29   A    
O2    P5    D    
C36   H44   S    
C7    C11   A    
Br1   C33   S    
O9    P8    S    
C13   H35   S    
C18   C19   A    
C1    H2    S    
O13   P1    S    
C12   H6    S    
O14   P6    S    
Ba1   O5    S    
Ba2   O23   S    
C14   P2    S    
C23   O7    S    
C20   H30   S    
C8    C9    A    
O6    P7    D    
C36   H46   S    
C4    H24   S    
O17   P3    D    
C6    P1    S    
Br2   C23   S    
C22   C29   A    
O8    P8    D    
C22   P5    S    
C43   H25   S    
C38   H51   S    
Ba1   P2    S    
C43   H21   S    
C32   H54   S    
C30   H34   S    
O1    P1    D    
C10   P8    S    
C23   C34   S    
C20   C21   A    
C35   H3    S    
C34   H9    S    
C3    H26   S    
C31   H52   S    
C37   H41   S    
Ba1   O16   S    
C38   C39   S    
C41   H19   S    
C24   C25   A    
C39   H47   S    
C28   H40   S    
C33   O12   S    
C39   H48   S    
Ba2   P4    S    
C42   C43   S    
O22   P4    S    
C34   H10   S    
C4    O18   S    
O10   P6    S    
Br3   C16   S    
C30   H12   S    
C31   O13   S    
O4    P1    S    
C12   O14   S    
C2    H29   S    
O21   P8    S    
C15   C17   A    
C24   H32   S    
C35   H5    S    
C40   H16   S    
C18   H31   S    
C40   C41   S    
Ba1   O10   S    
C43   H22   S    
O18   P3    S    
C20   C25   A    
C42   O9    S    
C1    C12   S    
Ba2   O6    S    
C11   H27   S    
C26   C27   T    
Ba1   O23   S    
C1    H7    S    
C12   H1    S    
C30   H23   S    
C6    C7    A    
O11   P6    D    
Ba2   O20   S    
C40   H15   S    
C1    H13   S    
Ba1   O20   S    
C41   H18   S    
O3    P5    S    
O24   P5    S    
C38   H50   S    
C33   C35   S    
C19   P3    S    
C4    C16   S    
C25   C26   S    
C34   H11   S    
Ba1   Ba2   S    
Ba2   O4    S    
C28   O22   S    
C28   C30   S    
C44   H28   S    
C37   H43   S    
C10   C44   A    
C32   C36   S    
C16   H14   S    
Ba1   O4    S    
C40   O3    S    
Ba2   O21   S    
C31   H45   S    
O12   P2    S    
C7    C8    A    
C3    C5    A    
C35   H4    S    
O5    P2    S    
C17   C18   A    
C38   C42   S    
Ba2   O19   S    
C37   H42   S    
Ba1   O1    S    
Ba2   O24   S    
