data_mof_unit_51590.cif
_audit_creation_date              2012-12-10T17:30:27-0500
_audit_creation_method            fapswitch 2.2
_symmetry_space_group_name_H-M    P1
_symmetry_Int_Tables_number       1
_space_group_crystal_system       triclinic
_cell_length_a                    12.217075
_cell_length_b                    12.823527
_cell_length_c                    14.912748
_cell_angle_alpha                 91.964586
_cell_angle_beta                  87.342835
_cell_angle_gamma                 94.208441
_cell_volume                      2326.39737657

loop_
_atom_site_label
_atom_site_type_symbol
_atom_type_description
_atom_site_fract_x
_atom_site_fract_y
_atom_site_fract_z
_atom_type_partial_charge
C1    C     C_R   0.522487 0.699646 0.498649 0.888532
C2    C     C_R   0.384586 0.138834 0.447612 -0.247182
C3    C     C_R   0.469708 0.867449 0.447805 0.124528
C4    C     C_R   0.530291 0.132550 0.552193 0.124526
C5    C     C_R   0.460678 0.974109 0.470525 0.048718
C6    C     C_R   0.539323 0.025891 0.529472 0.048718
C7    C     C_R   0.942251 0.367757 0.464580 0.129863
C8    C     C_R   0.057749 0.632243 0.535420 0.129863
C9    C     C_R   0.833443 0.390065 0.448695 0.257031
C10   C     C_R   0.166557 0.609935 0.551305 0.257031
C11   C     C_R   0.863103 0.557107 0.520421 0.256913
C12   C     C_R   0.477513 0.300354 0.501351 0.888533
C13   C     C_R   0.136897 0.442893 0.479578 0.256913
C14   C     C_R   0.979885 0.548708 0.513185 -0.056342
C15   C     C_R   0.020115 0.451292 0.486814 -0.056342
C16   C     C_R   0.501036 0.501327 0.672293 0.852533
C17   C     C_R   0.498963 0.498673 0.327707 0.852533
C18   C     C_R   0.465330 0.402024 0.184931 -0.072406
C19   C     C_R   0.534670 0.597977 0.815069 -0.072406
C20   C     C_R   0.496992 0.495318 0.232204 -0.123017
C21   C     C_R   0.503008 0.504682 0.767796 -0.123018
C22   C     C_R   0.535058 0.585879 0.188996 -0.243259
C23   C     C_R   0.578633 0.682400 0.960818 -0.154782
C24   C     C_R   0.464942 0.414122 0.811004 -0.243257
C25   C     C_R   0.537705 0.587880 0.096587 0.127872
C26   C     C_R   0.462295 0.412120 0.903413 0.127871
C27   C     C_R   0.500033 0.498033 0.046854 0.034989
C28   C     C_R   0.499967 0.501967 0.953146 0.034989
C29   C     C_R   0.462693 0.404442 0.090705 0.101080
C30   C     C_R   0.537307 0.595559 0.909294 0.101080
C31   C     C_R   0.577646 0.678769 0.053582 -0.229607
C32   C     C_R   0.422354 0.321231 0.946418 -0.229606
C33   C     C_2   0.441594 0.303829 0.235224 0.351892
C34   C     C_R   0.421367 0.317601 0.039182 -0.154782
C35   C     C_2   0.558406 0.696171 0.764776 0.351891
C36   C     C_3   0.966391 0.254057 0.471652 -0.907652
C37   C     C_3   0.033609 0.745944 0.528347 -0.907653
C38   C     C_3   0.578006 0.184823 0.636090 -0.840623
C39   C     C_3   0.421993 0.815175 0.363909 -0.840626
C40   C     C_3   0.728861 0.017261 0.600799 -0.890383
C41   C     C_3   0.271142 0.982741 0.399194 -0.890384
C42   C     C_3   0.183688 0.357580 0.421492 -0.833855
C43   C     C_3   0.816312 0.642420 0.578507 -0.833855
C44   C     C_3   0.233974 0.687543 0.608121 -0.766944
C45   C     C_R   0.462393 0.188619 0.501914 -0.106077
C46   C     C_3   0.766026 0.312457 0.391879 -0.766945
C47   C     C_R   0.537606 0.811381 0.498084 -0.106076
C48   C     C_R   0.623908 0.968772 0.562450 0.237476
C49   C     C_R   0.376093 0.031229 0.437546 0.237479
C50   C     C_R   0.615415 0.861167 0.552386 -0.247184
H1    H     H_    0.563933 0.654726 0.227789 0.137651
H2    H     H_    0.599155 0.693717 0.698876 0.049693
H3    H     H_    0.029766 0.245175 0.521076 0.250732
H4    H     H_    0.893076 0.207602 0.498851 0.235869
H5    H     H_    0.989934 0.219382 0.405003 0.246098
H6    H     H_    0.970233 0.754825 0.478923 0.250732
H7    H     H_    0.010067 0.780619 0.594996 0.246099
H8    H     H_    0.106924 0.792398 0.501147 0.235869
H9    H     H_    0.531942 0.252617 0.659500 0.217307
H10   H     H_    0.569124 0.130512 0.692684 0.244028
H11   H     H_    0.664574 0.214672 0.623341 0.252618
H12   H     H_    0.436067 0.345274 0.772211 0.137651
H13   H     H_    0.468053 0.747378 0.340501 0.217309
H14   H     H_    0.335424 0.785330 0.376658 0.252618
H15   H     H_    0.430879 0.869483 0.307313 0.244026
H16   H     H_    0.794875 0.961822 0.595662 0.233364
H17   H     H_    0.760427 0.085508 0.561359 0.233707
H18   H     H_    0.716719 0.038474 0.673011 0.253891
H19   H     H_    0.205131 0.038182 0.404324 0.233363
H20   H     H_    0.283288 0.961525 0.326983 0.253892
H21   H     H_    0.239570 0.914496 0.438634 0.233707
H22   H     H_    0.262207 0.384173 0.389198 0.266421
H23   H     H_    0.608691 0.747187 0.091816 0.157484
H24   H     H_    0.131032 0.335562 0.364306 0.217781
H25   H     H_    0.195447 0.289051 0.462078 0.233849
H26   H     H_    0.737793 0.615827 0.610802 0.266421
H27   H     H_    0.804552 0.710949 0.537922 0.233849
H28   H     H_    0.868969 0.664438 0.635694 0.217782
H29   H     H_    0.181785 0.717466 0.664888 0.211115
H30   H     H_    0.300931 0.651529 0.639538 0.273768
H31   H     H_    0.266985 0.755153 0.568160 0.235841
H32   H     H_    0.818215 0.282534 0.335112 0.211115
H33   H     H_    0.733014 0.244847 0.431840 0.235841
H34   H     H_    0.391309 0.252813 0.908183 0.157484
H35   H     H_    0.699069 0.348471 0.360462 0.273768
H36   H     H_    0.613912 0.753203 0.930572 0.197175
H37   H     H_    0.386088 0.246797 0.069428 0.197175
H38   H     H_    0.329151 0.184138 0.413299 0.157841
H39   H     H_    0.670850 0.815863 0.586699 0.157843
H40   H     H_    0.400845 0.306283 0.301124 0.049693
N1    N     N_R   0.207800 0.519350 0.516680 -0.122224
N2    N     N_R   0.792200 0.480650 0.483320 -0.122224
O1    O     O_R   0.421700 0.658830 0.504450 -0.609169
O2    O     O_2   0.526330 0.779282 0.793759 -0.569953
O3    O     O_R   0.578300 0.341170 0.495550 -0.609170
O4    O     O_R   0.609310 0.646410 0.493750 -0.629961
O5    O     O_R   0.390690 0.353590 0.506250 -0.629961
O6    O     O_R   0.406180 0.506230 0.637500 -0.614190
O7    O     O_R   0.593820 0.493770 0.362500 -0.614190
O8    O     O_R   0.593800 0.493820 0.626800 -0.633798
O9    O     O_R   0.406200 0.506180 0.373200 -0.633799
O10   O     O_2   0.473670 0.220719 0.206241 -0.569953
Zn1   Zn    Zn3+2 0.374730 0.508290 0.507150 0.933768
Zn2   Zn    Zn3+2 0.625270 0.491710 0.492850 0.933768

loop_
_geom_bond_atom_site_label_1
_geom_bond_atom_site_label_2
_ccdc_geom_bond_type
C25   C31   A    
C26   C32   A    
C16   C21   S    
C27   C29   A    
C7    C36   S    
O1    Zn1   S    
C43   H28   S    
C39   H14   S    
C42   H25   S    
C6    C48   A    
C19   C21   A    
C24   C26   A    
C5    C6    A    
C11   C14   A    
C31   H23   S    
O6    Zn1   S    
O8    Zn2   S    
C17   C20   S    
C22   C25   A    
C40   C48   S    
C3    C47   A    
C17   O9    A    
C36   H3    S    
C46   H32   S    
C37   H6    S    
C11   N2    A    
C40   H17   S    
C24   H12   S    
C12   O3    A    
C11   C43   S    
C37   H8    S    
C41   H21   S    
C38   H11   S    
C48   C50   A    
O7    Zn2   S    
C3    C39   S    
C9    C46   S    
O9    Zn1   S    
C40   H16   S    
C13   N1    A    
C39   H15   S    
C5    C49   A    
C9    N2    A    
C41   C49   S    
C13   C42   S    
C47   C50   A    
C4    C45   A    
C2    C45   A    
C32   H34   S    
C42   H24   S    
C10   C44   S    
C33   O10   D    
C23   C30   A    
C44   H30   S    
C4    C6    A    
C44   H31   S    
N1    Zn1   S    
C16   O8    A    
C29   C34   A    
C23   H36   S    
C38   H9    S    
C32   C34   A    
C2    C49   A    
C50   H39   S    
C42   H22   S    
C18   C29   A    
C2    H38   S    
C17   O7    A    
C12   O5    A    
O5    Zn1   S    
C38   H10   S    
C8    C10   A    
C20   C22   A    
C10   N1    A    
O4    Zn2   S    
C43   H27   S    
C8    C37   S    
C35   H2    S    
O3    Zn2   S    
C41   H19   S    
C35   O2    D    
C43   H26   S    
C7    C9    A    
C8    C14   A    
C44   H29   S    
C1    C47   S    
C4    C38   S    
C12   C45   S    
C3    C5    A    
C25   C27   A    
C39   H13   S    
C26   C28   A    
C46   H35   S    
C13   C15   A    
C28   C30   A    
C36   H5    S    
C19   C35   S    
C33   H40   S    
C16   O6    A    
C1    O4    A    
C7    C15   A    
C18   C20   A    
C34   H37   S    
C18   C33   S    
C36   H4    S    
N2    Zn2   S    
C46   H33   S    
C1    O1    A    
C40   H18   S    
C21   C24   A    
C27   C28   A    
C14   C15   A    
C22   H1    S    
C19   C30   A    
C37   H7    S    
C23   C31   A    
C41   H20   S    
