data_mof_unit_6753.cif
_audit_creation_date              2012-12-11T14:54:22-0500
_audit_creation_method            fapswitch 2.2
_symmetry_space_group_name_H-M    P1
_symmetry_Int_Tables_number       1
_space_group_crystal_system       triclinic
_cell_length_a                    18.96282
_cell_length_b                    10.932587
_cell_length_c                    18.855753
_cell_angle_alpha                 90.006561
_cell_angle_beta                  90.019402
_cell_angle_gamma                 90.011178
_cell_volume                      3909.03635265

loop_
_atom_site_label
_atom_site_type_symbol
_atom_type_description
_atom_site_fract_x
_atom_site_fract_y
_atom_site_fract_z
_atom_type_partial_charge
C1    C     C_R   0.727634 0.371376 0.643536 0.545788
C2    C     C_R   0.269389 0.377237 0.353799 0.541464
C3    C     C_R   0.227634 0.871376 0.643536 0.545788
C4    C     C_R   0.769389 0.877237 0.353799 0.541464
C5    C     C_3   0.437486 0.358739 0.469612 -0.246617
C6    C     C_3   0.450366 0.355988 0.548928 -0.280849
C7    C     C_3   0.937486 0.858739 0.469612 -0.246617
C8    C     C_3   0.950366 0.855987 0.548928 -0.280849
C9    C     C_R   0.704558 0.855269 0.539332 -0.153592
C10   C     C_R   0.308314 0.882058 0.462564 -0.141227
C11   C     C_R   0.204558 0.355269 0.539332 -0.153592
C12   C     C_R   0.808314 0.382058 0.462563 -0.141227
C13   C     C_R   0.706574 0.839176 0.466277 -0.142643
C14   C     C_R   0.302766 0.869926 0.535702 -0.152528
C15   C     C_R   0.206574 0.339176 0.466277 -0.142643
C16   C     C_R   0.802766 0.369925 0.535702 -0.152528
C17   C     C_R   0.748665 0.916483 0.424184 0.020914
C18   C     C_R   0.238252 0.894066 0.568611 0.032731
C19   C     C_R   0.248665 0.416483 0.424184 0.020914
C20   C     C_R   0.738252 0.394066 0.568611 0.032731
C21   C     C_R   0.784010 0.015178 0.454772 -0.142240
C22   C     C_R   0.178562 0.922722 0.527555 -0.128156
C23   C     C_R   0.284010 0.515178 0.454772 -0.142240
C24   C     C_R   0.678562 0.422722 0.527555 -0.128156
C25   C     C_R   0.783165 0.029500 0.527343 -0.126083
C26   C     C_R   0.183680 0.932171 0.455103 -0.138161
C27   C     C_R   0.283165 0.529500 0.527343 -0.126083
C28   C     C_R   0.683680 0.432171 0.455103 -0.138162
C29   C     C_R   0.745010 0.947836 0.570242 0.029368
C30   C     C_R   0.249099 0.917625 0.422484 0.028295
C31   C     C_R   0.245010 0.447836 0.570242 0.029368
C32   C     C_R   0.749098 0.417625 0.422484 0.028295
C33   C     C_R   0.473555 0.063810 0.955039 -0.136387
C34   C     C_R   0.464454 0.060000 0.027396 -0.126024
C35   C     C_R   0.973555 0.563810 0.955039 -0.136387
C36   C     C_R   0.964454 0.560001 0.027396 -0.126025
C37   C     C_R   0.481247 0.162106 0.069471 0.034172
C38   C     C_R   0.501531 0.168545 0.923480 0.028566
C39   C     C_R   0.981247 0.662106 0.069471 0.034172
C40   C     C_R   0.001531 0.668545 0.923480 0.028566
C41   C     C_R   0.503905 0.270671 0.037546 -0.146593
C42   C     C_R   0.514455 0.273771 0.964530 -0.137143
C43   C     C_R   0.003905 0.770671 0.037546 -0.146593
C44   C     C_R   0.014456 0.773771 0.964530 -0.137143
C45   C     C_R   0.537708 0.154118 0.643321 0.547213
C46   C     C_R   0.468439 0.155597 0.353154 0.547516
C47   C     C_R   0.037708 0.654118 0.643321 0.547213
C48   C     C_R   0.968439 0.655597 0.353154 0.547516
C49   C     C_R   0.816400 0.935275 0.957052 -0.137019
C50   C     C_R   0.211122 0.024212 0.027041 -0.127108
C51   C     C_R   0.316400 0.435275 0.957052 -0.137019
C52   C     C_R   0.711122 0.524212 0.027041 -0.127108
C53   C     C_R   0.821698 0.925481 0.029517 -0.126817
C54   C     C_R   0.209802 0.010771 0.954538 -0.136764
C55   C     C_R   0.321698 0.425481 0.029517 -0.126817
C56   C     C_R   0.709802 0.510772 0.954538 -0.136764
C57   C     C_R   0.762030 0.896844 0.070542 0.034916
C58   C     C_R   0.249708 0.918637 0.922732 0.029081
C59   C     C_R   0.262030 0.396844 0.070542 0.034916
C60   C     C_R   0.749708 0.418637 0.922732 0.029081
C61   C     C_R   0.697491 0.872483 0.037637 -0.146502
C62   C     C_R   0.296009 0.847065 0.963703 -0.137919
C63   C     C_R   0.197491 0.372482 0.037637 -0.146502
C64   C     C_R   0.796009 0.347065 0.963703 -0.137919
C65   C     C_R   0.691819 0.884631 0.964548 -0.137267
C66   C     C_R   0.298332 0.862260 0.036796 -0.146943
C67   C     C_R   0.191819 0.384631 0.964548 -0.137267
C68   C     C_R   0.798332 0.362260 0.036796 -0.146943
C69   C     C_R   0.750929 0.920409 0.924462 0.029568
C70   C     C_R   0.254111 0.948316 0.068862 0.034942
C71   C     C_R   0.250929 0.420409 0.924462 0.029568
C72   C     C_R   0.754111 0.448316 0.068862 0.034942
C73   C     C_R   0.739995 0.974983 0.645250 0.543369
C74   C     C_R   0.258518 0.967943 0.352110 0.548009
C75   C     C_R   0.239995 0.474984 0.645250 0.543369
C76   C     C_R   0.758518 0.467943 0.352110 0.548009
C77   C     C_R   0.730155 0.378817 0.852156 0.549449
C78   C     C_R   0.272581 0.373267 0.145342 0.548170
C79   C     C_R   0.230155 0.878817 0.852156 0.549449
C80   C     C_R   0.772581 0.873267 0.145342 0.548170
C81   C     C_R   0.531743 0.157621 0.853057 0.549751
C82   C     C_R   0.464046 0.156364 0.144413 0.547560
C83   C     C_R   0.031743 0.657621 0.853057 0.549751
C84   C     C_R   0.964046 0.656364 0.144413 0.547560
C85   C     C_R   0.741359 0.969810 0.853900 0.549822
C86   C     C_R   0.259995 0.976434 0.143671 0.547539
C87   C     C_R   0.241359 0.469810 0.853900 0.549822
C88   C     C_R   0.759996 0.476434 0.143671 0.547539
C89   C     C_R   0.505077 0.166633 0.420469 0.017154
C90   C     C_R   0.525008 0.159155 0.567562 0.023445
C91   C     C_R   0.005077 0.666633 0.420469 0.017154
C92   C     C_R   0.025008 0.659155 0.567562 0.023445
C93   C     C_R   0.498276 0.272762 0.461707 0.005271
C94   C     C_R   0.509227 0.269374 0.534153 0.005354
C95   C     C_R   0.998276 0.772762 0.461707 0.005271
C96   C     C_R   0.009227 0.769375 0.534153 0.005354
C97   C     C_R   0.543823 0.058057 0.525087 -0.145887
C98   C     C_R   0.534517 0.062129 0.451872 -0.153914
C99   C     C_R   0.043823 0.558057 0.525087 -0.145887
C100  C     C_R   0.034517 0.562129 0.451872 -0.153914
Cr1   Cr    Cr6+3 0.771950 0.169480 0.750100 1.011057
Cr2   Cr    Cr6+3 0.228050 0.169480 0.249900 1.011956
Cr3   Cr    Cr6+3 0.271950 0.669480 0.750100 1.011057
Cr4   Cr    Cr6+3 0.728050 0.669480 0.249900 1.011956
Cr5   Cr    Cr6+3 0.614930 0.323340 0.749170 1.013471
Cr6   Cr    Cr6+3 0.385070 0.323340 0.250830 1.010971
Cr7   Cr    Cr6+3 0.114930 0.823340 0.749170 1.013471
Cr8   Cr    Cr6+3 0.885070 0.823340 0.250830 1.010971
Cr9   Cr    Cr6+3 0.616590 0.010620 0.750610 1.012242
Cr10  Cr    Cr6+3 0.383410 0.010620 0.249390 1.011385
Cr11  Cr    Cr6+3 0.116590 0.510620 0.750610 1.012242
Cr12  Cr    Cr6+3 0.883410 0.510620 0.249390 1.011385
H1    H     H_    0.563180 0.974047 0.548455 0.144319
H2    H     H_    0.543755 0.979795 0.421269 0.134911
H3    H     H_    0.063180 0.474047 0.548455 0.144319
H4    H     H_    0.043755 0.479795 0.421269 0.134911
H5    H     H_    0.862779 0.961405 0.927075 0.128459
H6    H     H_    0.178752 0.095480 0.050110 0.137191
H7    H     H_    0.362779 0.461405 0.927075 0.128459
H8    H     H_    0.678752 0.595480 0.050110 0.137191
H9    H     H_    0.873174 0.939213 0.053148 0.138048
H10   H     H_    0.174372 0.067835 0.923876 0.127879
H11   H     H_    0.373174 0.439213 0.053148 0.138048
H12   H     H_    0.674372 0.567835 0.923876 0.127879
H13   H     H_    0.640527 0.872843 0.940180 0.134874
H14   H     H_    0.333593 0.806116 0.068160 0.120153
H15   H     H_    0.140527 0.372843 0.940180 0.134874
H16   H     H_    0.833593 0.306116 0.068160 0.120153
H17   H     H_    0.886589 0.815727 0.454486 0.167172
H18   H     H_    0.969634 0.944654 0.570321 0.136927
H19   H     H_    0.386589 0.315727 0.454486 0.167172
H20   H     H_    0.469634 0.444654 0.570321 0.136927
H21   H     H_    0.448150 0.449502 0.445315 0.139100
H22   H     H_    0.406555 0.313300 0.579360 0.143100
H23   H     H_    0.948150 0.949502 0.445315 0.139100
H24   H     H_    0.906555 0.813300 0.579360 0.143100
H25   H     H_    0.672850 0.794492 0.571608 0.120588
H26   H     H_    0.359594 0.870594 0.438163 0.135281
H27   H     H_    0.172850 0.294492 0.571608 0.120588
H28   H     H_    0.859594 0.370593 0.438163 0.135281
H29   H     H_    0.678881 0.761898 0.443503 0.138400
H30   H     H_    0.348633 0.843779 0.566418 0.119391
H31   H     H_    0.178881 0.261898 0.443503 0.138400
H32   H     H_    0.848633 0.343779 0.566418 0.119391
H33   H     H_    0.816202 0.076276 0.423141 0.128067
H34   H     H_    0.127185 0.937153 0.551180 0.142254
H35   H     H_    0.316202 0.576276 0.423141 0.128067
H36   H     H_    0.627185 0.437154 0.551180 0.142254
H37   H     H_    0.812457 0.105198 0.549784 0.140415
H38   H     H_    0.137239 0.958296 0.425195 0.130855
H39   H     H_    0.312457 0.605198 0.549784 0.140416
H40   H     H_    0.637239 0.458297 0.425195 0.130855
H41   H     H_    0.462415 0.982221 0.924351 0.128058
H42   H     H_    0.443659 0.976523 0.050196 0.138183
H43   H     H_    0.962415 0.482221 0.924351 0.128058
H44   H     H_    0.943659 0.476523 0.050196 0.138183
H45   H     H_    0.514675 0.351465 0.068999 0.119667
H46   H     H_    0.536389 0.355777 0.941021 0.134739
H47   H     H_    0.014675 0.851465 0.068999 0.119667
H48   H     H_    0.036390 0.855777 0.941021 0.134739
O1    O     O_R   0.787510 0.042610 0.670410 -0.528988
O2    O     O_R   0.212490 0.042610 0.329590 -0.524706
O3    O     O_R   0.287510 0.542610 0.670410 -0.528988
O4    O     O_R   0.712490 0.542610 0.329590 -0.524706
O5    O     O_R   0.556450 0.252890 0.823790 -0.504940
O6    O     O_R   0.443550 0.252890 0.176210 -0.506914
O7    O     O_R   0.056450 0.752890 0.823790 -0.504940
O8    O     O_R   0.943550 0.752890 0.176210 -0.506914
O9    O     O_R   0.545750 0.051070 0.830560 -0.523498
O10   O     O_R   0.454250 0.051070 0.169440 -0.527353
O11   O     O_R   0.045750 0.551070 0.830560 -0.523498
O12   O     O_R   0.954250 0.551070 0.169440 -0.527353
O13   O     O_R   0.681210 0.959150 0.825320 -0.505681
O14   O     O_R   0.318790 0.959150 0.174680 -0.507922
O15   O     O_R   0.181210 0.459150 0.825320 -0.505681
O16   O     O_R   0.818790 0.459150 0.174680 -0.507922
O17   O     O_3   0.667820 0.167810 0.749960 -0.247716
O18   O     O_3   0.332180 0.167810 0.250040 -0.248022
O19   O     O_3   0.167820 0.667810 0.749960 -0.247716
O20   O     O_3   0.832180 0.667810 0.250040 -0.248022
O21   O     O_R   0.765670 0.292090 0.675090 -0.508047
O22   O     O_R   0.234330 0.292090 0.324910 -0.504231
O23   O     O_R   0.265670 0.792090 0.675090 -0.508047
O24   O     O_R   0.734330 0.792090 0.324910 -0.504231
O25   O     O_R   0.670220 0.409020 0.668560 -0.529168
O26   O     O_R   0.329780 0.409020 0.331440 -0.528831
O27   O     O_R   0.170220 0.909020 0.668560 -0.529167
O28   O     O_R   0.829780 0.909020 0.331440 -0.528831
O29   O     O_R   0.556580 0.251590 0.674980 -0.501482
O30   O     O_R   0.443420 0.251590 0.325020 -0.500834
O31   O     O_R   0.056580 0.751590 0.674980 -0.501482
O32   O     O_R   0.943420 0.751590 0.325020 -0.500834
O33   O     O_R   0.545890 0.049670 0.670030 -0.528115
O34   O     O_R   0.454110 0.049670 0.329970 -0.524290
O35   O     O_R   0.045890 0.549670 0.670030 -0.528115
O36   O     O_R   0.954110 0.549670 0.329970 -0.524290
O37   O     O_R   0.681340 0.957860 0.676500 -0.507096
O38   O     O_R   0.318660 0.957860 0.323500 -0.505887
O39   O     O_R   0.181340 0.457860 0.676500 -0.507096
O40   O     O_R   0.818660 0.457860 0.323500 -0.505887
O41   O     O_R   0.787380 0.044010 0.830940 -0.524293
O42   O     O_R   0.212620 0.044010 0.169060 -0.527521
O43   O     O_R   0.287380 0.544010 0.830940 -0.524293
O44   O     O_R   0.712620 0.544010 0.169060 -0.527521
O45   O     O_R   0.765540 0.293390 0.823910 -0.505059
O46   O     O_R   0.234460 0.293390 0.176090 -0.506908
O47   O     O_R   0.265540 0.793390 0.823910 -0.505059
O48   O     O_R   0.734460 0.793390 0.176090 -0.506908
O49   O     O_R   0.670090 0.410410 0.829090 -0.524217
O50   O     O_R   0.329910 0.410410 0.170910 -0.527533
O51   O     O_R   0.170090 0.910410 0.829090 -0.524217
O52   O     O_R   0.829910 0.910410 0.170910 -0.527533
H49   H     H_    0.651685 0.846012 0.068333 0.120164
H50   H     H_    0.327247 0.774887 0.940010 0.134933
H51   H     H_    0.151685 0.346012 0.068333 0.120164
H52   H     H_    0.827247 0.274887 0.940010 0.134933

loop_
_geom_bond_atom_site_label_1
_geom_bond_atom_site_label_2
_ccdc_geom_bond_type
C58   C62   A    
C82   O10   A    
C93   C94   A    
C48   O36   A    
C55   C59   A    
C8    H24   S    
C34   C37   A    
C41   C42   A    
C14   C18   A    
Cr9   O37   S    
C95   C96   A    
C8    C96   S    
C14   H30   S    
C97   C98   A    
C69   C85   S    
C7    C8    S    
C46   C89   S    
Cr4   O20   S    
C79   O51   A    
C50   C54   A    
C61   H49   S    
C51   H7    S    
C37   C41   A    
Cr11  O15   S    
C56   H12   S    
C1    O21   A    
C47   O35   A    
C16   H32   S    
C35   H43   S    
C39   C84   S    
C38   C42   A    
C43   H47   S    
C99   H3    S    
C5    C6    S    
C30   C74   S    
Cr9   O13   S    
C98   H2    S    
Cr10  O38   S    
Cr10  O18   S    
C2    O26   A    
Cr6   O50   S    
Cr7   O27   S    
C92   C96   A    
Cr5   O49   S    
Cr8   O20   S    
C3    C18   S    
C75   O3    A    
C47   C92   S    
C5    H19   S    
Cr5   O25   S    
Cr8   O52   S    
C9    C13   A    
Cr12  O36   S    
C11   H27   S    
C77   O49   A    
Cr11  O39   S    
C9    H25   S    
C49   H5    S    
C22   H34   S    
C6    C94   S    
C48   C91   S    
C83   O11   A    
Cr10  O34   S    
C85   O13   A    
C12   H28   S    
Cr9   O33   S    
C23   C27   A    
C91   C100  A    
C78   O50   A    
C90   C97   A    
Cr3   O19   S    
C85   O41   A    
Cr12  O20   S    
Cr7   O19   S    
Cr10  O14   S    
Cr8   O8    S    
C11   C31   A    
C49   C69   A    
C12   C32   A    
Cr11  O19   S    
C62   H50   S    
C40   C83   S    
C87   O15   A    
C42   H46   S    
C11   C15   A    
Cr2   O18   S    
C46   O30   A    
C59   C78   S    
C87   O43   A    
C72   C88   S    
Cr9   O9    S    
C90   C94   A    
C55   H11   S    
C75   O39   A    
C34   H42   S    
C45   O33   A    
C41   H45   S    
Cr7   O7    S    
C60   C77   S    
C59   C63   A    
C2    O22   A    
C62   C66   A    
C27   C31   A    
Cr2   O22   S    
C12   C16   A    
C28   C32   A    
Cr6   O26   S    
C6    H20   S    
C24   H36   S    
Cr5   O17   S    
C74   O2    A    
C53   C57   A    
C19   C23   A    
C39   C43   A    
C51   C55   A    
C86   O42   A    
C83   O7    A    
C73   O1    A    
C88   O44   A    
C74   O38   A    
C66   H14   S    
C46   O34   A    
C73   O37   A    
C68   C72   A    
C86   O14   A    
C35   C36   A    
C65   H13   S    
C15   C19   A    
C43   C44   A    
C78   O46   A    
C63   C67   A    
C7    H23   S    
C15   H31   S    
C52   C72   A    
C77   O45   A    
C10   C30   A    
C31   C75   S    
C99   C100  A    
C26   H38   S    
C16   C20   A    
C33   C34   A    
C5    H21   S    
C4    O24   A    
C57   C61   A    
C45   C90   S    
Cr2   O46   S    
Cr1   O45   S    
C58   C79   S    
C54   H10   S    
C71   C87   S    
C4    C17   S    
C52   H8    S    
Cr4   O44   S    
C45   O29   A    
C80   O48   A    
C57   C80   S    
C26   C30   A    
C1    O25   A    
Cr4   O24   S    
C38   C81   S    
C76   O40   A    
C68   H16   S    
C44   H48   S    
Cr3   O23   S    
C37   C82   S    
C76   O4    A    
C21   H33   S    
Cr6   O30   S    
C97   H1    S    
C70   C86   S    
C64   C68   A    
Cr1   O21   S    
Cr2   O2    S    
C36   H44   S    
C54   C58   A    
C80   O52   A    
C65   C69   A    
C21   C25   A    
C1    C20   S    
C27   H39   S    
Cr12  O16   S    
C2    C19   S    
C50   H6    S    
Cr3   O3    S    
C13   H29   S    
Cr8   O28   S    
C36   C39   A    
C24   C28   A    
C25   H37   S    
Cr3   O47   S    
C84   O12   A    
C3    O27   A    
C32   C76   S    
C5    C93   S    
Cr11  O11   S    
C51   C71   A    
C47   O31   A    
C28   H40   S    
C9    C29   A    
Cr12  O40   S    
C7    C95   S    
C67   H15   S    
C81   O9    A    
C88   O16   A    
C13   C17   A    
C89   C98   A    
C60   C64   A    
C82   O6    A    
C100  H4    S    
C4    O28   A    
C18   C22   A    
C35   C40   A    
C50   C70   A    
C33   H41   S    
C6    H22   S    
C53   H9    S    
C7    H17   S    
C56   C60   A    
Cr7   O51   S    
C8    H18   S    
C25   C29   A    
Cr4   O4    S    
C66   C70   A    
C23   H35   S    
Cr6   O6    S    
C79   O47   A    
Cr1   O1    S    
Cr5   O29   S    
Cr5   O5    S    
C67   C71   A    
Cr4   O48   S    
C89   C93   A    
C20   C24   A    
Cr3   O43   S    
C48   O32   A    
C49   C53   A    
Cr1   O17   S    
C91   C95   A    
C10   C14   A    
C61   C65   A    
C40   C44   A    
C29   C73   S    
C84   O8    A    
Cr10  O10   S    
Cr2   O42   S    
C22   C26   A    
Cr7   O31   S    
Cr9   O17   S    
C81   O5    A    
Cr8   O32   S    
C33   C38   A    
Cr1   O41   S    
C10   H26   S    
C63   H51   S    
C3    O23   A    
Cr6   O18   S    
C64   H52   S    
C52   C56   A    
C92   C99   A    
Cr11  O35   S    
Cr12  O12   S    
C17   C21   A    
