data_mof_unit_15503.cif
_audit_creation_date              2012-12-10T17:23:12-0500
_audit_creation_method            fapswitch 2.2
_symmetry_space_group_name_H-M    P1
_symmetry_Int_Tables_number       1
_space_group_crystal_system       triclinic
_cell_length_a                    15.870558
_cell_length_b                    10.818494
_cell_length_c                    9.644152
_cell_angle_alpha                 89.48129
_cell_angle_beta                  89.851377
_cell_angle_gamma                 92.328725
_cell_volume                      1654.41529088

loop_
_atom_site_label
_atom_site_type_symbol
_atom_type_description
_atom_site_fract_x
_atom_site_fract_y
_atom_site_fract_z
_atom_type_partial_charge
C1    C     C_R   0.506876 0.263207 0.500998 0.821990
C2    C     C_3   0.083326 0.501930 0.500989 0.086458
C3    C     C_3   0.974188 0.576287 0.600462 -0.058273
C4    C     C_3   0.916519 0.502739 0.500256 0.022486
C5    C     C_3   0.032135 0.619026 0.478146 -0.212897
C6    C     C_3   0.974050 0.543391 0.378305 0.017347
C7    C     C_1   0.174965 0.501146 0.500826 -0.010834
C8    C     C_1   0.824852 0.502965 0.499670 -0.009157
C9    C     C_R   0.556712 0.106890 0.755256 -0.066046
C10   C     C_R   0.535505 0.043722 0.881150 -0.100110
C11   C     C_R   0.477735 0.941420 0.878337 -0.013773
C12   C     C_R   0.340103 0.499719 0.500151 0.829073
C13   C     C_R   0.457561 0.886889 0.752048 -0.191058
C14   C     C_R   0.489784 0.938243 0.627830 0.058454
C15   C     C_R   0.521436 0.060988 0.629260 0.035695
C16   C     C_R   0.516287 0.129282 0.503393 -0.066040
C17   C     C_R   0.507678 0.065833 0.378170 -0.161065
C18   C     C_R   0.504670 0.938140 0.377676 -0.179400
C19   C     C_R   0.492467 0.872474 0.501807 -0.093313
C20   C     C_R   0.610116 0.666330 0.141422 -0.134567
C21   C     C_R   0.663261 0.748838 0.068608 -0.189878
C22   C     C_R   0.663570 0.748662 0.925734 -0.188780
C23   C     C_R   0.495503 0.737464 0.500066 0.771481
C24   C     C_R   0.610669 0.666072 0.854679 -0.124581
C25   C     C_R   0.554136 0.581802 0.924325 0.211918
C26   C     C_R   0.554004 0.581827 0.073581 0.226410
C27   C     C_R   0.448947 0.421772 0.075451 -0.065076
C28   C     C_R   0.448728 0.421482 0.927983 0.059531
C29   C     C_R   0.659849 0.501165 0.499836 0.813959
C30   C     C_3   0.968779 0.387746 0.522799 -0.042456
C31   C     C_3   0.026559 0.427083 0.399077 -0.213302
C32   C     C_1   0.250461 0.500409 0.500562 -0.147408
C33   C     C_1   0.749405 0.502505 0.499467 -0.134191
C34   C     C_3   0.026354 0.461094 0.623487 -0.057258
Cu1   Cu    Cu3+1 0.499990 0.499990 0.640660 0.970526
Cu2   Cu    Cu3+1 0.500010 0.500010 0.359340 0.973369
H1    H     H_    0.048791 0.365899 0.315920 0.170395
H2    H     H_    0.415983 0.804976 0.751526 0.171986
H3    H     H_    0.510534 0.891266 0.280355 0.189439
H4    H     H_    0.407243 0.357727 0.132318 0.138293
H5    H     H_    0.616094 0.672596 0.250657 0.195181
H6    H     H_    0.705006 0.812851 0.123785 0.180697
H7    H     H_    0.705512 0.812614 0.869182 0.175779
H8    H     H_    0.617176 0.672433 0.745352 0.197600
H9    H     H_    0.058968 0.714168 0.459777 0.177767
H10   H     H_    0.503643 0.114824 0.280571 0.182218
N1    N     N_R   0.500800 0.501210 0.147910 -0.198644
N2    N     N_R   0.500830 0.501290 0.852040 -0.213836
O1    O     O_R   0.499990 0.319640 0.618810 -0.580335
O2    O     O_R   0.500000 0.319660 0.381240 -0.580649
O3    O     O_R   0.379070 0.499980 0.618770 -0.575137
O4    O     O_R   0.379080 0.500000 0.381190 -0.568304
O5    O     O_R   0.500000 0.680340 0.618760 -0.618788
O6    O     O_R   0.500010 0.680360 0.381190 -0.595620
O7    O     O_R   0.620920 0.500000 0.618810 -0.581426
O8    O     O_R   0.620930 0.500020 0.381230 -0.578285
C35   C     C_1   0.440601 0.885556 0.001510 0.220891
N3    N     N_1   0.408522 0.838958 0.097445 -0.283425
C36   C     C_1   0.392434 0.334522 0.859299 0.307674
N4    N     N_1   0.347011 0.264187 0.804772 -0.278247
C37   C     C_1   0.933553 0.261829 0.547035 0.284062
N5    N     N_1   0.905724 0.162612 0.566176 -0.230039
C38   C     C_2   0.943472 0.587623 0.240457 0.863097
O9    O     O_2   0.964521 0.691203 0.198299 -0.573269
O10   O     O_R   0.890846 0.509827 0.160971 -0.736237
H11   H     H_    0.874054 0.549770 0.070178 0.348689
C39   C     C_1   0.944738 0.657209 0.710347 0.272327
N6    N     N_1   0.921428 0.720854 0.796999 -0.244273
C40   C     C_1   0.055905 0.416160 0.758337 0.271424
N7    N     N_1   0.079179 0.380838 0.864584 -0.244271
C41   C     C_2   0.626538 0.203343 0.751304 0.881660
O11   O     O_2   0.634919 0.278333 0.844922 -0.571592
O12   O     O_R   0.683041 0.207469 0.639729 -0.761165
H12   H     H_    0.729442 0.273741 0.650782 0.335871
C42   C     C_1   0.580644 0.073143 0.007420 0.263757
N8    N     N_1   0.619063 0.096545 0.106180 -0.254497

loop_
_geom_bond_atom_site_label_1
_geom_bond_atom_site_label_2
_ccdc_geom_bond_type
C38   O10   S    
Cu1   O5    S    
O12   H12   S    
C2    C7    S    
C42   N8    T    
C20   H5    S    
C5    C6    S    
C15   C16   A    
C29   C33   S    
Cu2   N1    S    
C18   C19   A    
Cu1   Cu2   S    
C16   C17   A    
Cu1   O1    S    
C13   C14   A    
C1    O2    A    
Cu2   O4    S    
C4    C8    S    
C2    C34   S    
C6    C31   S    
C36   N4    T    
C21   C22   A    
C12   C32   S    
C40   N7    T    
Cu1   N2    S    
C12   O4    A    
C23   O5    A    
C30   C34   S    
Cu1   O7    S    
C39   N6    T    
C17   H10   S    
C4    C6    S    
C41   O12   S    
C29   O7    A    
C3    C34   S    
C25   C26   A    
C5    H9    S    
C21   H6    S    
C2    C31   S    
C6    C38   S    
C19   C23   S    
C18   H3    S    
Cu2   O8    S    
C10   C42   S    
C22   H7    S    
C34   C40   S    
C27   H4    S    
C17   C18   A    
C1    C16   S    
C24   C25   A    
C25   N2    A    
C13   H2    S    
C26   N1    A    
Cu1   O3    S    
C24   H8    S    
C22   C24   A    
C2    C5    S    
C3    C4    S    
C12   O3    A    
Cu2   O2    S    
C23   O6    A    
C9    C10   A    
C28   C36   S    
C27   N1    A    
C28   N2    A    
C7    C32   T    
C14   C19   A    
C3    C39   S    
C9    C41   S    
C3    C5    S    
C29   O8    A    
C9    C15   A    
C41   O11   D    
C11   C13   A    
C35   N3    T    
C30   C31   S    
C20   C26   A    
C8    C33   T    
C37   N5    T    
Cu2   O6    S    
C10   C11   A    
C38   O9    D    
C31   H1    S    
C20   C21   A    
O10   H11   S    
C30   C37   S    
C27   C28   A    
C14   C15   A    
C11   C35   S    
C1    O1    A    
C4    C30   S    
