data_mof_unit_28346.cif
_audit_creation_date              2012-12-10T16:59:14-0500
_audit_creation_method            fapswitch 2.2
_symmetry_space_group_name_H-M    P1
_symmetry_Int_Tables_number       1
_space_group_crystal_system       triclinic
_cell_length_a                    7.735968
_cell_length_b                    8.554911
_cell_length_c                    27.712586
_cell_angle_alpha                 90.7957
_cell_angle_beta                  86.462378
_cell_angle_gamma                 93.654601
_cell_volume                      1826.7247981

loop_
_atom_site_label
_atom_site_type_symbol
_atom_type_description
_atom_site_fract_x
_atom_site_fract_y
_atom_site_fract_z
_atom_type_partial_charge
C1    C     C_R   0.545881 0.794830 0.498731 0.976481
C2    C     C_R   0.518824 0.642432 0.127738 -0.004810
C3    C     C_R   0.511902 0.497608 0.646398 -0.041263
C4    C     C_R   0.488094 0.502361 0.353599 -0.041310
C5    C     C_R   0.544734 0.640477 0.025640 0.080356
C6    C     C_R   0.455269 0.359405 0.974364 0.080358
C7    C     C_R   0.436130 0.362881 0.025619 -0.012429
C8    C     C_R   0.563842 0.637009 0.974384 -0.012416
C9    C     C_R   0.483848 0.502330 0.051015 0.080879
C10   C     C_R   0.516137 0.497555 0.948989 0.080876
C11   C     C_R   0.582229 0.778765 0.052637 -0.207856
C12   C     C_R   0.454119 0.205170 0.501269 0.976483
C13   C     C_R   0.417829 0.221103 0.947369 -0.207885
C14   C     C_R   0.571778 0.778738 0.102584 -0.053845
C15   C     C_R   0.428297 0.221121 0.897421 -0.053826
C16   C     C_R   0.503371 0.499629 0.593919 0.875752
C17   C     C_R   0.496629 0.500369 0.406080 0.875752
C18   C     C_R   0.633637 0.767991 0.947586 -0.280328
C19   C     C_R   0.366294 0.231910 0.052415 -0.280315
C20   C     C_2   0.570155 0.958286 0.498001 -0.370028
C21   C     C_2   0.429845 0.041714 0.501999 -0.370032
C22   C     C_R   0.589845 0.626885 0.820731 0.553907
C23   C     C_R   0.529390 0.495898 0.897648 -0.109278
C24   C     C_R   0.410060 0.373011 0.179273 0.553932
C25   C     C_R   0.486710 0.358007 0.821899 0.536309
C26   C     C_R   0.513350 0.641848 0.178105 0.536356
C27   C     C_R   0.367915 0.495785 0.726331 -0.090054
C28   C     C_R   0.632013 0.503254 0.273657 -0.090189
C29   C     C_R   0.359119 0.498535 0.676459 -0.199079
C30   C     C_R   0.640810 0.500557 0.323530 -0.198969
C31   C     C_R   0.673358 0.493983 0.666879 -0.207876
C32   C     C_R   0.326708 0.506801 0.333124 -0.207882
C33   C     C_R   0.681688 0.491618 0.716771 -0.077744
C34   C     C_R   0.470595 0.503983 0.102356 -0.109271
C35   C     C_R   0.318381 0.509109 0.283231 -0.077828
C36   C     C_R   0.529040 0.492448 0.746403 0.302546
C37   C     C_R   0.470959 0.507413 0.253595 0.302734
C38   C     C_R   0.589936 0.632090 0.871615 -0.118314
C39   C     C_R   0.410002 0.367800 0.128387 -0.118351
C40   C     C_R   0.646777 0.767153 0.897420 0.436505
C41   C     C_R   0.353145 0.232745 0.102581 0.436520
C42   C     C_R   0.481212 0.357434 0.872267 -0.004799
Cl1   Cl    Cl    0.742269 0.939959 0.870098 -0.540865
Cl2   Cl    Cl    0.257668 0.059930 0.129901 -0.540865
H1    H     H_    0.793076 0.493435 0.644457 0.160462
H2    H     H_    0.249935 0.496891 0.749478 0.144271
H3    H     H_    0.605512 0.887153 0.121468 0.215228
H4    H     H_    0.394603 0.112695 0.878539 0.215264
H5    H     H_    0.618894 0.890732 0.036617 0.147798
H6    H     H_    0.381213 0.109129 0.963391 0.147797
H7    H     H_    0.683306 0.874074 0.964456 0.177192
H8    H     H_    0.316595 0.125842 0.035543 0.177204
H9    H     H_    0.702642 0.009405 0.494187 0.181127
H10   H     H_    0.297358 0.990595 0.505813 0.181126
H11   H     H_    0.207041 0.508057 0.355550 0.160554
H12   H     H_    0.014051 0.383459 0.463465 0.192186
H13   H     H_    0.985949 0.616541 0.536535 0.192165
H14   H     H_    0.806277 0.489231 0.732475 0.142519
H15   H     H_    0.193850 0.512141 0.267530 0.142468
H16   H     H_    0.766693 0.497393 0.338450 0.161997
H17   H     H_    0.233184 0.501031 0.661532 0.161983
H18   H     H_    0.749931 0.501479 0.250504 0.144206
N1    N     N_R   0.537232 0.491941 0.797573 -0.372266
N2    N     N_R   0.462754 0.507930 0.202428 -0.372301
N3    N     N_2   0.950320 0.457960 0.486880 -0.175565
N4    N     N_2   0.049680 0.542040 0.513120 -0.175565
O1    O     O_R   0.389250 0.738570 0.503220 -0.611116
O2    O     O_2   0.362218 0.244798 0.205779 -0.458974
O3    O     O_2   0.559443 0.773637 0.202801 -0.505542
O4    O     O_2   0.440725 0.226184 0.797204 -0.505529
O5    O     O_R   0.610750 0.261430 0.496780 -0.611113
O6    O     O_R   0.678390 0.711630 0.494810 -0.629254
O7    O     O_R   0.321610 0.288370 0.505190 -0.629252
O8    O     O_R   0.355440 0.513440 0.575450 -0.620557
O9    O     O_R   0.644560 0.486560 0.424550 -0.620565
O10   O     O_R   0.644590 0.486500 0.567040 -0.630596
O11   O     O_R   0.355410 0.513500 0.432960 -0.630617
O12   O     O_2   0.637551 0.755138 0.794229 -0.458994
Zn1   Zn    Zn3+2 0.306940 0.517990 0.505620 0.952106
Zn2   Zn    Zn3+2 0.693060 0.482010 0.494380 0.952112

loop_
_geom_bond_atom_site_label_1
_geom_bond_atom_site_label_2
_ccdc_geom_bond_type
C33   H14   S    
C27   C29   A    
H13   N4    S    
C33   C36   A    
C39   C41   A    
N4    Zn1   S    
C23   C42   A    
C16   O8    A    
C35   C37   A    
C5    C11   A    
C21   H10   S    
C11   C14   A    
H12   N3    S    
C22   C38   A    
C24   C39   A    
C35   H15   S    
C25   N1    A    
C3    C29   A    
C26   N2    A    
C18   C40   A    
C22   N1    A    
C14   H3    S    
C19   H8    S    
C40   Cl1   S    
C30   H16   S    
C31   C33   A    
C36   N1    S    
O9    Zn2   S    
C32   H11   S    
C2    C34   A    
C24   N2    A    
N3    Zn2   S    
C12   O7    A    
C15   H4    S    
O5    Zn2   S    
C18   H7    S    
O11   Zn1   S    
C29   H17   S    
C1    O6    A    
C34   C39   A    
C32   C35   A    
O1    Zn1   S    
C22   O12   S    
C12   C21   S    
C8    C18   A    
C5    C9    A    
C11   H5    S    
C17   O11   A    
O7    Zn1   S    
C2    C26   A    
C3    C31   A    
C4    C32   A    
C4    C17   S    
C27   H2    S    
C12   O5    A    
C7    C19   A    
O8    Zn1   S    
C13   C15   A    
C9    C34   A    
C10   C23   A    
C41   Cl2   S    
C37   N2    S    
C7    C9    A    
C1    C20   S    
C16   O10   A    
O10   Zn2   S    
C15   C42   A    
C20   H9    S    
C25   C42   A    
C6    C10   A    
C5    C8    A    
C6    C7    A    
C27   C36   A    
C23   C38   A    
C28   C30   A    
O6    Zn2   S    
C6    C13   A    
C38   C40   A    
C28   C37   A    
C1    O1    A    
C2    C14   A    
C24   O2    S    
C13   H6    S    
C20   C21   D    
C8    C10   A    
N3    N4    D    
C31   H1    S    
C17   O9    A    
C26   O3    S    
C25   O4    S    
C4    C30   A    
C3    C16   S    
C19   C41   A    
C28   H18   S    
