data_mof_unit_32644.cif
_audit_creation_date              2013-03-05T16:18:24-0500
_audit_creation_method            fapswitch 2.2
_symmetry_space_group_name_H-M    P1
_symmetry_Int_Tables_number       1
_space_group_crystal_system       triclinic
_cell_length_a                    10.787176
_cell_length_b                    10.302072
_cell_length_c                    10.674626
_cell_angle_alpha                 89.145576
_cell_angle_beta                  94.947247
_cell_angle_gamma                 90.486011
_cell_volume                      1181.69231915

loop_
_atom_site_label
_atom_site_type_symbol
_atom_site_description
_atom_site_fract_x
_atom_site_fract_y
_atom_site_fract_z
_atom_type_partial_charge
O1    O     O_R   0.314910 0.616040 0.499970 -0.560233
O2    O     O_R   0.314910 0.383960 0.499970 -0.582668
C1    C     C_R   0.258452 0.499634 0.499470 0.870956
O3    O     O_R   0.500080 0.616020 0.313900 -0.526913
O4    O     O_R   0.500080 0.383980 0.313900 -0.576416
C2    C     C_R   0.484037 0.500972 0.257985 0.969194
Zn1   Zn    Zn3+2 0.500150 0.654960 0.499940 1.114516
Zn2   Zn    Zn3+2 0.500150 0.345040 0.499940 1.109273
O5    O     O_R   0.685320 0.616040 0.499930 -0.561601
O6    O     O_R   0.685320 0.383960 0.499930 -0.548025
O7    O     O_R   0.500150 0.616060 0.686000 -0.579093
O8    O     O_R   0.500150 0.383940 0.686000 -0.556394
C3    C     C_R   0.740642 0.500664 0.509097 0.872274
C4    C     C_R   0.507542 0.499954 0.741221 0.934730
C5    C     C_3   0.422238 0.610544 0.020994 0.378766
C6    C     C_3   0.424401 0.395624 0.025711 0.369814
C7    C     C_3   0.380400 0.501398 0.928696 -0.388873
H1    H     H_    0.290835 0.499352 0.868578 0.206591
C8    C     C_3   0.508067 0.502392 0.877082 -0.267927
C9    C     C_3   0.549454 0.611429 0.967269 0.292584
C10   C     C_3   0.552173 0.398314 0.972504 0.308633
C11   C     C_3   0.595441 0.506923 0.064664 -0.353896
C12   C     C_3   0.466749 0.504198 0.118552 -0.220999
H2    H     H_    0.687215 0.509783 0.120689 0.218505
C13   C     C_3   0.077169 0.620113 0.572215 -0.380923
C14   C     C_3   0.076230 0.382601 0.576949 -0.383132
H3    H     H_    0.098058 0.709874 0.523336 0.275209
H4    H     H_    0.104610 0.290365 0.539020 0.284749
H5    H     H_    0.126915 0.623343 0.667974 0.222145
H6    H     H_    0.118710 0.387209 0.675721 0.214079
C15   C     C_3   0.936284 0.619576 0.583037 -0.314738
C16   C     C_3   0.934913 0.380142 0.575823 -0.280564
H7    H     H_    0.917408 0.613004 0.683818 0.234770
H8    H     H_    0.908032 0.370962 0.673911 0.226331
H9    H     H_    0.897484 0.712300 0.543176 0.278762
H10   H     H_    0.902405 0.293814 0.525072 0.300516
H11   H     H_    0.874729 0.612882 0.338108 0.250836
H12   H     H_    0.850991 0.447567 0.311894 0.209083
C17   C     C_3   0.050093 0.499677 0.360177 0.440580
C18   C     C_3   0.119113 0.499874 0.499090 -0.097958
C19   C     C_3   0.877292 0.503233 0.510458 -0.037190
C20   C     C_3   0.908047 0.516728 0.372332 -0.428763
C21   C     C_3   0.370396 0.081713 0.509169 0.307427
C22   C     C_3   0.370518 0.922449 0.511609 0.324333
C23   C     C_3   0.553971 0.081838 0.379350 0.252574
C24   C     C_3   0.559970 0.919399 0.380826 0.274175
C25   C     C_3   0.569278 0.070572 0.616283 0.039877
C26   C     C_3   0.578468 0.914863 0.608480 -0.024006
N1    N     N_3   0.499750 0.138610 0.497240 -0.247847
N2    N     N_3   0.499750 0.861390 0.497240 -0.261037
H13   H     H_    0.511979 0.079779 0.695781 0.169519
H14   H     H_    0.539180 0.878888 0.694965 0.207871
Br1   Br    Br    0.241222 0.157160 0.391825 -0.173062
Br2   Br    Br    0.228854 0.862839 0.400579 -0.154506
Br3   Br    Br    0.296704 0.152717 0.659172 -0.349257
Br4   Br    Br    0.305459 0.849851 0.666314 -0.363475
N3    N     N_R   0.477812 0.126848 0.262244 0.241597
O9    O     O_R   0.375908 0.068844 0.218876 -0.236507
O10   O     O_R   0.528948 0.197970 0.179842 -0.291753
N4    N     N_R   0.498118 0.876697 0.259417 0.260136
O11   O     O_R   0.397433 0.809139 0.247960 -0.250408
O12   O     O_R   0.549522 0.906675 0.156615 -0.222137
N5    N     N_R   0.681655 0.130451 0.680547 0.308132
O13   O     O_R   0.736869 0.067633 0.776217 -0.222961
O14   O     O_R   0.693739 0.254714 0.684703 -0.338994
N6    N     N_R   0.704927 0.858768 0.625492 0.267839
O15   O     O_R   0.804747 0.926991 0.611136 -0.245833
O16   O     O_R   0.719912 0.752532 0.691650 -0.362442
N7    N     N_R   0.681032 0.136284 0.369188 0.259938
O17   O     O_R   0.732181 0.135346 0.262771 -0.186523
O18   O     O_R   0.757201 0.147541 0.468121 -0.323560
N8    N     N_R   0.687877 0.862019 0.373207 0.244962
O19   O     O_R   0.695572 0.754822 0.311636 -0.339144
O20   O     O_R   0.791456 0.927098 0.383452 -0.219011
Br5   Br    Br    0.300713 0.749068 0.002062 -0.120250
Br6   Br    Br    0.301471 0.257039 0.016586 -0.127828
Br7   Br    Br    0.652796 0.762707 0.947697 -0.170501
Br8   Br    Br    0.668398 0.259590 0.961020 -0.157648
N9    N     N_R   0.099401 0.605925 0.282497 0.218886
O21   O     O_R   0.027660 0.694723 0.227268 -0.259178
O22   O     O_R   0.213673 0.601226 0.252758 -0.332595
N10   N     N_R   0.065470 0.375231 0.295861 0.214653
O23   O     O_R   0.124147 0.372248 0.194541 -0.259869
O24   O     O_R   0.996716 0.274778 0.319904 -0.288179

loop_
_geom_bond_atom_site_label_1
_geom_bond_atom_site_label_2
_geom_bond_distance
_ccdc_geom_bond_type
C13   C15   1.533994 S    
N6    O16   1.297289 A    
N5    O14   1.286721 A    
C14   C16   1.523414 S    
C6    C10   1.535243 S    
C19   C20   1.543010 S    
C5    Br5   1.942510 S    
C8    C9    1.528919 S    
C3    C19   1.472904 S    
C25   N1    1.576887 S    
C23   C24   1.675044 S    
Zn1   O7    2.020283 S    
C23   N3    1.504872 S    
C9    Br7   1.927746 S    
C16   H10   1.087992 S    
N4    O12   1.303457 A    
C8    C10   1.518574 S    
H12   C20   1.113765 S    
C13   C18   1.564501 S    
C25   N5    1.475508 S    
O4    C2    1.342809 A    
O7    C4    1.325535 A    
N3    O10   1.293233 A    
Zn1   O5    2.040646 S    
H11   C20   1.102946 S    
N7    O18   1.286943 A    
O5    C3    1.333037 A    
C21   Br1   1.950150 S    
C6    C7    1.541268 S    
C10   Br8   1.921318 S    
C16   C19   1.547068 S    
C15   H7    1.113003 S    
C24   N8    1.514725 S    
C26   N2    1.507386 S    
N6    O15   1.299737 A    
C6    Br6   1.938059 S    
C10   C11   1.543488 S    
O3    Zn1   2.031811 S    
C17   C20   1.560477 S    
C13   H5    1.113575 S    
C5    C9    1.532171 S    
C23   N7    1.488555 S    
C17   N10   1.480545 S    
N8    O20   1.295484 A    
C17   C18   1.600879 S    
N9    O22   1.300599 A    
C21   N1    1.523606 S    
C25   H13   1.097740 S    
N5    O13   1.303231 A    
N4    O11   1.282885 A    
O1    C1    1.340263 A    
C17   N9    1.485835 S    
C21   C22   1.640573 S    
C22   Br4   1.983239 S    
C25   C26   1.611862 S    
C23   N1    1.556444 S    
Zn2   O8    2.031999 S    
C7    H1    1.113026 S    
O3    C2    1.338198 A    
C9    C11   1.540406 S    
C1    C18   1.502756 S    
C14   H6    1.114320 S    
C6    C12   1.545399 S    
N10   O24   1.303374 A    
C11   H2    1.111979 S    
C22   N2    1.554740 S    
C5    C7    1.544825 S    
C15   C19   1.539964 S    
C24   N4    1.476879 S    
O1    Zn1   2.034736 S    
C4    C8    1.450376 S    
O2    Zn2   2.041407 S    
Zn1   N2    2.126459 S    
O8    C4    1.339245 A    
N8    O19   1.300417 A    
O6    C3    1.338840 A    
O4    Zn2   2.020086 S    
C21   Br3   1.998811 S    
C13   H3    1.086491 S    
C24   N2    1.560089 S    
C14   H4    1.094695 S    
O2    C1    1.342616 A    
C14   C18   1.546372 S    
N3    O9    1.299655 A    
C2    C12   1.483901 S    
C5    C12   1.550481 S    
C7    C8    1.526669 S    
C15   H9    1.110254 S    
N7    O17   1.305168 A    
N9    O21   1.304063 A    
C22   Br2   1.952042 S    
C26   H14   1.106294 S    
Zn2   O6    2.033977 S    
N10   O23   1.300286 A    
C11   C12   1.547721 S    
C26   N6    1.481653 S    
Zn2   N1    2.127245 S    
C16   H8    1.112792 S    
