data_mof_unit_15797.cif
_audit_creation_date              2012-12-10T17:36:47-0500
_audit_creation_method            fapswitch 2.2
_symmetry_space_group_name_H-M    P1
_symmetry_Int_Tables_number       1
_space_group_crystal_system       triclinic
_cell_length_a                    10.607094
_cell_length_b                    12.339576
_cell_length_c                    13.209903
_cell_angle_alpha                 116.749677
_cell_angle_beta                  77.375703
_cell_angle_gamma                 101.492514
_cell_volume                      1496.51471263

loop_
_atom_site_label
_atom_site_type_symbol
_atom_type_description
_atom_site_fract_x
_atom_site_fract_y
_atom_site_fract_z
_atom_type_partial_charge
C1    C     C_R   0.511721 0.854839 0.286627 0.776077
C2    C     C_3   0.013769 0.904470 0.518284 -0.135042
C3    C     C_3   0.956329 0.895024 0.416299 -0.173668
C4    C     C_3   0.877530 0.000282 0.500039 0.028377
C5    C     C_R   0.322286 0.276403 0.020294 -0.196817
C6    C     C_R   0.453045 0.228029 0.834403 -0.045809
C7    C     C_R   0.600205 0.814894 0.085803 -0.183166
C8    C     C_R   0.626814 0.735860 0.971047 -0.156990
C9    C     C_R   0.579740 0.612725 0.933085 -0.183267
C10   C     C_R   0.500024 0.566470 0.009429 0.080267
C11   C     C_R   0.460655 0.650292 0.123584 0.082051
C12   C     C_R   0.740464 0.999945 0.499943 0.785581
C13   C     C_R   0.456911 0.440019 0.975950 0.072306
C14   C     C_R   0.365764 0.400943 0.052555 0.169278
C15   C     C_R   0.316632 0.486693 0.159375 -0.244751
C16   C     C_R   0.361866 0.609617 0.193857 -0.202377
C17   C     C_R   0.502501 0.350796 0.868704 -0.256430
C18   C     C_R   0.365062 0.190252 0.911246 -0.198174
C19   C     C_R   0.520171 0.772967 0.163650 -0.112854
C20   C     C_R   0.704883 0.346329 0.326669 -0.398306
C21   C     C_R   0.324408 0.759650 0.645757 0.071430
C22   C     C_R   0.286596 0.663532 0.677994 -0.263528
C23   C     C_R   0.480661 0.145108 0.713352 0.786136
C24   C     C_R   0.352706 0.560240 0.623358 -0.193292
C25   C     C_R   0.458155 0.551748 0.535134 0.015628
C26   C     C_R   0.493573 0.653041 0.505281 0.284061
C27   C     C_R   0.529755 0.447224 0.475531 -0.032267
C28   C     C_R   0.633701 0.446507 0.387492 0.113141
C29   C     C_R   0.666651 0.545875 0.359999 -0.256781
C30   C     C_R   0.598895 0.646923 0.417998 -0.177431
C31   C     C_R   0.502888 0.342411 0.498422 -0.088353
C32   C     C_R   0.676106 0.246062 0.354612 0.711295
C33   C     C_R   0.259534 0.999968 0.499986 0.766973
C34   C     C_3   0.986203 0.095147 0.481707 -0.131541
C35   C     C_3   0.067242 0.989792 0.397909 -0.171852
C36   C     C_3   0.122417 0.999378 0.499875 0.030404
C37   C     C_3   0.043585 0.104544 0.583643 -0.178980
C38   C     C_3   0.932670 0.009821 0.602008 -0.169344
Cu1   Cu    Cu3+1 0.529830 0.098270 0.475420 0.970964
Cu2   Cu    Cu3+1 0.470170 0.901730 0.524580 0.919068
H1    H     H_    0.125372 0.981692 0.314505 0.126230
H2    H     H_    0.575841 0.374146 0.808901 0.145965
H3    H     H_    0.687782 0.769508 0.911571 0.141523
H4    H     H_    0.315479 0.672209 0.275199 0.173357
H5    H     H_    0.746675 0.546039 0.292984 0.146785
H6    H     H_    0.781277 0.346351 0.257273 0.145986
H7    H     H_    0.425006 0.334930 0.563456 0.147366
H8    H     H_    0.272582 0.839439 0.688803 0.122234
H9    H     H_    0.972682 0.173988 0.467722 0.137298
H10   H     H_    0.319324 0.488655 0.651775 0.134859
H11   H     H_    0.205740 0.669141 0.745646 0.142242
H12   H     H_    0.633130 0.718457 0.391272 0.203485
H13   H     H_    0.874420 0.017980 0.685386 0.130421
H14   H     H_    0.917228 0.809353 0.348065 0.121129
H15   H     H_    0.325379 0.095287 0.885509 0.145510
H16   H     H_    0.252382 0.246125 0.078272 0.127591
N1    N     N_R   0.575030 0.246270 0.438190 -0.217474
N2    N     N_R   0.425760 0.754330 0.561190 -0.206907
O1    O     O_R   0.537510 0.972500 0.318130 -0.531405
O2    O     O_R   0.487140 0.806530 0.359650 -0.608791
O3    O     O_R   0.708330 0.082950 0.479220 -0.543471
O4    O     O_R   0.657960 0.916980 0.520740 -0.603969
O5    O     O_R   0.512860 0.193470 0.640350 -0.592135
O6    O     O_R   0.462490 0.027500 0.681870 -0.587345
O7    O     O_R   0.342040 0.083020 0.479260 -0.585778
O8    O     O_R   0.291670 0.917050 0.520780 -0.600323
H17   H     H_    0.645143 0.908608 0.114083 0.188793
H18   H     H_    0.605185 0.557033 0.842935 0.128999
O9    O     O_3   0.739732 0.141824 0.294163 -0.554452
C39   C     C_3   0.874942 0.169708 0.266926 -0.400214
H19   H     H_    0.923726 0.090746 0.251091 0.194610
H20   H     H_    0.916791 0.250839 0.338114 0.148961
H21   H     H_    0.896815 0.182560 0.186629 0.164188
H22   H     H_    0.082569 0.190192 0.651954 0.125563
H23   H     H_    0.027651 0.826258 0.533222 0.136263
H24   H     H_    0.242836 0.458663 0.216742 0.140888

loop_
_geom_bond_atom_site_label_1
_geom_bond_atom_site_label_2
_ccdc_geom_bond_type
C37   H22   S    
Cu2   O2    S    
C34   C37   S    
C5    H16   S    
C35   C36   S    
C8    H3    S    
C33   O7    A    
C7    C8    A    
C11   C19   A    
C29   C30   A    
C28   C29   A    
C31   H7    S    
C1    O1    A    
C3    H14   S    
C15   C16   A    
Cu1   N1    S    
C33   C36   S    
Cu2   O4    S    
C34   C35   S    
C17   H2    S    
C8    C9    A    
C39   H19   S    
C4    C12   S    
C9    C10   A    
C16   H4    S    
C21   H8    S    
C23   O5    A    
C15   H24   S    
Cu2   O8    S    
C13   C14   A    
Cu1   O7    S    
C32   N1    A    
Cu1   O3    S    
C33   O8    A    
C24   H10   S    
C6    C18   A    
C4    C34   S    
C1    C19   S    
Cu2   N2    S    
C27   C31   A    
C24   C25   A    
C1    O2    A    
Cu1   Cu2   S    
C5    C18   A    
C20   C28   A    
C25   C26   A    
C29   H5    S    
C37   C38   S    
C12   O4    A    
C11   C16   A    
C2    C38   S    
C3    C35   S    
Cu1   O1    S    
C39   H21   S    
C26   N2    A    
C5    C14   A    
C18   H15   S    
C23   O6    A    
C4    C38   S    
C26   C30   A    
C7    C19   A    
C22   C24   A    
C3    C4    S    
C20   C32   A    
C2    C36   S    
C6    C17   A    
C30   H12   S    
C36   C37   S    
C34   H9    S    
C10   C13   A    
C32   O9    S    
C25   C27   A    
Cu1   O5    S    
Cu2   O6    S    
C13   C17   A    
C31   N1    A    
C2    C3    S    
C9    H18   S    
C21   N2    A    
C12   O3    A    
C38   H13   S    
C6    C23   S    
O9    C39   S    
C35   H1    S    
C10   C11   A    
C7    H17   S    
C27   C28   A    
C14   C15   A    
C39   H20   S    
C21   C22   A    
C20   H6    S    
C2    H23   S    
C22   H11   S    
