data_mof_unit_61364.cif
_audit_creation_date              2012-10-26T17:53:59-0400
_audit_creation_method            fapswitch 2.2
_symmetry_space_group_name_H-M    P1
_symmetry_Int_Tables_number       1
_space_group_crystal_system       triclinic
_cell_length_a                    23.675098
_cell_length_b                    23.675109
_cell_length_c                    47.046987
_cell_angle_alpha                 89.999859
_cell_angle_beta                  90.000148
_cell_angle_gamma                 89.999859
_cell_volume                      26370.3314174

loop_
_atom_site_label
_atom_site_type_symbol
_atom_type_description
_atom_site_fract_x
_atom_site_fract_y
_atom_site_fract_z
_atom_type_partial_charge
C1    C     C_R   0.000000 0.391528 0.500000 0.532076
C2    C     C_R   0.499999 0.000000 0.354482 0.147466
C3    C     C_R   0.500000 0.000000 0.764933 -0.028939
C4    C     C_R   0.500000 0.000000 0.734932 -0.028865
C5    C     C_R   0.000000 0.500007 0.735067 -0.028942
C6    C     C_R   0.499999 0.000000 0.264932 -0.028971
C7    C     C_R   0.999999 0.499999 0.264933 -0.028972
C8    C     C_R   0.905237 0.539555 0.235103 -0.123920
C9    C     C_R   0.460173 0.905350 0.235103 -0.123919
C10   C     C_R   0.094762 0.460443 0.235104 -0.123920
C11   C     C_R   0.539825 0.094651 0.235102 -0.123919
C12   C     C_R   0.905248 0.460422 0.764896 -0.123906
C13   C     C_R   0.000001 0.500008 0.645517 0.147476
C14   C     C_R   0.405295 0.039679 0.764759 -0.123744
C15   C     C_R   0.094752 0.539589 0.764897 -0.123906
C16   C     C_R   0.594705 0.960321 0.764759 -0.123744
C17   C     C_R   0.405221 0.039517 0.735103 -0.123896
C18   C     C_R   0.905323 0.460262 0.735241 -0.123732
C19   C     C_R   0.594779 0.960483 0.735104 -0.123896
C20   C     C_R   0.094677 0.539751 0.735242 -0.123731
C21   C     C_R   0.460013 0.905424 0.264758 -0.123715
C22   C     C_R   0.905311 0.539716 0.264759 -0.123717
C23   C     C_R   0.539985 0.094576 0.264758 -0.123715
C24   C     C_R   0.500000 1.000000 0.645467 0.154159
C25   C     C_R   0.094688 0.460282 0.264759 -0.123716
C26   C     C_R   0.961973 0.465804 0.369385 -0.060137
C27   C     C_R   0.534146 0.961929 0.369383 -0.060133
C28   C     C_R   0.038026 0.534195 0.369385 -0.060135
C29   C     C_R   0.465853 0.038071 0.369383 -0.060134
C30   C     C_R   0.961968 0.534196 0.630615 -0.060175
C31   C     C_R   0.534253 0.037977 0.630610 -0.060985
C32   C     C_R   0.038034 0.465817 0.630616 -0.060162
C33   C     C_R   0.465747 0.962022 0.630610 -0.060986
C34   C     C_R   0.461977 0.965800 0.869385 -0.060208
C35   C     C_R   0.500000 0.000000 0.854484 0.147478
C36   C     C_R   0.034261 0.462031 0.869390 -0.061030
C37   C     C_R   0.538022 0.034201 0.869385 -0.060208
C38   C     C_R   0.965739 0.537973 0.869390 -0.061029
C39   C     C_R   0.462046 0.034280 0.130610 -0.061095
C40   C     C_R   0.034256 0.537974 0.130610 -0.061093
C41   C     C_R   0.537954 0.965720 0.130611 -0.061096
C42   C     C_R   0.965743 0.462025 0.130610 -0.061093
C43   C     C_R   0.962364 0.464781 0.399134 0.193292
C44   C     C_R   0.535172 0.962321 0.399132 0.193301
C45   C     C_R   0.037636 0.535219 0.399134 0.193291
C46   C     C_R   0.000000 0.500002 0.854533 0.154180
C47   C     C_R   0.464827 0.037680 0.399132 0.193302
C48   C     C_R   0.962358 0.535216 0.600866 0.193241
C49   C     C_R   0.535314 0.037560 0.600861 0.191680
C50   C     C_R   0.037642 0.464791 0.600867 0.193238
C51   C     C_R   0.464687 0.962439 0.600861 0.191680
C52   C     C_R   0.462368 0.964777 0.899134 0.193182
C53   C     C_R   0.035320 0.462447 0.899138 0.191631
C54   C     C_R   0.537632 0.035223 0.899134 0.193182
C55   C     C_R   0.964679 0.537555 0.899139 0.191630
C56   C     C_R   0.462462 0.035338 0.100861 0.191602
C57   C     C_R   0.500000 1.000000 0.145467 0.154239
C58   C     C_R   0.035317 0.537557 0.100861 0.191577
C59   C     C_R   0.537538 0.964662 0.100862 0.191602
C60   C     C_R   0.964683 0.462442 0.100861 0.191577
C61   C     C_R   1.000000 0.500000 0.414153 0.018199
C62   C     C_R   0.500000 0.000000 0.414152 0.018161
C63   C     C_R   0.000000 0.500003 0.585847 0.018210
C64   C     C_R   0.500000 1.000000 0.585842 0.019277
C65   C     C_R   0.500000 0.000000 0.914153 0.018207
C66   C     C_R   1.000000 0.500000 0.914158 0.019280
C67   C     C_R   0.500000 1.000000 0.085842 0.019313
C68   C     C_R   1.000000 0.499999 0.145467 0.154176
C69   C     C_R   1.000000 0.500000 0.085842 0.019287
C70   C     C_3   0.946553 0.374708 0.413636 0.009922
C71   C     C_3   0.907890 0.337133 0.431475 -0.246475
C72   C     C_3   0.927943 0.275862 0.431264 -0.476451
C73   C     C_3   0.625224 0.946420 0.413641 0.009957
C74   C     C_3   0.662750 0.907734 0.431493 -0.246496
C75   C     C_3   0.724039 0.927733 0.431293 -0.476469
C76   C     C_3   0.053444 0.625291 0.413637 0.009923
C77   C     C_3   0.092109 0.662867 0.431474 -0.246474
C78   C     C_3   0.072053 0.724137 0.431264 -0.476451
C79   C     C_1   0.000000 0.330434 0.500000 -0.037841
C80   C     C_3   0.374775 0.053584 0.413640 0.009954
C81   C     C_3   0.337252 0.092268 0.431495 -0.246497
C82   C     C_3   0.275962 0.072272 0.431294 -0.476469
C83   C     C_3   0.946514 0.625286 0.586367 0.009909
C84   C     C_3   0.907855 0.662844 0.568516 -0.246598
C85   C     C_3   0.927885 0.724122 0.568728 -0.476247
C86   C     C_3   0.625459 0.053243 0.586451 0.012715
C87   C     C_3   0.663149 0.091792 0.568612 -0.249863
C88   C     C_3   0.724380 0.071619 0.568868 -0.475416
C89   C     C_3   0.053456 0.374723 0.586360 0.009919
C90   C     C_1   0.669566 1.000000 0.500002 -0.037792
C91   C     C_3   0.092128 0.337149 0.568526 -0.246600
C92   C     C_3   0.072075 0.275877 0.568734 -0.476245
C93   C     C_3   0.374541 0.946757 0.586451 0.012714
C94   C     C_3   0.336851 0.908208 0.568611 -0.249863
C95   C     C_3   0.275620 0.928381 0.568867 -0.475415
C96   C     C_3   0.446564 0.874703 0.913637 0.009947
C97   C     C_3   0.407903 0.837125 0.931474 -0.246688
C98   C     C_3   0.427963 0.775855 0.931264 -0.476280
C99   C     C_3   0.125469 0.446775 0.913548 0.012744
C100  C     C_3   0.163164 0.408232 0.931388 -0.249955
C101  C     C_1   0.999999 0.669566 0.500000 -0.037842
C102  C     C_3   0.224393 0.428412 0.931131 -0.475452
C103  C     C_3   0.553437 0.125297 0.913637 0.009947
C104  C     C_3   0.592097 0.162874 0.931475 -0.246688
C105  C     C_3   0.572039 0.224144 0.931265 -0.476280
C106  C     C_3   0.874531 0.553224 0.913549 0.012745
C107  C     C_3   0.836835 0.591768 0.931388 -0.249955
C108  C     C_3   0.775606 0.571587 0.931131 -0.475452
C109  C     C_3   0.446822 0.125494 0.086454 0.012711
C110  C     C_3   0.408286 0.163206 0.068620 -0.250053
C111  C     C_3   0.428485 0.224429 0.068881 -0.475240
C112  C     C_R   0.608472 1.000000 0.500001 0.532310
C113  C     C_1   0.330434 0.000000 0.500002 -0.037793
C114  C     C_3   0.125464 0.553234 0.086452 0.012737
C115  C     C_3   0.163155 0.591780 0.068612 -0.250075
C116  C     C_3   0.224385 0.571603 0.068868 -0.475247
C117  C     C_3   0.553179 0.874506 0.086455 0.012710
C118  C     C_3   0.591714 0.836794 0.068620 -0.250054
C119  C     C_3   0.571516 0.775571 0.068882 -0.475241
C120  C     C_3   0.874536 0.446765 0.086451 0.012737
C121  C     C_3   0.836844 0.408220 0.068611 -0.250076
C122  C     C_3   0.775614 0.428396 0.068867 -0.475247
C123  C     C_1   0.500000 0.830434 0.000003 -0.037907
C124  C     C_1   0.169566 0.500000 0.000000 -0.037867
C125  C     C_1   0.499999 0.169566 0.000003 -0.037907
C126  C     C_1   0.830433 0.500000 0.000000 -0.037867
C127  C     C_1   0.000000 0.279225 0.500000 -0.055036
C128  C     C_1   0.720775 0.000000 0.500003 -0.054913
C129  C     C_1   0.999999 0.720775 0.500001 -0.055032
C130  C     C_1   0.279225 0.999999 0.500003 -0.054911
C131  C     C_1   0.500002 0.779225 0.000004 -0.055001
C132  C     C_R   1.000000 0.608472 0.500000 0.532080
C133  C     C_1   0.220775 0.500000 0.000000 -0.054881
C134  C     C_1   0.499998 0.220775 0.000004 -0.055001
C135  C     C_1   0.779225 0.500000 0.000000 -0.054882
C136  C     C_1   0.000000 0.219111 0.500000 -0.047675
C137  C     C_1   0.780889 0.000001 0.500002 -0.047543
C138  C     C_1   0.999999 0.780889 0.500000 -0.047675
C139  C     C_1   0.219111 0.999999 0.500002 -0.047542
C140  C     C_1   0.500002 0.719111 0.000003 -0.047527
C141  C     C_1   0.280889 0.500000 1.000000 -0.047402
C142  C     C_1   0.499998 0.280889 0.000003 -0.047528
C143  C     C_R   0.391528 0.000000 0.500001 0.532310
C144  C     C_1   0.719111 0.500000 0.000000 -0.047402
C145  C     C_1   0.000000 0.167891 0.500000 -0.022082
C146  C     C_1   0.832109 0.000000 0.500001 -0.021990
C147  C     C_1   1.000000 0.832109 0.500000 -0.022082
C148  C     C_1   0.167891 0.999999 0.500001 -0.021989
C149  C     C_1   0.500001 0.667891 0.000001 -0.021885
C150  C     C_1   0.332109 0.500000 1.000000 -0.021797
C151  C     C_1   0.499999 0.332109 0.000001 -0.021885
C152  C     C_1   0.667891 0.500000 0.000000 -0.021798
C153  C     C_R   0.106761 1.000000 0.500000 0.542835
C154  C     C_R   0.500000 0.891528 0.000001 0.532442
C155  C     C_R   0.000000 0.106761 0.500000 0.542822
C156  C     C_R   0.893239 0.000000 0.500000 0.542834
C157  C     C_R   1.000000 0.893239 0.500000 0.542822
C158  C     C_R   0.606761 0.500000 0.000000 0.542662
C159  C     C_R   0.500000 0.606761 0.000000 0.542650
C160  C     C_R   0.393239 0.500000 1.000000 0.542662
C161  C     C_R   0.500000 0.393239 0.000000 0.542650
C162  C     C_R   1.000000 0.500000 0.445367 0.589234
C163  C     C_R   0.500000 0.000000 0.445366 0.589289
C164  C     C_R   0.000000 0.500001 0.554633 0.589229
C165  C     C_R   0.108472 0.500000 0.000000 0.532677
C166  C     C_R   0.500000 1.000000 0.554632 0.589902
C167  C     C_R   0.500000 1.000000 0.945367 0.589499
C168  C     C_R   1.000000 0.500000 0.945368 0.590163
C169  C     C_R   0.500000 0.000000 0.054632 0.590057
C170  C     C_R   1.000000 0.500000 0.054632 0.590159
C171  C     C_R   0.046632 0.480662 0.190152 0.405183
C172  C     C_R   0.519468 0.046578 0.190151 0.405186
C173  C     C_R   0.953367 0.519336 0.190152 0.405184
C174  C     C_R   0.480532 0.953422 0.190151 0.405186
C175  C     C_R   0.046627 0.519354 0.809848 0.405244
C176  C     C_R   0.500000 0.108472 0.000001 0.532441
C177  C     C_R   0.546437 0.980202 0.809714 0.403045
C178  C     C_R   0.953373 0.480654 0.809848 0.405244
C179  C     C_R   0.453562 0.019798 0.809713 0.403044
C180  C     C_R   0.546641 0.980682 0.690153 0.405265
C181  C     C_R   0.046424 0.519837 0.690287 0.403057
C182  C     C_R   0.453359 0.019318 0.690152 0.405265
C183  C     C_R   0.953576 0.480179 0.690286 0.403056
C184  C     C_R   0.519941 0.046376 0.309713 0.403042
C185  C     C_R   0.046429 0.480183 0.309714 0.403033
C186  C     C_R   0.480057 0.953625 0.309713 0.403043
C187  C     C_R   0.891528 0.500000 0.000000 0.532676
C188  C     C_R   0.953570 0.519815 0.309713 0.403032
C189  C     C_R   0.952407 0.519773 0.219967 0.029225
C190  C     C_R   0.480090 0.952463 0.219966 0.029212
C191  C     C_R   0.047592 0.480225 0.219967 0.029225
C192  C     C_R   0.519909 0.047537 0.219966 0.029212
C193  C     C_R   0.952413 0.480217 0.780033 0.029282
C194  C     C_R   0.452498 0.019960 0.779897 0.028246
C195  C     C_R   0.047588 0.519793 0.780033 0.029281
C196  C     C_R   0.547501 0.980041 0.779897 0.028246
C197  C     C_R   0.452399 0.019755 0.719967 0.029292
C198  C     C_R   1.000000 0.499999 0.354484 0.147420
C199  C     C_R   0.952512 0.480015 0.720103 0.028239
C200  C     C_R   0.547601 0.980245 0.719967 0.029292
C201  C     C_R   0.047488 0.519999 0.720103 0.028239
C202  C     C_R   0.479888 0.952563 0.279896 0.028182
C203  C     C_R   0.952506 0.519977 0.279897 0.028186
C204  C     C_R   0.520110 0.047438 0.279896 0.028181
C205  C     C_R   0.047493 0.480021 0.279897 0.028186
C206  C     C_R   0.999999 0.499999 0.234932 -0.028896
C207  C     C_R   0.499999 0.000000 0.234931 -0.028897
C208  C     C_R   0.000000 0.500005 0.765068 -0.028868
Cu1   Cu    Cu3+1 0.944110 0.500000 0.500000 1.004039
Cu2   Cu    Cu3+1 0.000000 0.000000 0.528040 0.957093
Cu3   Cu    Cu3+1 0.500000 0.500000 0.971960 0.956926
Cu4   Cu    Cu3+1 0.500000 0.500000 0.028040 0.958563
Cu5   Cu    Cu3+1 0.500000 0.944110 0.500000 1.003005
Cu6   Cu    Cu3+1 0.055890 0.500000 0.500000 1.004047
Cu7   Cu    Cu3+1 0.500000 0.055890 0.500000 1.003004
Cu8   Cu    Cu3+1 0.444110 0.000000 0.000000 1.002148
Cu9   Cu    Cu3+1 1.000000 0.444110 0.000000 1.001121
Cu10  Cu    Cu3+1 0.555890 0.000000 0.000000 1.002147
Cu11  Cu    Cu3+1 0.000000 0.555890 0.000000 1.001121
Cu12  Cu    Cu3+1 0.000000 1.000000 0.471960 0.955433
H1    H     H_    0.868146 0.555015 0.224100 0.167669
H2    H     H_    0.868285 0.444672 0.724239 0.168763
H3    H     H_    0.241809 0.426343 0.909232 0.157567
H4    H     H_    0.250246 0.400941 0.945155 0.159187
H5    H     H_    0.227228 0.472556 0.938975 0.160504
H6    H     H_    0.510238 0.126399 0.923120 0.129234
H7    H     H_    0.551841 0.142451 0.891592 0.133380
H8    H     H_    0.592807 0.147170 0.953730 0.190088
H9    H     H_    0.635794 0.160946 0.922884 0.183322
H10   H     H_    0.574145 0.241621 0.909380 0.155608
H11   H     H_    0.599560 0.249901 0.945309 0.159447
H12   H     H_    0.527899 0.227046 0.939109 0.159746
H13   H     H_    0.631877 0.945038 0.724101 0.167565
H14   H     H_    0.873424 0.509980 0.922980 0.131426
H15   H     H_    0.857481 0.551712 0.891481 0.145526
H16   H     H_    0.852486 0.592458 0.953652 0.190337
H17   H     H_    0.838697 0.635487 0.922822 0.182522
H18   H     H_    0.758190 0.573655 0.909233 0.157567
H19   H     H_    0.749752 0.599057 0.945155 0.159187
H20   H     H_    0.772772 0.527442 0.938976 0.160504
H21   H     H_    0.490065 0.126590 0.077021 0.131452
H22   H     H_    0.448342 0.142538 0.108523 0.145539
H23   H     H_    0.407589 0.147562 0.046354 0.190333
H24   H     H_    0.131716 0.555342 0.724240 0.168763
H25   H     H_    0.364568 0.161353 0.077187 0.182418
H26   H     H_    0.426423 0.241838 0.090781 0.157840
H27   H     H_    0.401020 0.250295 0.054859 0.159277
H28   H     H_    0.472630 0.227254 0.061035 0.160541
H29   H     H_    0.126574 0.509990 0.077021 0.131443
H30   H     H_    0.142515 0.551725 0.108519 0.145592
H31   H     H_    0.147503 0.592468 0.046347 0.190331
H32   H     H_    0.161290 0.635500 0.077177 0.182396
H33   H     H_    0.241803 0.573672 0.090766 0.157853
H34   H     H_    0.250237 0.599075 0.054844 0.159273
H35   H     H_    0.444328 0.868426 0.275760 0.168908
H36   H     H_    0.227223 0.527458 0.061023 0.160520
H37   H     H_    0.509936 0.873409 0.077023 0.131453
H38   H     H_    0.551662 0.857462 0.108524 0.145539
H39   H     H_    0.592409 0.852438 0.046354 0.190333
H40   H     H_    0.635433 0.838647 0.077186 0.182418
H41   H     H_    0.573579 0.758162 0.090781 0.157841
H42   H     H_    0.598980 0.749706 0.054860 0.159277
H43   H     H_    0.527371 0.772746 0.061036 0.160541
H44   H     H_    0.873425 0.490010 0.077021 0.131443
H45   H     H_    0.857485 0.448273 0.108519 0.145592
H46   H     H_    0.868269 0.555296 0.275761 0.168914
H47   H     H_    0.852497 0.407533 0.046346 0.190331
H48   H     H_    0.838710 0.364500 0.077175 0.182396
H49   H     H_    0.758197 0.426325 0.090765 0.157853
H50   H     H_    0.749763 0.400925 0.054842 0.159273
H51   H     H_    0.772776 0.472542 0.061023 0.160520
H52   H     H_    0.555670 0.131574 0.275760 0.168908
H53   H     H_    0.131730 0.444702 0.275761 0.168913
H54   H     H_    0.932528 0.439366 0.357831 0.151418
H55   H     H_    0.560545 0.932451 0.357828 0.151364
H56   H     H_    0.067471 0.560632 0.357831 0.151420
H57   H     H_    0.444607 0.868303 0.224099 0.167668
H58   H     H_    0.439453 0.067550 0.357828 0.151362
H59   H     H_    0.932518 0.560628 0.642168 0.151360
H60   H     H_    0.560455 0.067581 0.642197 0.146599
H61   H     H_    0.067482 0.439384 0.642170 0.151376
H62   H     H_    0.439545 0.932419 0.642197 0.146598
H63   H     H_    0.432535 0.939359 0.857831 0.151354
H64   H     H_    0.060469 0.432434 0.857802 0.146542
H65   H     H_    0.567464 0.060642 0.857831 0.151354
H66   H     H_    0.939530 0.567570 0.857803 0.146544
H67   H     H_    0.432462 0.060503 0.142198 0.146400
H68   H     H_    0.131853 0.444983 0.224101 0.167669
H69   H     H_    0.060461 0.567574 0.142198 0.146483
H70   H     H_    0.567538 0.939497 0.142199 0.146399
H71   H     H_    0.939538 0.432424 0.142197 0.146483
H72   H     H_    0.989751 0.373602 0.423119 0.129210
H73   H     H_    0.948146 0.357554 0.391591 0.133320
H74   H     H_    0.907183 0.352837 0.453730 0.190180
H75   H     H_    0.864193 0.339065 0.422884 0.183607
H76   H     H_    0.925834 0.258385 0.409379 0.155329
H77   H     H_    0.900422 0.250107 0.445309 0.159447
H78   H     H_    0.972084 0.272956 0.439107 0.159742
H79   H     H_    0.555392 0.131697 0.224099 0.167669
H80   H     H_    0.626363 0.989624 0.423118 0.129197
H81   H     H_    0.642394 0.947986 0.391599 0.133346
H82   H     H_    0.647026 0.907052 0.453745 0.190197
H83   H     H_    0.660787 0.864034 0.422907 0.183573
H84   H     H_    0.741532 0.925600 0.409413 0.155336
H85   H     H_    0.749758 0.900194 0.445346 0.159431
H86   H     H_    0.726976 0.971874 0.439133 0.159727
H87   H     H_    0.010247 0.626394 0.423122 0.129208
H88   H     H_    0.051846 0.642445 0.391592 0.133320
H89   H     H_    0.092820 0.647162 0.453729 0.190180
H90   H     H_    0.868162 0.444951 0.775899 0.167562
H91   H     H_    0.135804 0.660936 0.422882 0.183606
H92   H     H_    0.074158 0.741614 0.409379 0.155329
H93   H     H_    0.099576 0.749893 0.445308 0.159448
H94   H     H_    0.027913 0.727041 0.439109 0.159742
H95   H     H_    0.373634 0.010378 0.423114 0.129196
H96   H     H_    0.357604 0.052026 0.391598 0.133347
H97   H     H_    0.352977 0.092942 0.453746 0.190198
H98   H     H_    0.339217 0.135969 0.422912 0.183574
H99   H     H_    0.258468 0.074413 0.409413 0.155337
H100  H     H_    0.250245 0.099808 0.445349 0.159431
H101  H     H_    0.368246 0.055244 0.775760 0.168734
H102  H     H_    0.273023 0.028129 0.439130 0.159727
H103  H     H_    0.989723 0.626410 0.576895 0.129232
H104  H     H_    0.948077 0.642442 0.608412 0.133403
H105  H     H_    0.907173 0.647134 0.546262 0.190182
H106  H     H_    0.864151 0.660898 0.577098 0.183484
H107  H     H_    0.925752 0.741603 0.590612 0.155630
H108  H     H_    0.900366 0.749864 0.554676 0.159525
H109  H     H_    0.972031 0.727041 0.560894 0.159764
H110  H     H_    0.626572 0.009999 0.577020 0.131421
H111  H     H_    0.642510 0.051733 0.608519 0.145551
H112  H     H_    0.131839 0.555059 0.775900 0.167562
H113  H     H_    0.647496 0.092480 0.546347 0.190422
H114  H     H_    0.661280 0.135511 0.577177 0.182688
H115  H     H_    0.741796 0.073690 0.590766 0.157589
H116  H     H_    0.750229 0.099094 0.554844 0.159271
H117  H     H_    0.727221 0.027475 0.561023 0.160520
H118  H     H_    0.010263 0.373621 0.576870 0.129231
H119  H     H_    0.051848 0.357565 0.608404 0.133401
H120  H     H_    0.092845 0.352854 0.546271 0.190169
H121  H     H_    0.135820 0.339080 0.577122 0.183490
H122  H     H_    0.074178 0.258398 0.590618 0.155630
H123  H     H_    0.631753 0.944756 0.775761 0.168734
H124  H     H_    0.099601 0.250124 0.554690 0.159528
H125  H     H_    0.027936 0.272972 0.560887 0.159765
H126  H     H_    0.373427 0.990001 0.577021 0.131422
H127  H     H_    0.357490 0.948264 0.608519 0.145551
H128  H     H_    0.352504 0.907521 0.546347 0.190423
H129  H     H_    0.338719 0.864489 0.577177 0.182687
H130  H     H_    0.258203 0.926311 0.590765 0.157589
H131  H     H_    0.249771 0.900908 0.554843 0.159271
H132  H     H_    0.272779 0.972526 0.561023 0.160520
H133  H     H_    0.489762 0.873601 0.923121 0.129235
H134  H     H_    0.368123 0.054962 0.724100 0.167565
H135  H     H_    0.448161 0.857550 0.891592 0.133379
H136  H     H_    0.407192 0.852829 0.953729 0.190088
H137  H     H_    0.364207 0.839052 0.922882 0.183322
H138  H     H_    0.425858 0.758379 0.909379 0.155608
H139  H     H_    0.400442 0.750097 0.945308 0.159447
H140  H     H_    0.472103 0.772954 0.939109 0.159746
H141  H     H_    0.126577 0.490020 0.922978 0.131427
H142  H     H_    0.142519 0.448285 0.891480 0.145525
H143  H     H_    0.147512 0.407543 0.953652 0.190338
H144  H     H_    0.161301 0.364512 0.922822 0.182522
N1    N     N_R   0.999999 0.499999 0.175935 -0.391307
N2    N     N_R   0.500000 1.000000 0.175935 -0.391332
N3    N     N_R   0.000000 0.500003 0.824064 -0.391293
N4    N     N_R   0.500000 0.000000 0.823970 -0.393618
N5    N     N_R   0.500000 1.000000 0.675936 -0.391290
N6    N     N_R   0.000001 0.500008 0.676030 -0.393634
N7    N     N_R   0.499999 0.000000 0.323968 -0.393678
N8    N     N_R   0.999999 0.499999 0.323970 -0.393669
O1    O     O_R   0.952780 0.418580 0.499940 -0.509005
O2    O     O_R   0.081420 0.452780 0.999940 -0.508927
O3    O     O_R   0.547220 0.081420 0.999940 -0.509101
O4    O     O_R   0.918580 0.547220 0.999940 -0.508927
O5    O     O_R   0.452780 0.081420 0.000060 -0.508859
O6    O     O_R   0.081420 0.547220 0.000060 -0.508921
O7    O     O_R   0.547220 0.918580 0.000060 -0.508859
O8    O     O_R   0.918580 0.452780 0.000060 -0.508921
O9    O     O_R   0.952780 0.500010 0.458880 -0.474124
O10   O     O_R   0.499990 0.952780 0.458880 -0.474041
O11   O     O_R   0.047220 0.499990 0.458880 -0.474125
O12   O     O_R   0.581420 0.952780 0.499940 -0.509100
O13   O     O_R   0.500010 0.047220 0.458880 -0.474041
O14   O     O_R   0.952780 0.499990 0.541120 -0.474159
O15   O     O_R   0.499990 0.047220 0.541120 -0.474763
O16   O     O_R   0.047220 0.500010 0.541120 -0.474162
O17   O     O_R   0.500010 0.952780 0.541120 -0.474764
O18   O     O_R   0.452780 0.000010 0.958880 -0.474133
O19   O     O_R   0.999990 0.452780 0.958880 -0.474735
O20   O     O_R   0.547220 0.999990 0.958880 -0.474133
O21   O     O_R   0.000010 0.547220 0.958880 -0.474734
O22   O     O_R   0.452780 0.999990 0.041120 -0.474841
O23   O     O_R   0.047220 0.581420 0.499940 -0.508998
O24   O     O_R   0.999990 0.547220 0.041120 -0.474778
O25   O     O_R   0.547220 0.000010 0.041120 -0.474842
O26   O     O_R   0.000010 0.452780 0.041120 -0.474778
O27   O     O_2   0.091710 0.461569 0.175458 -0.505026
O28   O     O_2   0.538682 0.091603 0.175456 -0.504948
O29   O     O_2   0.908289 0.538429 0.175458 -0.505027
O30   O     O_2   0.461317 0.908396 0.175456 -0.504948
O31   O     O_2   0.091700 0.538458 0.824542 -0.505035
O32   O     O_2   0.591224 0.960300 0.824361 -0.495372
O33   O     O_2   0.908300 0.461549 0.824542 -0.505035
O34   O     O_R   0.418580 0.047220 0.499940 -0.509101
O35   O     O_2   0.408775 0.039700 0.824361 -0.495371
O36   O     O_2   0.591727 0.961607 0.675459 -0.505001
O37   O     O_2   0.091199 0.539767 0.675639 -0.495273
O38   O     O_2   0.408274 0.038393 0.675458 -0.505001
O39   O     O_2   0.908802 0.460249 0.675638 -0.495275
O40   O     O_2   0.539976 0.091102 0.324361 -0.495091
O41   O     O_2   0.091209 0.460265 0.324361 -0.495103
O42   O     O_2   0.460021 0.908899 0.324361 -0.495092
O43   O     O_2   0.908790 0.539733 0.324361 -0.495103
O44   O     O_R   0.080090 0.000000 0.475550 -0.498609
O45   O     O_R   0.952780 0.581420 0.500060 -0.509013
O46   O     O_R   0.000000 0.080090 0.475550 -0.498588
O47   O     O_R   0.919910 0.000000 0.475550 -0.498609
O48   O     O_R   0.000000 0.919910 0.475550 -0.498588
O49   O     O_R   0.080090 0.000000 0.524450 -0.498229
O50   O     O_R   1.000000 0.919910 0.524450 -0.498331
O51   O     O_R   0.919910 0.000000 0.524450 -0.498230
O52   O     O_R   0.000000 0.080090 0.524450 -0.498331
O53   O     O_R   0.580090 0.500000 0.975550 -0.498437
O54   O     O_R   0.500000 0.580090 0.975550 -0.498542
O55   O     O_R   0.419910 0.500000 0.975550 -0.498438
O56   O     O_R   0.581420 0.047220 0.500060 -0.508813
O57   O     O_R   0.500000 0.419910 0.975550 -0.498542
O58   O     O_R   0.580090 0.500000 0.024450 -0.498187
O59   O     O_R   0.500000 0.419910 0.024450 -0.498163
O60   O     O_R   0.419910 0.500000 0.024450 -0.498187
O61   O     O_R   0.500000 0.580090 0.024450 -0.498163
O62   O     O_3   0.924944 0.430310 0.413576 -0.545904
O63   O     O_3   0.569603 0.924862 0.413572 -0.545904
O64   O     O_3   0.075055 0.569690 0.413575 -0.545904
O65   O     O_3   0.430398 0.075139 0.413573 -0.545903
O66   O     O_3   0.924928 0.569676 0.586423 -0.546005
O67   O     O_R   0.047220 0.418580 0.500060 -0.509004
O68   O     O_3   0.569873 0.074895 0.586419 -0.550609
O69   O     O_3   0.075067 0.430323 0.586426 -0.546009
O70   O     O_3   0.430127 0.925105 0.586419 -0.550609
O71   O     O_3   0.424950 0.930303 0.913576 -0.546103
O72   O     O_3   0.069886 0.425117 0.913581 -0.550705
O73   O     O_3   0.575050 0.069697 0.913576 -0.546103
O74   O     O_3   0.930114 0.574883 0.913582 -0.550705
O75   O     O_3   0.425146 0.069917 0.086418 -0.550806
O76   O     O_3   0.069879 0.574889 0.086419 -0.550816
O77   O     O_3   0.574854 0.930083 0.086418 -0.550806
O78   O     O_R   0.418580 0.952780 0.500060 -0.508812
O79   O     O_3   0.930121 0.425110 0.086418 -0.550815
O80   O     O_R   0.452780 0.918580 0.999940 -0.509100

loop_
_geom_bond_atom_site_label_1
_geom_bond_atom_site_label_2
_ccdc_geom_bond_type
C184  C204  A    
C2    N7    S    
C155  O52   A    
C93   H127  S    
Cu10  O3    S    
C55   C66   A    
C114  C115  S    
C102  H4    S    
C54   C65   A    
C116  H34   S    
C67   C169  S    
C19   C200  A    
C124  C133  T    
C2    C29   A    
Cu4   O58   S    
C126  C187  S    
C20   C201  A    
C175  O31   S    
C118  H40   S    
C106  C107  S    
C106  O74   S    
C103  H7    S    
C97   H136  S    
C186  C202  A    
C11   C192  A    
C73   C74   S    
C99   H142  S    
C110  C111  S    
C7    C203  A    
C131  C140  S    
C153  O49   A    
C89   O69   S    
C38   C55   A    
C177  O32   S    
C111  H28   S    
C76   O64   S    
C17   C197  A    
C180  O36   S    
C153  O44   A    
C14   C194  A    
C193  C208  A    
C7    C206  A    
C86   H111  S    
C175  C195  A    
C104  C105  S    
C14   H101  S    
C104  H8    S    
C68   N1    S    
Cu5   Cu7   S    
C15   C20   A    
C178  C193  A    
C23   H52   S    
C40   C58   A    
C179  O35   S    
C137  C146  T    
C127  C136  S    
C106  H15   S    
C37   H65   S    
C48   C63   A    
C82   H100  S    
C41   H70   S    
C102  H5    S    
C162  O11   A    
C191  C206  A    
C70   H72   S    
C142  C151  T    
C92   H122  S    
Cu1   O1    S    
C16   H123  S    
C22   H46   S    
C62   C163  S    
C189  C206  A    
C166  O15   A    
C74   H83   S    
C71   H75   S    
C181  O37   S    
C72   H76   S    
C41   C59   A    
Cu5   O10   S    
C122  H51   S    
C22   C203  A    
C185  N8    A    
C1    C79   S    
C82   H102  S    
C148  C153  S    
C32   H61   S    
C43   C61   A    
C27   H55   S    
C116  H36   S    
C79   C127  T    
C84   H106  S    
Cu4   O60   S    
C133  C141  S    
C181  C201  A    
C51   C64   A    
C24   C33   A    
Cu5   O17   S    
C11   H79   S    
Cu8   O80   S    
C10   C191  A    
C44   C62   A    
C105  H10   S    
C15   H112  S    
C80   H96   S    
C24   N5    S    
Cu2   O52   S    
C46   N3    S    
C50   O69   S    
C9    C21   A    
C104  H9    S    
C109  H22   S    
C111  H26   S    
C11   C23   A    
C99   O72   S    
C188  N8    A    
C154  O7    A    
C101  C132  S    
C83   H104  S    
C70   O62   S    
C156  O51   A    
Cu1   O9    S    
C52   C65   A    
C76   H88   S    
C123  C154  S    
C170  O26   A    
C94   H129  S    
C77   H89   S    
C78   H94   S    
C183  N6    A    
C161  O57   A    
C163  O13   A    
C13   C32   A    
C57   N2    S    
C72   H77   S    
Cu12  O48   S    
C47   C62   A    
C97   C98   S    
C172  C192  A    
C29   C47   A    
C162  O9    A    
C175  N3    A    
C30   C48   A    
Cu8   Cu10  S    
C34   C35   A    
C177  N4    A    
C5    C201  A    
C95   H130  S    
C115  H31   S    
C115  C116  S    
C186  O42   S    
C100  H143  S    
C122  H49   S    
C59   C67   A    
Cu11  O4    S    
C27   C44   A    
C195  C208  A    
C157  O50   A    
C8    C22   A    
C107  C108  S    
C158  O53   A    
C36   C46   A    
C187  O4    A    
C36   C53   A    
C89   C91   S    
Cu10  O7    S    
C172  O28   S    
C168  O21   A    
C89   H119  S    
C49   C64   A    
C50   C63   A    
C14   C17   A    
Cu8   O22   S    
C112  O56   A    
C182  C197  A    
C109  O75   S    
C160  O55   A    
C141  C150  T    
C139  C148  T    
C112  O12   A    
C113  C130  T    
C61   C162  S    
C105  H12   S    
C10   H68   S    
Cu2   O50   S    
C91   C92   S    
C75   H86   S    
C90   C112  S    
C151  C161  S    
C114  H29   S    
C12   H90   S    
C91   H120  S    
C182  O38   S    
C180  C200  A    
C83   C84   S    
C108  H19   S    
C6    C207  A    
C174  O30   S    
C31   H60   S    
C114  H30   S    
C2    C27   A    
C110  H25   S    
C77   H91   S    
C78   H92   S    
C73   H81   S    
C161  O59   A    
C192  C207  A    
C37   C54   A    
C3    C4    A    
C187  O8    A    
C120  C121  S    
C38   H66   S    
C176  O5    A    
C33   H62   S    
C4    C197  A    
C106  H14   S    
C198  N8    S    
C158  O58   A    
C143  O34   A    
C93   H126  S    
C87   H114  S    
C52   O71   S    
C17   H134  S    
C23   C204  A    
C154  O80   A    
C71   C72   S    
C144  C152  T    
C117  C118  S    
C183  O39   S    
C117  H38   S    
C160  O60   A    
C60   C69   A    
C159  O61   A    
C44   O63   S    
C88   H117  S    
C155  O46   A    
C26   C198  A    
C38   C46   A    
C114  O76   S    
C88   H115  S    
C124  C165  S    
Cu3   O54   S    
C190  C207  A    
C4    C200  A    
C181  N6    A    
C111  H27   S    
Cu7   O15   S    
Cu6   O11   S    
Cu11  O21   S    
C125  C176  S    
C140  C149  T    
Cu7   O34   S    
C83   O66   S    
Cu8   O5    S    
C101  C129  T    
C125  C134  T    
C107  H16   S    
C12   C193  A    
C7    C205  A    
C96   H133  S    
Cu12  O47   S    
C5    C199  A    
C80   O65   S    
C93   C94   S    
C150  C160  S    
C178  N3    A    
Cu9   O8    S    
C58   O76   S    
C25   C205  A    
C81   H98   S    
C119  H42   S    
C165  O6    A    
Cu4   O59   S    
C70   H73   S    
C86   H110  S    
C25   H53   S    
C171  N1    A    
C132  O45   A    
C110  H23   S    
C95   H131  S    
C169  O25   A    
C70   C71   S    
C164  O14   A    
Cu10  O20   S    
C85   H108  S    
C15   C195  A    
C34   H63   S    
C48   O66   S    
C9    H57   S    
Cu6   O67   S    
C31   C49   A    
C98   H140  S    
C130  C139  S    
C102  H3    S    
C116  H33   S    
Cu3   O57   S    
C63   C164  S    
C3    C196  A    
C152  C158  S    
C117  O77   S    
C73   O63   S    
C182  N5    A    
C84   C85   S    
C185  O41   S    
C86   C87   S    
C80   C81   S    
C118  H39   S    
C29   H58   S    
Cu2   O49   S    
C97   H137  S    
C165  O2    A    
C113  C143  S    
C43   O62   S    
C6    C204  A    
C16   C196  A    
C54   O73   S    
C134  C142  S    
C13   C30   A    
Cu3   Cu4   S    
C109  H21   S    
C8    C189  A    
Cu12  O44   S    
Cu7   O13   S    
C1    O67   A    
C171  C191  A    
C91   H121  S    
C59   O77   S    
C132  O23   A    
Cu6   O16   S    
C121  C122  S    
C174  C190  A    
C108  H18   S    
C126  C135  T    
C176  O3    A    
C83   H103  S    
C42   H71   S    
Cu12  O46   S    
C9    C190  A    
C96   H135  S    
C179  N4    A    
C20   H24   S    
C123  C131  T    
C21   C202  A    
C184  N7    A    
C64   C166  S    
C72   H78   S    
C163  O10   A    
C58   C69   A    
C92   H124  S    
Cu9   O19   S    
C82   H99   S    
C33   C51   A    
C65   C167  S    
C34   C52   A    
Cu1   Cu6   S    
C66   C168  S    
C167  O20   A    
C39   H67   S    
C93   O70   S    
C56   O75   S    
C41   C57   A    
C109  C110  S    
C5    C208  A    
C16   C19   A    
C173  O29   S    
C45   C61   A    
C74   H82   S    
C164  O16   A    
C94   C95   S    
C18   H2    S    
C28   C198  A    
C100  H144  S    
C122  H50   S    
Cu9   O26   S    
C87   C88   S    
C40   C68   A    
C103  C104  S    
C13   N6    S    
C75   H84   S    
C98   H138  S    
Cu11  O6    S    
C179  C194  A    
Cu3   O55   S    
C89   H118  S    
C177  C196  A    
C84   H105  S    
C49   O68   S    
C85   H109  S    
C81   C82   S    
C1    O1    A    
C103  H6    S    
C107  H17   S    
C157  O48   A    
C30   H59   S    
C105  H11   S    
C35   C37   A    
C80   H95   S    
C6    C202  A    
Cu2   O51   S    
C92   H125  S    
C75   H85   S    
C168  O19   A    
C28   H56   S    
C21   H35   S    
C170  O24   A    
C39   C57   A    
Cu2   Cu12  S    
Cu9   O2    S    
C118  C119  S    
C119  H43   S    
C129  C138  S    
C39   C56   A    
C120  H44   S    
C172  N2    A    
C136  C145  T    
C77   C78   S    
C76   H87   S    
C94   H128  S    
C78   H93   S    
C180  N5    A    
C73   H80   S    
C42   C68   A    
C169  O22   A    
Cu6   O23   S    
C99   H141  S    
C19   H13   S    
C121  H48   S    
C26   C43   A    
C173  N1    A    
C28   C45   A    
C3    C194  A    
C74   C75   S    
Cu8   O18   S    
C120  O79   S    
C185  C205  A    
C40   H69   S    
C76   C77   S    
C36   H64   S    
C42   C60   A    
C26   H54   S    
C87   H113  S    
C115  H32   S    
C24   C31   A    
Cu1   O45   S    
C183  C199  A    
C35   N4    S    
C60   O79   S    
C71   H74   S    
C128  C137  S    
C55   O74   S    
C159  O54   A    
C117  H37   S    
C99   C100  S    
C138  C147  T    
C47   O65   S    
C96   C97   S    
C100  C102  S    
C95   H132  S    
C53   C66   A    
C149  C159  S    
C178  O33   S    
C32   C50   A    
Cu1   O14   S    
C88   H116  S    
Cu7   O56   S    
Cu3   O53   S    
C135  C144  S    
C53   O72   S    
Cu4   O61   S    
Cu10  O25   S    
Cu11  O24   S    
C147  C157  S    
C120  H45   S    
C45   O64   S    
C156  O47   A    
C121  H47   S    
C167  O18   A    
Cu5   O12   S    
C103  O73   S    
C108  H20   S    
Cu9   Cu11  S    
C56   C67   A    
C188  C203  A    
C171  O27   S    
C188  O43   S    
C184  O40   S    
C86   O68   S    
C96   O71   S    
C81   H97   S    
C119  H41   S    
C173  C189  A    
C69   C170  S    
C174  N2    A    
C186  N7    A    
Cu5   O78   S    
C10   C25   A    
C145  C155  S    
C146  C156  S    
C166  O17   A    
C12   C18   A    
C18   C199  A    
C51   O70   S    
C90   C128  T    
C143  O78   A    
C85   H107  S    
C8    H1    S    
C98   H139  S    
