data_mof_unit_43130.cif
_audit_creation_date              2012-10-26T20:32:42-0400
_audit_creation_method            fapswitch 2.2
_symmetry_space_group_name_H-M    P1
_symmetry_Int_Tables_number       1
_space_group_crystal_system       triclinic
_cell_length_a                    27.778496
_cell_length_b                    10.825575
_cell_length_c                    9.567762
_cell_angle_alpha                 90.525285
_cell_angle_beta                  90.935867
_cell_angle_gamma                 90.929443
_cell_volume                      2876.30973575

loop_
_atom_site_label
_atom_site_type_symbol
_atom_type_description
_atom_site_fract_x
_atom_site_fract_y
_atom_site_fract_z
_atom_type_partial_charge
C1    C     C_R   0.499181 0.262399 0.499430 0.579353
C2    C     C_R   0.974192 0.366355 0.554106 0.056413
C3    C     C_R   0.976501 0.587486 0.613576 -0.008968
C4    C     C_R   0.407501 0.497881 0.498940 0.623229
C5    C     C_R   0.950128 0.479443 0.575580 0.006511
C6    C     C_R   0.946778 0.263011 0.506189 -0.074431
C7    C     C_R   0.896889 0.266162 0.498085 -0.082497
C8    C     C_R   0.872788 0.376045 0.524563 0.040362
C9    C     C_R   0.899402 0.484523 0.557453 -0.046940
C10   C     C_R   0.875358 0.597887 0.569570 -0.039421
C11   C     C_R   0.825559 0.599303 0.535215 0.398109
C12   C     C_R   0.280382 0.408690 0.595415 -0.103702
C13   C     C_R   0.822416 0.379810 0.517858 0.414494
C14   C     C_R   0.720779 0.420612 0.415605 -0.054734
C15   C     C_R   0.670081 0.420291 0.413232 0.186651
C16   C     C_R   0.498795 0.737564 0.500142 0.605234
C17   C     C_R   0.672293 0.589850 0.582583 -0.059433
C18   C     C_R   0.721934 0.575975 0.598445 -0.107742
C19   C     C_R   0.747122 0.494593 0.512248 0.188428
C20   C     C_R   0.025169 0.361941 0.571473 0.040424
C21   C     C_R   0.051674 0.474526 0.580001 0.009703
C22   C     C_R   0.027531 0.587432 0.601550 -0.021188
C23   C     C_R   0.252830 0.478421 0.503143 0.228290
C24   C     C_R   0.050820 0.249408 0.577125 0.001147
C25   C     C_R   0.105030 0.698929 0.595446 0.272730
C26   C     C_R   0.950469 0.692827 0.657712 0.229693
C27   C     C_R   0.901277 0.702716 0.623147 0.051279
C28   C     C_R   0.592449 0.501091 0.500363 0.636402
C29   C     C_R   0.054768 0.698192 0.600481 -0.129258
C30   C     C_R   0.488320 0.064264 0.622097 0.095499
C31   C     C_R   0.494295 0.129189 0.497820 -0.018056
C32   C     C_R   0.492855 0.063065 0.370624 -0.149837
C33   C     C_R   0.492605 0.934245 0.370998 -0.129127
C34   C     C_R   0.102419 0.474534 0.564657 -0.079261
C35   C     C_R   0.493510 0.870413 0.498602 0.003060
C36   C     C_R   0.487273 0.937052 0.622163 0.082795
C37   C     C_3   0.512743 0.930301 0.760349 0.082495
C38   C     C_3   0.513932 0.071890 0.761256 0.225397
C39   C     C_R   0.527686 0.583005 0.077067 0.071515
C40   C     C_R   0.175815 0.369744 0.502257 0.416728
C41   C     C_R   0.469654 0.424854 0.072027 0.011294
C42   C     C_R   0.469734 0.424665 0.923345 0.033808
C43   C     C_R   0.527391 0.584736 0.929594 0.241972
C44   C     C_3   0.581396 0.601137 0.934577 0.418675
C45   C     C_R   0.126278 0.362814 0.535435 -0.006189
C46   C     C_3   0.580657 0.596948 0.092935 -0.214468
C47   C     C_R   0.179516 0.583945 0.561429 0.471171
C48   C     C_R   0.275638 0.552033 0.401295 0.028925
C49   C     C_R   0.326640 0.562830 0.402834 -0.064722
C50   C     C_R   0.330381 0.408690 0.589508 -0.034632
C51   C     C_2   0.355494 0.317667 0.678650 0.240624
C52   C     C_2   0.246283 0.619887 0.296187 0.284878
C53   C     C_2   0.651432 0.704075 0.639910 0.298844
C54   C     C_2   0.877446 0.821001 0.655867 0.349799
C55   C     C_2   0.564065 0.127911 0.755523 0.224660
C56   C     C_R   0.100186 0.249049 0.543419 -0.008421
C57   C     C_2   0.124560 0.128995 0.527594 0.270159
C58   C     C_2   0.029350 0.137282 0.643458 0.229806
C59   C     C_2   0.350477 0.651139 0.306667 0.233122
C60   C     C_R   0.129162 0.586863 0.574976 0.079174
C61   C     C_R   0.354257 0.490097 0.497033 0.022817
C62   C     C_R   0.645544 0.503811 0.499627 0.070876
Cu1   Cu    Cu3+1 0.500000 0.499980 0.640670 1.145518
Cu2   Cu    Cu3+1 0.500000 0.500020 0.359330 1.024425
H1    H     H_    0.741499 0.634777 0.672708 0.156276
H2    H     H_    0.591358 0.684726 0.147010 0.107876
H3    H     H_    0.739565 0.361899 0.343177 0.155500
H4    H     H_    0.877357 0.182990 0.465799 0.171124
H5    H     H_    0.963424 0.178882 0.471610 0.141060
H6    H     H_    0.339692 0.289110 0.776489 0.115121
H7    H     H_    0.259635 0.705274 0.251652 0.120597
H8    H     H_    0.108871 0.876094 0.633166 0.327981
H9    H     H_    0.995907 0.745249 0.802403 0.337661
H10   H     H_    0.671109 0.756989 0.719783 0.147491
H11   H     H_    0.859319 0.872101 0.574151 0.147225
H12   H     H_    0.037417 0.786591 0.597912 0.161039
H13   H     H_    0.501983 0.876400 0.948723 0.302158
H14   H     H_    0.500215 0.109640 0.955152 0.334817
H15   H     H_    0.589490 0.093340 0.680167 0.091924
H16   H     H_    0.640577 0.517511 0.894450 0.332443
H17   H     H_    0.582180 0.782401 0.937915 0.285934
H18   H     H_    0.156578 0.109338 0.589437 0.165503
H19   H     H_    0.666443 0.287827 0.274166 0.337159
H20   H     H_    0.041258 0.045428 0.616486 0.141150
H21   H     H_    0.338364 0.657350 0.198642 0.103485
H22   H     H_    0.494541 0.110115 0.271342 0.153092
H23   H     H_    0.494300 0.885545 0.271830 0.153960
H24   H     H_    0.262151 0.351038 0.670815 0.129516
H25   H     H_    0.548243 0.885189 0.752585 0.136355
H26   H     H_    0.445774 0.362090 0.125883 0.126163
H27   H     H_    0.445900 0.361886 0.866059 0.178300
H28   H     H_    0.597896 0.513093 0.135644 0.198379
N1    N     N_R   0.201332 0.477903 0.520133 -0.380154
N2    N     N_R   0.799355 0.490885 0.520624 -0.376226
N3    N     N_R   0.500300 0.500930 0.147930 -0.240345
N4    N     N_R   0.500310 0.500890 0.852020 -0.218246
O1    O     O_R   0.500000 0.319640 0.618810 -0.448111
O2    O     O_R   0.569730 0.499960 0.618810 -0.418365
O3    O     O_R   0.569740 0.500000 0.381220 -0.491800
O4    O     O_2   0.198536 0.270487 0.450741 -0.460096
O5    O     O_2   0.392167 0.267885 0.640347 -0.476959
O6    O     O_2   0.207057 0.579851 0.256003 -0.451107
O7    O     O_3   0.130663 0.809318 0.604077 -0.596267
O8    O     O_3   0.971094 0.784027 0.742226 -0.647922
O9    O     O_2   0.613724 0.744700 0.593553 -0.507262
O10   O     O_2   0.878618 0.863263 0.774625 -0.412208
O11   O     O_3   0.482458 0.879162 0.861135 -0.637416
O12   O     O_2   0.796916 0.272718 0.510823 -0.491100
O13   O     O_3   0.484676 0.125509 0.863023 -0.618116
O14   O     O_2   0.576377 0.212428 0.834269 -0.432832
O15   O     O_3   0.605771 0.501319 0.876007 -0.599496
O16   O     O_3   0.597113 0.715550 0.882674 -0.690721
O17   O     O_2   0.109369 0.052449 0.442619 -0.463842
O18   O     O_3   0.643918 0.339830 0.327260 -0.687876
O19   O     O_2   0.999138 0.147169 0.734053 -0.448096
O20   O     O_2   0.382775 0.720535 0.348583 -0.470145
O21   O     O_2   0.206745 0.686081 0.588136 -0.399341
O22   O     O_2   0.803622 0.707667 0.513331 -0.518539
O23   O     O_R   0.500010 0.319680 0.381230 -0.515812
O24   O     O_R   0.430260 0.500000 0.618780 -0.494561
O25   O     O_R   0.430270 0.500040 0.381190 -0.490910
O26   O     O_R   0.499990 0.680320 0.618770 -0.465344
O27   O     O_R   0.500000 0.680360 0.381190 -0.503539

loop_
_geom_bond_atom_site_label_1
_geom_bond_atom_site_label_2
_ccdc_geom_bond_type
C10   C27   A    
C8    C9    A    
C6    H5    S    
C8    C13   A    
C22   C29   A    
C41   C42   A    
C53   H10   S    
C40   N1    A    
C27   C54   S    
C7    C8    A    
C29   H12   S    
C18   H1    S    
C12   C23   A    
C52   O6    D    
C26   C27   A    
Cu2   O23   S    
C42   N4    A    
C36   C37   S    
C16   O27   A    
C37   O11   S    
Cu1   O2    S    
C16   C35   S    
C30   C31   A    
C46   H28   S    
Cu2   O25   S    
C1    C31   S    
C56   C57   S    
C30   C38   S    
C42   H27   S    
C1    O23   A    
C16   O26   A    
C26   O8    S    
C7    H4    S    
H9    O8    S    
C38   C55   S    
C20   C24   A    
C45   C56   A    
C59   O20   D    
C14   H3    S    
C51   H6    S    
C9    C10   A    
C41   H26   S    
C47   C60   A    
C21   C22   A    
C34   C60   A    
H19   O18   S    
C2    C6    A    
C13   O12   S    
C44   C46   S    
C50   C51   S    
Cu2   O3    S    
C25   C29   A    
C40   C45   A    
C49   C61   A    
C54   O10   D    
C2    C20   A    
H13   O11   S    
C1    O1    A    
C12   H24   S    
C18   C19   A    
C39   C43   A    
C21   C34   A    
C4    C61   S    
Cu1   Cu2   S    
C35   C36   A    
C43   C44   S    
C59   H21   S    
C5    C9    A    
C37   C38   S    
C58   H20   S    
C17   C62   A    
C55   H15   S    
C31   C32   A    
H17   O16   S    
C48   C52   S    
C32   H22   S    
C17   C18   A    
C47   N1    A    
C15   O18   S    
C34   C45   A    
C57   O17   D    
C38   O13   S    
C39   N3    A    
C19   N2    S    
C39   C46   S    
C44   O16   S    
C28   O3    A    
C48   C49   A    
C25   C60   A    
C55   O14   D    
C58   O19   D    
C23   N1    S    
C2    C5    A    
C24   C56   A    
C17   C53   S    
Cu1   O26   S    
C11   N2    A    
C28   O2    A    
C50   C61   A    
C23   C48   A    
C14   C15   A    
C14   C19   A    
C3    C26   A    
C25   O7    S    
Cu2   N3    S    
C3    C5    A    
C40   O4    S    
C12   C50   A    
C46   H2    S    
C6    C7    A    
H8    O7    S    
C30   C36   A    
C51   O5    D    
Cu2   O27   S    
C49   C59   S    
C37   H25   S    
C13   N2    A    
C32   C33   A    
C33   H23   S    
Cu1   O1    S    
C52   H7    S    
Cu1   O24   S    
C41   N3    A    
Cu1   N4    S    
H16   O15   S    
C33   C35   A    
C15   C62   A    
C4    O25   A    
H14   O13   S    
C10   C11   A    
C54   H11   S    
C44   O15   S    
C53   O9    D    
C47   O21   S    
C20   C21   A    
C24   C58   S    
C43   N4    A    
C57   H18   S    
C4    O24   A    
C3    C22   A    
C11   O22   S    
C28   C62   S    
