data_mof_unit_41839.cif
_audit_creation_date              2012-10-26T19:09:54-0400
_audit_creation_method            fapswitch 2.2
_symmetry_space_group_name_H-M    P1
_symmetry_Int_Tables_number       1
_space_group_crystal_system       triclinic
_cell_length_a                    15.398958
_cell_length_b                    15.082576
_cell_length_c                    9.657642
_cell_angle_alpha                 89.325213
_cell_angle_beta                  89.419389
_cell_angle_gamma                 89.909613
_cell_volume                      2242.77175752

loop_
_atom_site_label
_atom_site_type_symbol
_atom_type_description
_atom_site_fract_x
_atom_site_fract_y
_atom_site_fract_z
_atom_type_partial_charge
C1    C     C_R   0.118548 0.379102 0.499938 0.581675
C2    C     C_R   0.882322 0.621286 0.499888 0.557455
C3    C     C_R   0.382433 0.878564 0.500616 0.556209
C4    C     C_R   0.381320 0.120945 0.499719 0.572331
C5    C     C_3   0.767090 0.301682 0.648548 -0.224903
C6    C     C_3   0.847552 0.221391 0.459178 -0.212145
C7    C     C_3   0.820205 0.749286 0.628332 -0.246752
C8    C     C_3   0.820248 0.749438 0.368991 -0.252821
C9    C     C_3   0.319148 0.750039 0.631271 -0.255875
C10   C     C_3   0.322471 0.750171 0.371691 -0.242749
C11   C     C_3   0.308831 0.240526 0.636789 -0.219063
C12   C     C_R   0.119780 0.620314 0.499305 0.584477
C13   C     C_3   0.324445 0.257092 0.378438 -0.218242
C14   C     C_3   0.244828 0.682238 0.632090 -0.264101
C15   C     C_3   0.252907 0.677131 0.375153 -0.260485
C16   C     C_3   0.237290 0.310899 0.637353 -0.265197
C17   C     C_3   0.254096 0.329428 0.381894 -0.267478
C18   C     C_3   0.694188 0.232550 0.644890 -0.259201
C19   C     C_3   0.776919 0.148870 0.465260 -0.268118
C20   C     C_3   0.749242 0.820841 0.625454 -0.260336
C21   C     C_3   0.745911 0.817355 0.367700 -0.264037
C22   C     C_3   0.737505 0.342102 0.404315 -0.144252
C23   C     C_R   0.619077 0.878984 0.500064 0.586018
C24   C     C_3   0.723513 0.642782 0.502140 -0.153109
C25   C     C_3   0.223732 0.856380 0.498377 -0.153388
C26   C     C_3   0.222232 0.143680 0.479299 -0.163366
C27   C     C_3   0.810026 0.312522 0.503628 -0.072124
C28   C     C_3   0.813036 0.689421 0.499790 -0.025893
C29   C     C_3   0.313460 0.810047 0.500783 -0.026920
C30   C     C_3   0.310977 0.189282 0.498665 -0.060058
C31   C     C_3   0.189070 0.690558 0.498795 0.058009
C32   C     C_3   0.186881 0.309130 0.499161 0.044011
C33   C     C_3   0.687472 0.191294 0.497946 0.029161
C34   C     C_R   0.618822 0.120989 0.499054 0.571599
C35   C     C_3   0.688063 0.808399 0.500074 0.056910
C36   C     C_3   0.149395 0.786892 0.491764 0.420134
C37   C     C_3   0.147899 0.213704 0.478163 0.406815
C38   C     C_3   0.669486 0.267901 0.389288 0.435305
C39   C     C_3   0.648570 0.712031 0.505738 0.419014
C40   C     C_3   0.918647 0.537334 0.081322 0.245268
C41   C     C_3   0.914837 0.526412 0.918222 0.231701
C42   C     C_3   0.010852 0.408127 0.083820 0.240839
C43   C     C_3   0.023519 0.410708 0.920655 0.250845
C44   C     C_3   0.525965 0.088162 0.079082 0.259016
C45   C     C_3   0.075104 0.555962 0.082569 0.223681
C46   C     C_3   0.518455 0.090361 0.915755 0.231641
C47   C     C_3   0.413526 0.977650 0.084146 0.229994
C48   C     C_3   0.416126 0.969330 0.920374 0.246460
C49   C     C_3   0.068597 0.564005 0.912764 0.233298
C50   C     C_3   0.565862 0.932902 0.085541 0.223906
C51   C     C_3   0.571293 0.938808 0.915142 0.222775
C52   C     C_R   0.880189 0.380484 0.501359 0.572126
Cl1   Cl    Cl    0.073904 0.806044 0.630903 -0.581480
Cl2   Cl    Cl    0.826990 0.456862 0.867946 -0.460432
Cl3   Cl    Cl    0.925530 0.331888 0.131155 -0.389468
Cl4   Cl    Cl    0.978430 0.316497 0.836398 -0.402925
Cl5   Cl    Cl    0.478240 0.182966 0.160225 -0.382721
Cl6   Cl    Cl    0.446480 0.175712 0.859591 -0.484747
Cl7   Cl    Cl    0.326145 0.047894 0.141298 -0.452155
Cl8   Cl    Cl    0.320348 0.012313 0.837927 -0.467923
Cl9   Cl    Cl    0.088800 0.805616 0.336825 -0.585105
Cl10  Cl    Cl    0.071664 0.185085 0.612374 -0.500081
Cl11  Cl    Cl    0.089928 0.206723 0.318201 -0.505792
Cl12  Cl    Cl    0.563312 0.314214 0.413242 -0.538419
Cl13  Cl    Cl    0.678647 0.230917 0.213786 -0.503937
Cl14  Cl    Cl    0.583616 0.693090 0.658017 -0.596188
Cl15  Cl    Cl    0.577013 0.692436 0.364148 -0.586079
Cl16  Cl    Cl    0.819474 0.505286 0.167643 -0.486793
Cu1   Cu    Cu3+1 0.000100 0.500000 0.642410 1.090298
Cu2   Cu    Cu3+1 0.000100 0.500000 0.357590 1.091014
Cu3   Cu    Cu3+1 0.500100 1.000000 0.642410 1.079882
Cu4   Cu    Cu3+1 0.500100 1.000000 0.357590 1.102642
H1    H     H_    0.738389 0.365812 0.680999 0.206603
H2    H     H_    0.901194 0.201988 0.529041 0.223343
H3    H     H_    0.885091 0.781406 0.630526 0.207255
H4    H     H_    0.883774 0.784564 0.367246 0.197871
H5    H     H_    0.382685 0.714795 0.632784 0.199437
H6    H     H_    0.388025 0.719264 0.368132 0.206982
H7    H     H_    0.372471 0.273532 0.652319 0.205644
H8    H     H_    0.389195 0.288420 0.385378 0.228056
H9    H     H_    0.271940 0.614043 0.642596 0.139912
H10   H     H_    0.284635 0.610916 0.383554 0.133100
H11   H     H_    0.266708 0.377503 0.652270 0.126073
H12   H     H_    0.874750 0.225689 0.352585 0.240020
H13   H     H_    0.284847 0.395149 0.398879 0.134925
H14   H     H_    0.708332 0.180257 0.723915 0.160098
H15   H     H_    0.793371 0.099050 0.546928 0.138185
H16   H     H_    0.779539 0.887819 0.621069 0.137671
H17   H     H_    0.772957 0.885598 0.358065 0.141957
H18   H     H_    0.204049 0.695387 0.724091 0.186113
H19   H     H_    0.218431 0.678938 0.275725 0.180984
H20   H     H_    0.193196 0.298617 0.727514 0.205765
H21   H     H_    0.222371 0.333213 0.279020 0.189546
H22   H     H_    0.631423 0.263780 0.675309 0.203991
H23   H     H_    0.812993 0.709021 0.725135 0.155108
H24   H     H_    0.775777 0.112521 0.365780 0.178411
H25   H     H_    0.712284 0.815589 0.723439 0.182880
H26   H     H_    0.706494 0.804452 0.275257 0.187539
H27   H     H_    0.707252 0.404300 0.443121 0.153645
H28   H     H_    0.765703 0.359445 0.301855 0.261283
H29   H     H_    0.719606 0.597141 0.593446 0.170276
H30   H     H_    0.718434 0.600012 0.409451 0.187704
H31   H     H_    0.216747 0.898027 0.592262 0.181841
H32   H     H_    0.221087 0.903086 0.408357 0.173244
H33   H     H_    0.212273 0.093740 0.563765 0.178956
H34   H     H_    0.816995 0.709181 0.273299 0.168382
H35   H     H_    0.223150 0.105560 0.381487 0.199055
H36   H     H_    0.913229 0.608710 0.100319 0.068585
H37   H     H_    0.893201 0.590192 0.872728 0.121668
H38   H     H_    0.067816 0.374617 0.130039 0.159007
H39   H     H_    0.091754 0.393514 0.901926 0.080368
H40   H     H_    0.593674 0.102811 0.099554 0.143053
H41   H     H_    0.579569 0.117565 0.872168 0.133523
H42   H     H_    0.390390 0.913771 0.127565 0.117590
H43   H     H_    0.404797 0.899050 0.898413 0.072505
H44   H     H_    0.125477 0.683848 0.099717 0.223136
H45   H     H_    0.314708 0.790298 0.727008 0.159848
H46   H     H_    0.018277 0.683234 0.134649 0.236996
H47   H     H_    0.990903 0.681597 0.919472 0.179211
H48   H     H_    0.095164 0.699400 0.880962 0.253163
H49   H     H_    0.175158 0.458468 0.074350 0.178874
H50   H     H_    0.210039 0.559602 0.116070 0.217826
H51   H     H_    0.201087 0.590674 0.891279 0.194290
H52   H     H_    0.181207 0.484702 0.854329 0.203482
H53   H     H_    0.697514 0.901349 0.103019 0.195416
H54   H     H_    0.681558 0.008576 0.136466 0.220410
H55   H     H_    0.705506 0.924412 0.878795 0.213653
H56   H     H_    0.314954 0.790427 0.275172 0.154914
H57   H     H_    0.678812 0.027961 0.916956 0.188002
H58   H     H_    0.484689 0.818037 0.086141 0.177563
H59   H     H_    0.588928 0.797444 0.119953 0.258866
H60   H     H_    0.505035 0.815888 0.869375 0.226019
H61   H     H_    0.612251 0.807438 0.895881 0.230408
H62   H     H_    0.295500 0.193844 0.724184 0.252456
H63   H     H_    0.320478 0.222979 0.277495 0.245604
H64   H     H_    0.815815 0.280547 0.726181 0.249027
N1    N     N_3   0.001260 0.500000 0.143650 -0.247849
N2    N     N_3   0.657049 0.972113 0.865588 -0.566065
N3    N     N_3   0.539044 0.843447 0.134781 -0.514618
N4    N     N_3   0.563663 0.848898 0.856912 -0.516632
N5    N     N_3   0.001260 0.500000 0.856350 -0.244077
N6    N     N_3   0.501260 1.000000 0.143650 -0.252520
N7    N     N_3   0.501260 1.000000 0.856350 -0.239443
N8    N     N_3   0.074722 0.645939 0.141628 -0.521238
N9    N     N_3   0.044146 0.654996 0.867387 -0.517428
N10   N     N_3   0.158175 0.515492 0.127939 -0.572771
N11   N     N_3   0.155222 0.548097 0.849053 -0.568482
N12   N     N_3   0.653273 0.946390 0.145058 -0.569177
O1    O     O_R   0.091250 0.408820 0.620260 -0.486439
O2    O     O_R   0.908940 0.408800 0.379740 -0.425518
O3    O     O_R   0.908940 0.591200 0.620260 -0.498503
O4    O     O_R   0.908940 0.591200 0.379740 -0.477609
O5    O     O_R   0.408940 0.908800 0.620260 -0.480055
O6    O     O_R   0.408940 0.908800 0.379740 -0.498137
O7    O     O_R   0.408940 0.091200 0.620260 -0.419910
O8    O     O_R   0.408940 0.091200 0.379740 -0.420128
O9    O     O_R   0.091250 0.408820 0.379740 -0.487783
O10   O     O_R   0.091250 0.591180 0.620260 -0.442450
O11   O     O_R   0.091250 0.591180 0.379740 -0.446181
O12   O     O_R   0.591250 0.908820 0.620260 -0.442440
O13   O     O_R   0.591250 0.908820 0.379740 -0.444196
O14   O     O_R   0.591250 0.091180 0.620260 -0.514540
O15   O     O_R   0.591250 0.091180 0.379740 -0.446346
O16   O     O_R   0.908940 0.408800 0.620260 -0.416436

loop_
_geom_bond_atom_site_label_1
_geom_bond_atom_site_label_2
_ccdc_geom_bond_type
C47   H42   S    
Cu4   O8    S    
Cu3   O14   S    
C5    H64   S    
C9    H45   S    
Cu2   O2    S    
Cu1   O16   S    
C8    H4    S    
C14   C31   S    
C37   Cl10  S    
C10   H6    S    
C21   H17   S    
Cu4   N6    S    
C6    C19   S    
C47   N6    S    
C18   H14   S    
C17   H13   S    
Cu2   N1    S    
Cu2   O11   S    
H46   N8    S    
C10   C15   S    
Cu1   N5    S    
C22   C38   S    
C3    O5    A    
C24   C39   S    
C49   N11   S    
C24   H29   S    
C3    C29   S    
C16   C32   S    
C14   H18   S    
C36   Cl1   S    
C5    C27   S    
C20   C35   S    
H57   N2    S    
C47   C48   S    
C11   C30   S    
C49   N5    S    
C45   N8    S    
Cu4   O13   S    
C1    O1    A    
H55   N2    S    
C9    C29   S    
C40   H36   S    
C51   N4    S    
H50   N10   S    
C13   H8    S    
H48   N9    S    
C41   H37   S    
C46   Cl6   S    
C42   N1    S    
C25   C29   S    
C13   H63   S    
C43   H39   S    
C10   H56   S    
H58   N3    S    
C26   H33   S    
C37   Cl11  S    
C44   C46   S    
C48   Cl8   S    
C15   H10   S    
C38   Cl12  S    
C2    O4    A    
H52   N11   S    
C6    H12   S    
C20   H25   S    
C45   N10   S    
Cu1   O3    S    
C13   C30   S    
Cu4   O6    S    
H44   N8    S    
C34   O15   A    
C19   C33   S    
C11   H62   S    
H54   N12   S    
C50   N3    S    
C25   H31   S    
C7    H3    S    
C5    C18   S    
C6    H2    S    
C47   Cl7   S    
C3    O6    A    
C7    C28   S    
C48   N7    S    
C8    H34   S    
C35   C39   S    
C9    C14   S    
C41   N5    S    
Cu3   O12   S    
C42   Cl3   S    
C11   C16   S    
C6    C27   S    
C38   Cl13  S    
C45   C49   S    
C44   Cl5   S    
Cu3   O7    S    
C23   O12   A    
C45   N1    S    
C50   C51   S    
C49   N9    S    
C26   C37   S    
C9    H5    S    
C32   C37   S    
C15   C31   S    
C11   H7    S    
C52   O16   A    
C40   N1    S    
C44   H40   S    
C52   O2    A    
C40   C41   S    
C4    O8    A    
H51   N11   S    
C26   C30   S    
C23   C35   S    
C22   C27   S    
C48   H43   S    
C12   C31   S    
C18   H22   S    
C39   Cl14  S    
Cu1   O10   S    
C43   N5    S    
H47   N9    S    
C42   C43   S    
C36   Cl9   S    
C27   C52   S    
Cu3   N7    S    
C50   N12   S    
C2    O3    A    
Cu2   O4    S    
C22   H27   S    
C46   H41   S    
C31   C36   S    
C39   Cl15  S    
C24   C28   S    
C34   O14   A    
H53   N12   S    
C8    C21   S    
C26   H35   S    
C16   H11   S    
C25   H32   S    
C16   H20   S    
C46   N7    S    
C21   C35   S    
C51   N7    S    
H60   N4    S    
C7    H23   S    
C19   H15   S    
C33   C38   S    
C13   C17   S    
Cu2   O9    S    
Cu1   O1    S    
C1    O9    A    
C42   H38   S    
Cu3   Cu4   S    
C21   H26   S    
C10   C29   S    
C8    C28   S    
C20   H16   S    
Cu4   O15   S    
C33   C34   S    
C24   H30   S    
C1    C32   S    
C12   O11   A    
C5    H1    S    
Cu1   Cu2   S    
C18   C33   S    
C41   Cl2   S    
C22   H28   S    
H59   N3    S    
C25   C36   S    
C15   H19   S    
C51   N2    S    
C43   Cl4   S    
C4    O7    A    
C17   H21   S    
H61   N4    S    
C44   N6    S    
C7    C20   S    
C40   Cl16  S    
C17   C32   S    
H49   N10   S    
C2    C28   S    
C14   H9    S    
C12   O10   A    
C4    C30   S    
C19   H24   S    
C50   N6    S    
C23   O13   A    
Cu3   O5    S    
