data_mof_unit_42765.cif
_audit_creation_date              2012-12-11T14:28:26-0500
_audit_creation_method            fapswitch 2.2
_symmetry_space_group_name_H-M    P1
_symmetry_Int_Tables_number       1
_space_group_crystal_system       triclinic
_cell_length_a                    11.132441
_cell_length_b                    20.025745
_cell_length_c                    18.612667
_cell_angle_alpha                 90.956936
_cell_angle_beta                  89.729436
_cell_angle_gamma                 90.671477
_cell_volume                      4148.51667372

loop_
_atom_site_label
_atom_site_type_symbol
_atom_type_description
_atom_site_fract_x
_atom_site_fract_y
_atom_site_fract_z
_atom_type_partial_charge
C1    C     C_R   0.314147 0.937392 0.637942 0.547963
C2    C     C_3   0.119475 0.686148 0.013906 -0.136419
C3    C     C_3   0.036442 0.208747 0.970458 -0.060919
C4    C     C_3   0.606796 0.318308 0.465355 -0.038075
C5    C     C_3   0.628266 0.295555 0.033744 -0.137657
C6    C     C_3   0.545641 0.690732 0.526799 -0.078622
C7    C     C_3   0.536442 0.708747 0.970458 -0.060919
C8    C     C_3   0.232364 0.799896 0.493275 -0.210630
C9    C     C_3   0.185932 0.744853 0.980694 -0.188628
C10   C     C_3   0.178271 0.186604 0.501294 -0.129332
C11   C     C_3   0.149538 0.233850 0.009215 -0.115880
C12   C     C_3   0.732363 0.299896 0.493275 -0.210631
C13   C     C_3   0.209935 0.247523 0.549303 -0.099591
C14   C     C_3   0.685932 0.244854 0.980694 -0.188628
C15   C     C_3   0.678271 0.686604 0.501294 -0.129332
C16   C     C_3   0.649538 0.733850 0.009215 -0.115880
C17   C     C_3   0.172149 0.766684 0.559348 -0.010652
C18   C     C_3   0.082988 0.753680 0.928148 0.110159
C19   C     C_3   0.148434 0.234347 0.440111 0.077982
C20   C     C_3   0.073111 0.250823 0.075574 0.111679
C21   C     C_3   0.672149 0.266684 0.559348 -0.010651
C22   C     C_3   0.582988 0.253680 0.928148 0.110159
C23   C     C_3   0.648434 0.734347 0.440111 0.077982
C24   C     C_3   0.132873 0.305431 0.982703 -0.152562
C25   C     C_3   0.573111 0.750823 0.075574 0.111679
C26   C     C_3   0.049214 0.784245 0.532102 -0.025455
C27   C     C_3   0.023806 0.804156 0.980703 -0.081063
C28   C     C_3   0.017590 0.238338 0.464420 -0.124388
C29   C     C_3   0.959476 0.225540 0.037607 -0.107048
C30   C     C_3   0.549214 0.284245 0.532102 -0.025454
C31   C     C_3   0.523806 0.304156 0.980703 -0.081063
C32   C     C_3   0.517590 0.738337 0.464420 -0.124387
C33   C     C_3   0.459476 0.725540 0.037607 -0.107049
C34   C     C_3   0.042280 0.717360 0.490688 -0.077673
C35   C     C_3   0.723581 0.232032 0.450821 -0.124116
C36   C     C_3   0.956089 0.745511 0.014748 -0.151582
C37   C     C_3   0.050519 0.299276 0.511994 -0.159764
C38   C     C_3   0.941019 0.296753 0.007968 -0.169382
C39   C     C_3   0.542280 0.217360 0.490688 -0.077666
C40   C     C_3   0.456089 0.245511 0.014748 -0.151582
C41   C     C_3   0.550519 0.799276 0.511994 -0.159764
C42   C     C_3   0.441019 0.796753 0.007968 -0.169382
C43   C     C_3   0.165471 0.701070 0.517456 0.274691
C44   C     C_3   0.015267 0.695961 0.960991 0.256648
C45   C     C_3   0.179428 0.294686 0.487243 0.301584
C46   C     C_3   0.619475 0.186148 0.013906 -0.136420
C47   C     C_3   0.051742 0.321076 0.049881 0.242121
C48   C     C_3   0.665471 0.201070 0.517456 0.274697
C49   C     C_3   0.515267 0.195961 0.960991 0.256649
C50   C     C_3   0.679428 0.794686 0.487243 0.301583
C51   C     C_3   0.551742 0.821076 0.049881 0.242121
C52   C     C_3   0.709935 0.747523 0.549303 -0.099591
C53   C     C_3   0.632873 0.805431 0.982703 -0.152562
C54   C     C_3   0.099134 0.750748 0.424735 0.034296
C55   C     C_3   0.062008 0.737052 0.066531 0.009532
C56   C     C_3   0.080038 0.251789 0.573110 -0.006085
C57   C     C_R   0.314017 0.936728 0.862071 0.553476
C58   C     C_3   0.020706 0.279035 0.941957 -0.035611
C59   C     C_3   0.599134 0.250748 0.424735 0.034294
C60   C     C_3   0.562008 0.237052 0.066531 0.009532
C61   C     C_3   0.580039 0.751788 0.573110 -0.006084
C62   C     C_3   0.520706 0.779035 0.941957 -0.035611
C63   C     C_R   0.304245 0.003146 0.423230 0.002715
C64   C     C_R   0.318945 0.040308 0.061004 0.043364
C65   C     C_R   0.309940 0.954585 0.562019 -0.020798
C66   C     C_R   0.314476 0.957643 0.938005 -0.015417
C67   C     C_R   0.804244 0.503146 0.423230 0.002714
C68   C     C_R   0.314946 0.038959 0.356664 0.561846
C69   C     C_R   0.818945 0.540308 0.061004 0.043364
C70   C     C_R   0.809940 0.454585 0.562020 -0.020798
C71   C     C_R   0.814476 0.457643 0.938005 -0.015417
C72   C     C_R   0.498041 0.955072 0.399646 -0.104810
C73   C     C_R   0.540848 0.045351 0.052205 -0.022553
C74   C     C_R   0.535860 0.957691 0.545951 -0.044439
C75   C     C_R   0.535079 0.949333 0.947277 -0.039879
C76   C     C_R   0.998041 0.455072 0.399646 -0.104810
C77   C     C_R   0.040848 0.545351 0.052205 -0.022553
C78   C     C_R   0.035860 0.457692 0.545951 -0.044438
C79   C     C_R   0.315944 0.062096 0.137373 0.582610
C80   C     C_R   0.035079 0.449333 0.947277 -0.039879
C81   C     C_R   0.610356 0.967484 0.425253 0.026351
C82   C     C_R   0.647766 0.019725 0.025902 -0.056479
C83   C     C_R   0.630671 0.965479 0.498668 0.042988
C84   C     C_R   0.644319 0.970579 0.973916 -0.060498
C85   C     C_R   0.110356 0.467484 0.425253 0.026350
C86   C     C_R   0.147766 0.519725 0.025902 -0.056478
C87   C     C_R   0.130671 0.465479 0.498668 0.042987
C88   C     C_R   0.144318 0.470579 0.973916 -0.060498
C89   C     C_R   0.416129 0.959625 0.520095 -0.023717
C90   C     C_R   0.814147 0.437393 0.637942 0.547963
C91   C     C_R   0.425328 0.976431 0.970141 0.070461
C92   C     C_R   0.402451 0.968056 0.446345 -0.032639
C93   C     C_R   0.428009 0.022367 0.027530 0.099081
C94   C     C_R   0.916129 0.459626 0.520095 -0.023719
C95   C     C_R   0.925328 0.476431 0.970141 0.070461
C96   C     C_R   0.902451 0.468056 0.446345 -0.032639
C97   C     C_R   0.928009 0.522367 0.027530 0.099081
C98   C     C_R   0.195041 0.969217 0.529560 -0.051655
C99   C     C_R   0.203412 0.976395 0.971242 -0.008425
C100  C     C_R   0.196380 0.005834 0.466229 -0.052183
C101  C     C_R   0.814017 0.436728 0.862071 0.553476
C102  C     C_R   0.208258 0.023738 0.026675 0.028633
C103  C     C_R   0.695040 0.469218 0.529560 -0.051655
C104  C     C_R   0.703412 0.476395 0.971242 -0.008425
C105  C     C_R   0.696380 0.505834 0.466229 -0.052183
C106  C     C_R   0.708258 0.523738 0.026675 0.028633
C107  C     C_R   0.078964 0.956744 0.561234 0.405125
C108  C     C_R   0.085676 0.957030 0.946323 0.361815
C109  C     C_R   0.088184 0.041740 0.449935 0.342769
C110  C     C_R   0.102364 0.058302 0.042770 0.387235
C111  C     C_R   0.578964 0.456744 0.561234 0.405125
C112  C     C_R   0.814946 0.538959 0.356664 0.561846
C113  C     C_R   0.585676 0.457030 0.946323 0.361815
C114  C     C_R   0.588184 0.541740 0.449935 0.342769
C115  C     C_R   0.602364 0.558302 0.042770 0.387235
C116  C     C_R   0.980573 0.994199 0.545839 -0.059745
C117  C     C_R   0.983861 0.991134 0.966096 -0.138462
C118  C     C_R   0.984205 0.034223 0.488339 -0.144691
C119  C     C_R   0.992195 0.042898 0.013768 -0.137025
C120  C     C_R   0.480573 0.494199 0.545839 -0.059745
C121  C     C_R   0.483861 0.491134 0.966096 -0.138462
C122  C     C_R   0.484205 0.534223 0.488339 -0.144691
C123  C     C_R   0.815944 0.562096 0.137373 0.582610
C124  C     C_R   0.492195 0.542898 0.013768 -0.137025
C125  C     C_R   0.189416 0.771495 0.638122 0.526100
C126  C     C_R   0.132297 0.758937 0.855031 0.611634
C127  C     C_R   0.180531 0.230010 0.363207 0.594590
C128  C     C_R   0.133594 0.240731 0.144471 0.632690
C129  C     C_R   0.689416 0.271495 0.638122 0.526102
C130  C     C_R   0.632297 0.258937 0.855031 0.611634
C131  C     C_R   0.680531 0.730010 0.363207 0.594590
C132  C     C_R   0.633594 0.740731 0.144471 0.632690
C133  C     C_R   0.540527 0.770506 0.644946 0.551827
C134  C     C_3   0.223581 0.732032 0.450821 -0.124114
C135  C     C_R   0.497555 0.787747 0.863049 0.514888
C136  C     C_R   0.545986 0.230916 0.353682 0.562114
C137  C     C_R   0.536106 0.226582 0.142769 0.537061
C138  C     C_R   0.040526 0.270506 0.644945 0.551827
C139  C     C_R   0.997555 0.287747 0.863049 0.514888
C140  C     C_R   0.045986 0.730916 0.353682 0.562114
C141  C     C_R   0.036106 0.726582 0.142769 0.537061
C142  C     C_3   0.106796 0.818308 0.465355 -0.038074
C143  C     C_3   0.128266 0.795555 0.033744 -0.137657
C144  C     C_3   0.045641 0.190732 0.526798 -0.078623
Cr1   Cr    Cr6+3 0.488160 0.884660 0.750000 1.045028
Cr2   Cr    Cr6+3 0.333410 0.272740 0.250000 1.104133
Cr3   Cr    Cr6+3 0.833410 0.227260 0.750000 1.081346
Cr4   Cr    Cr6+3 0.833410 0.772740 0.250000 1.104133
Cr5   Cr    Cr6+3 0.488160 0.115340 0.250000 1.047967
Cr6   Cr    Cr6+3 0.988160 0.384660 0.750000 1.045030
Cr7   Cr    Cr6+3 0.988160 0.615340 0.250000 1.047967
Cr8   Cr    Cr6+3 0.173480 0.883120 0.750000 1.156909
Cr9   Cr    Cr6+3 0.173480 0.116880 0.250000 1.127319
Cr10  Cr    Cr6+3 0.673480 0.383120 0.750000 1.156909
Cr11  Cr    Cr6+3 0.673480 0.616880 0.250000 1.127319
Cr12  Cr    Cr6+3 0.333410 0.727260 0.750000 1.081349
F1    F     F_    0.078465 0.092757 0.405403 -0.624606
F2    F     F_    0.109405 0.115271 0.076071 -0.676731
F3    F     F_    0.053944 0.907154 0.605808 -0.603510
F4    F     F_    0.063382 0.908734 0.898273 -0.638881
F5    F     F_    0.578465 0.592757 0.405403 -0.624606
F6    F     F_    0.609405 0.615271 0.076071 -0.676731
F7    F     F_    0.553944 0.407154 0.605808 -0.603510
F8    F     F_    0.563382 0.408734 0.898273 -0.638881
H1    H     H_    0.307617 0.835469 0.491309 0.110519
H2    H     H_    0.900699 0.980367 0.939332 0.144001
H3    H     H_    0.907705 0.062909 0.474425 0.231163
H4    H     H_    0.915747 0.074109 0.024993 0.119509
H5    H     H_    0.399529 0.490282 0.577758 0.212429
H6    H     H_    0.400699 0.480367 0.939332 0.144001
H7    H     H_    0.407705 0.562909 0.474424 0.231163
H8    H     H_    0.415747 0.574109 0.024993 0.119509
H9    H     H_    0.082217 0.866909 0.442162 0.155761
H10   H     H_    0.175224 0.835994 0.064375 0.158713
H11   H     H_    0.990371 0.150324 0.549093 0.194105
H12   H     H_    0.275129 0.735890 0.957832 0.128967
H13   H     H_    0.031440 0.162132 0.937468 0.176558
H14   H     H_    0.582217 0.366909 0.442162 0.155761
H15   H     H_    0.675224 0.335994 0.064375 0.158713
H16   H     H_    0.490372 0.650324 0.549093 0.194104
H17   H     H_    0.531440 0.662132 0.937468 0.176558
H18   H     H_    0.976367 0.799420 0.568991 0.240358
H19   H     H_    0.961878 0.846225 0.974031 0.182693
H20   H     H_    0.952510 0.238551 0.420658 0.138183
H21   H     H_    0.889664 0.193345 0.062568 0.142115
H22   H     H_    0.476367 0.299420 0.568991 0.240359
H23   H     H_    0.236573 0.142256 0.496930 0.140647
H24   H     H_    0.461878 0.346225 0.974031 0.182693
H25   H     H_    0.452510 0.738551 0.420658 0.138183
H26   H     H_    0.389664 0.693345 0.062568 0.142115
H27   H     H_    0.963731 0.682558 0.490383 0.145587
H28   H     H_    0.868748 0.753898 0.040077 0.110067
H29   H     H_    0.991971 0.341538 0.518342 0.100945
H30   H     H_    0.861221 0.328808 0.004877 0.127522
H31   H     H_    0.463730 0.182558 0.490383 0.145592
H32   H     H_    0.368748 0.253898 0.040077 0.110067
H33   H     H_    0.491970 0.841537 0.518342 0.100945
H34   H     H_    0.224891 0.198927 0.006597 0.193315
H35   H     H_    0.361221 0.828808 0.004877 0.127522
H36   H     H_    0.280703 0.703002 0.413437 0.162283
H37   H     H_    0.180031 0.645196 0.026703 0.107766
H38   H     H_    0.286724 0.251154 0.586976 0.142052
H39   H     H_    0.209064 0.334450 0.960289 0.134021
H40   H     H_    0.780703 0.203002 0.413437 0.162283
H41   H     H_    0.680031 0.145196 0.026703 0.107766
H42   H     H_    0.786724 0.751154 0.586976 0.142050
H43   H     H_    0.709064 0.834450 0.960289 0.134021
H44   H     H_    0.678539 0.983698 0.387823 0.198103
H45   H     H_    0.807617 0.335469 0.491309 0.110520
H46   H     H_    0.732181 0.035565 0.049000 0.101717
H47   H     H_    0.719123 0.974818 0.519561 0.210140
H48   H     H_    0.724597 0.946585 0.955664 0.092656
H49   H     H_    0.178539 0.483698 0.387823 0.198103
H50   H     H_    0.232181 0.535565 0.049000 0.101717
H51   H     H_    0.219123 0.474818 0.519561 0.210140
H52   H     H_    0.224597 0.446585 0.955664 0.092656
H53   H     H_    0.486492 0.950402 0.342119 0.139235
H54   H     H_    0.549201 0.083909 0.091148 0.155658
H55   H     H_    0.563663 0.955344 0.600631 0.199050
H56   H     H_    0.775128 0.235890 0.957832 0.128967
H57   H     H_    0.537728 0.908657 0.911730 0.143772
H58   H     H_    0.986492 0.450402 0.342119 0.139235
H59   H     H_    0.049201 0.583909 0.091148 0.155658
H60   H     H_    0.063663 0.455345 0.600631 0.199051
H61   H     H_    0.037728 0.408657 0.911730 0.143772
H62   H     H_    0.044999 0.624977 0.620377 0.358754
H63   H     H_    0.871784 0.653939 0.789197 0.378239
H64   H     H_    0.383970 0.413029 0.389562 0.355881
H65   H     H_    0.974658 0.375221 0.236382 0.363086
H66   H     H_    0.545008 0.124972 0.620382 0.358765
H67   H     H_    0.736573 0.642256 0.496930 0.140646
H68   H     H_    0.371784 0.153939 0.789197 0.378239
H69   H     H_    0.883970 0.913029 0.389561 0.355881
H70   H     H_    0.474657 0.875221 0.236382 0.363086
H71   H     H_    0.724891 0.698927 0.006597 0.193315
H72   H     H_    0.899529 0.990282 0.577758 0.212429
O1    O     O_R   0.575450 0.828820 0.667950 -0.513595
O2    O     O_R   0.416860 0.942890 0.825320 -0.493669
O3    O     O_R   0.416860 0.057110 0.325320 -0.506259
O4    O     O_R   0.416860 0.057110 0.174680 -0.494606
O5    O     O_R   0.916860 0.442890 0.674680 -0.511519
O6    O     O_R   0.916860 0.442890 0.825320 -0.493669
O7    O     O_R   0.916860 0.557110 0.325320 -0.506259
O8    O     O_R   0.916860 0.557110 0.174680 -0.494606
O9    O     O_R   0.213790 0.953680 0.668330 -0.435652
O10   O     O_R   0.213790 0.953680 0.831670 -0.403519
O11   O     O_R   0.213790 0.046320 0.331670 -0.446539
O12   O     O_R   0.575450 0.828820 0.832050 -0.512429
O13   O     O_R   0.213790 0.046320 0.168330 -0.458194
O14   O     O_R   0.713790 0.453680 0.668330 -0.435652
O15   O     O_R   0.713790 0.453680 0.831670 -0.403519
O16   O     O_R   0.713790 0.546320 0.331670 -0.446539
O17   O     O_R   0.713790 0.546320 0.168330 -0.458195
O18   O     O_R   0.121360 0.817890 0.672660 -0.433533
O19   O     O_R   0.121360 0.817890 0.827340 -0.432834
O20   O     O_R   0.121360 0.182110 0.327340 -0.441631
O21   O     O_R   0.121360 0.182110 0.172660 -0.441564
O22   O     O_R   0.621360 0.317890 0.672660 -0.433533
O23   O     O_R   0.575450 0.171180 0.332050 -0.499341
O24   O     O_R   0.621360 0.317890 0.827340 -0.432833
O25   O     O_R   0.621360 0.682110 0.327340 -0.441631
O26   O     O_R   0.621360 0.682110 0.172660 -0.441565
O27   O     O_R   0.206850 0.711370 0.665820 -0.460051
O28   O     O_R   0.206850 0.711370 0.834180 -0.505396
O29   O     O_R   0.206850 0.288630 0.334180 -0.426911
O30   O     O_R   0.206850 0.288630 0.165820 -0.469087
O31   O     O_R   0.706850 0.211370 0.665820 -0.460056
O32   O     O_R   0.706850 0.211370 0.834180 -0.505397
O33   O     O_R   0.706850 0.788630 0.334180 -0.426912
O34   O     O_R   0.575450 0.171180 0.167950 -0.550323
O35   O     O_R   0.706850 0.788630 0.165820 -0.469087
O36   O     O_R   0.457710 0.733190 0.672630 -0.495727
O37   O     O_R   0.457710 0.733190 0.827370 -0.489937
O38   O     O_R   0.457710 0.266810 0.327370 -0.454129
O39   O     O_R   0.457710 0.266810 0.172630 -0.513028
O40   O     O_R   0.957710 0.233190 0.672630 -0.495727
O41   O     O_R   0.957710 0.233190 0.827370 -0.489937
O42   O     O_R   0.957710 0.766810 0.327370 -0.454130
O43   O     O_R   0.957710 0.766810 0.172630 -0.513028
O44   O     O_3   0.331690 0.831680 0.750000 -0.402944
O45   O     O_R   0.075450 0.328820 0.667950 -0.513595
O46   O     O_3   0.331690 0.168320 0.250000 -0.364676
O47   O     O_3   0.831690 0.331680 0.750000 -0.402944
O48   O     O_3   0.831690 0.668320 0.250000 -0.364676
O49   O     O_2   0.206816 0.586733 0.469810 -0.364133
O50   O     O_2   0.296791 0.611001 0.588229 -0.314153
O51   O     O_3   0.064610 0.590840 0.583217 -0.531686
O52   O     O_2   0.020504 0.586584 0.874979 -0.269186
O53   O     O_2   0.824283 0.615977 0.927319 -0.337975
O54   O     O_3   0.905773 0.687038 0.823878 -0.509347
O55   O     O_2   0.342383 0.381413 0.531744 -0.354990
O56   O     O_R   0.075450 0.328820 0.832050 -0.512429
O57   O     O_2   0.376671 0.294171 0.442933 -0.360635
O58   O     O_3   0.299753 0.396900 0.393536 -0.531091
O59   O     O_2   0.121996 0.427689 0.134841 -0.284287
O60   O     O_2   0.905109 0.414705 0.108534 -0.339550
O61   O     O_3   0.993766 0.339543 0.200819 -0.511283
O62   O     O_2   0.706816 0.086733 0.469810 -0.364131
O63   O     O_2   0.796789 0.111000 0.588229 -0.314158
O64   O     O_3   0.564608 0.090840 0.583216 -0.531699
O65   O     O_2   0.520504 0.086584 0.874979 -0.269188
O66   O     O_2   0.324282 0.115976 0.927319 -0.337974
O67   O     O_R   0.075450 0.671180 0.332050 -0.499341
O68   O     O_3   0.405773 0.187038 0.823878 -0.509348
O69   O     O_2   0.842383 0.881413 0.531744 -0.354990
O70   O     O_2   0.876671 0.794171 0.442933 -0.360634
O71   O     O_3   0.799753 0.896900 0.393536 -0.531091
O72   O     O_2   0.621996 0.927690 0.134841 -0.284287
O73   O     O_2   0.405108 0.914705 0.108534 -0.339550
O74   O     O_3   0.493767 0.839543 0.200819 -0.511283
O75   O     O_R   0.075450 0.671180 0.167950 -0.550323
O76   O     O_R   0.416860 0.942890 0.674680 -0.511521
S1    S     S_3+6 0.188743 0.619442 0.541604 -0.043111
S2    S     S_3+6 0.939442 0.642790 0.896985 -0.004191
S3    S     S_3+6 0.297378 0.347608 0.465004 -0.071573
S4    S     S_3+6 0.019618 0.379451 0.123221 -0.001737
S5    S     S_3+6 0.688743 0.119442 0.541604 -0.043115
S6    S     S_3+6 0.439442 0.142790 0.896985 -0.004192
S7    S     S_3+6 0.797378 0.847608 0.465004 -0.071573
S8    S     S_3+6 0.519618 0.879451 0.123221 -0.001737

loop_
_geom_bond_atom_site_label_1
_geom_bond_atom_site_label_2
_ccdc_geom_bond_type
C46   H41   S    
C6    C32   S    
C71   C104  A    
O53   S2    D    
O69   S7    D    
H63   O54   S    
C73   C82   A    
C73   C93   A    
C74   C83   A    
Cr9   O21   S    
C9    C143  S    
C61   C133  S    
C65   C89   A    
C90   O14   A    
C55   C141  S    
C52   C61   S    
C117  C119  A    
C86   C88   A    
C71   C95   A    
C69   C123  S    
C54   C134  S    
C9    H12   S    
O55   S3    D    
C5    H15   S    
C37   C56   S    
C77   H59   S    
C50   C52   S    
C28   C144  S    
C41   C61   S    
C80   H61   S    
C4    C12   S    
C21   C48   S    
C100  C109  A    
C22   C130  S    
C7    C33   S    
C14   H56   S    
Cr3   O41   S    
C109  C118  A    
C11   C24   S    
C11   C20   S    
C140  O42   A    
O71   S7    S    
C141  O43   A    
O72   S8    D    
C70   C103  A    
C67   C105  A    
C114  F5    S    
C39   H31   S    
C137  O39   A    
C37   H29   S    
C17   C43   S    
C7    C62   S    
C18   C44   S    
C124  H8    S    
C117  H2    S    
C137  O34   A    
C94   C96   A    
Cr8   O9    S    
C22   C49   S    
C26   H18   S    
C34   C54   S    
C82   C84   A    
C64   C79   S    
C36   C44   S    
C37   C45   S    
Cr10  O24   S    
C16   C25   S    
C69   C106  A    
C127  O29   A    
C46   C60   S    
C139  O41   A    
Cr2   O38   S    
C130  O24   A    
C95   C97   A    
C8    C17   S    
Cr4   O43   S    
C106  C115  A    
C2    C55   S    
C80   C88   A    
C36   C55   S    
C1    O9    A    
C76   C96   A    
C13   C45   S    
C78   C94   A    
C138  O45   A    
Cr5   O3    S    
C116  C118  A    
Cr6   O47   S    
C27   H19   S    
C20   C47   S    
C3    C11   S    
Cr7   O7    S    
O58   S3    S    
Cr11  O25   S    
C67   C112  S    
C51   C53   S    
C76   C85   A    
C78   H60   S    
C78   C87   A    
Cr7   O75   S    
C40   C60   S    
Cr6   O56   S    
C57   C66   S    
C109  F1    S    
H68   O68   S    
C13   H38   S    
C64   C102  A    
C99   C108  A    
O66   S6    D    
C33   C42   S    
C6    C61   S    
H64   O58   S    
C12   H45   S    
C75   C84   A    
C40   C49   S    
C118  H3    S    
C3    C29   S    
Cr12  O28   S    
Cr6   O5    S    
C45   S3    S    
C2    C44   S    
C29   C38   S    
C1    C65   S    
C32   C41   S    
C77   C97   A    
C42   C62   S    
Cr10  O22   S    
C75   C91   A    
C13   C56   S    
C121  H6    S    
C133  O1    A    
C79   O4    A    
H69   O71   S    
C81   C83   A    
C142  H9    S    
C55   C143  S    
C7    H17   S    
C8    C134  S    
C41   H33   S    
Cr10  O14   S    
C16   H71   S    
C135  O37   A    
Cr6   O45   S    
C62   C135  S    
Cr2   O29   S    
C86   H50   S    
C19   C28   S    
C27   C143  S    
Cr1   O2    S    
C23   C131  S    
C103  C105  A    
C10   C144  S    
C12   C35   S    
C101  O6    A    
O62   S5    D    
C21   C129  S    
C1    O76   A    
Cr7   O67   S    
C132  O26   A    
C63   C68   S    
C5    C60   S    
C15   H67   S    
C47   S4    S    
C36   H28   S    
Cr4   O33   S    
C34   C43   S    
C4    H14   S    
C57   O10   A    
C110  F2    S    
C110  C119  A    
C19   C45   S    
C103  C111  A    
C80   C95   A    
C128  O21   A    
O51   S1    S    
C28   H20   S    
C11   H34   S    
C130  O32   A    
Cr7   O48   S    
C18   C126  S    
Cr1   O76   S    
C28   C37   S    
O59   S4    D    
C29   H21   S    
C30   C39   S    
C125  O18   A    
C107  C116  A    
C8    H1    S    
C104  C113  A    
C9    C18   S    
C113  C121  A    
C122  H7    S    
C128  O30   A    
C25   C132  S    
C25   C33   S    
C82   H46   S    
C69   C97   A    
C24   H39   S    
O60   S4    D    
C104  C106  A    
C48   S5    S    
C14   C46   S    
C46   C49   S    
C42   H35   S    
C70   C94   A    
C65   C98   A    
Cr12  O44   S    
C72   C92   A    
O73   S8    D    
C35   H40   S    
C31   C40   S    
C35   C59   S    
Cr5   O23   S    
C38   C58   S    
C51   S8    S    
C141  O75   A    
Cr4   O48   S    
Cr8   O10   S    
C72   C81   A    
Cr2   O46   S    
C6    H16   S    
C71   C101  S    
Cr4   O35   S    
Cr10  O47   S    
C101  O15   A    
C2    H37   S    
C35   C48   S    
C108  C117  A    
C139  O56   A    
Cr2   O39   S    
Cr3   O32   S    
C133  O36   A    
C98   C107  A    
C38   H30   S    
C33   H26   S    
C43   C134  S    
C91   C93   A    
Cr3   O47   S    
O68   S6    S    
C10   C19   S    
C39   C59   S    
C125  O27   A    
C136  O23   A    
C126  O28   A    
C15   C52   S    
C5    C14   S    
O57   S3    D    
C81   H44   S    
C7    C16   S    
C54   C142  S    
C98   C100  A    
C102  C110  A    
C41   C50   S    
O63   S5    D    
C115  C124  A    
C136  O38   A    
O61   S4    S    
C23   C50   S    
C68   O3    A    
Cr5   O34   S    
Cr8   O19   S    
Cr11  O16   S    
C84   H48   S    
Cr12  O36   S    
C27   C36   S    
C21   C30   S    
C23   C32   S    
C50   S7    S    
C14   C22   S    
O74   S8    S    
Cr9   O11   S    
H66   O64   S    
C120  H5    S    
C123  O17   A    
C56   C144  S    
C3    C58   S    
Cr6   O6    S    
C99   C102  A    
C24   C58   S    
O54   S2    S    
C87   H51   S    
C8    C142  S    
C143  H10   S    
C119  H4    S    
C39   C48   S    
C58   C139  S    
Cr11  O17   S    
C59   C136  S    
O52   S2    D    
C132  O35   A    
C134  H36   S    
C72   H53   S    
C52   H42   S    
C17   C26   S    
C30   H22   S    
C74   C89   A    
C34   H27   S    
C64   C93   A    
C20   C128  S    
Cr10  O15   S    
O50   S1    D    
O65   S6    D    
Cr5   O4    S    
C4    C59   S    
Cr11  O48   S    
Cr2   O30   S    
C16   C53   S    
H70   O74   S    
C121  C124  A    
C49   S6    S    
Cr8   O44   S    
C6    C15   S    
Cr11  O26   S    
C26   C34   S    
C112  O7    A    
C54   C140  S    
C31   H24   S    
Cr4   O42   S    
Cr1   O1    S    
C74   H55   S    
C73   H54   S    
Cr5   O46   S    
H65   O61   S    
C126  O19   A    
Cr3   O40   S    
C129  O31   A    
C60   C137  S    
C15   C23   S    
Cr7   O8    S    
O70   S7    D    
C79   O13   A    
C116  H72   S    
C70   C90   S    
C123  O8    A    
C120  C122  A    
C112  O16   A    
C20   C29   S    
C85   C87   A    
C68   O11   A    
C22   C31   S    
C43   S1    S    
C127  O20   A    
C105  C114  A    
C111  F7    S    
H62   O51   S    
Cr3   O31   S    
C129  O22   A    
C76   H58   S    
Cr9   O13   S    
C12   C21   S    
C138  O40   A    
C111  C120  A    
C66   C99   A    
C63   C92   A    
C25   C51   S    
C63   C100  A    
C85   H49   S    
Cr12  O27   S    
C56   C138  S    
C53   C62   S    
C131  O33   A    
C10   H23   S    
Cr12  O37   S    
C89   C92   A    
C38   C47   S    
C140  O67   A    
Cr9   O20   S    
O49   S1    D    
C77   C86   A    
C67   C96   A    
Cr1   O44   S    
C40   H32   S    
C88   H52   S    
Cr1   O12   S    
C24   C47   S    
C135  O12   A    
C18   C27   S    
C57   O2    A    
C44   S2    S    
C10   C13   S    
C107  F3    S    
C66   C91   A    
C108  F4    S    
O64   S5    S    
C42   C51   S    
C115  F6    S    
C3    H13   S    
Cr9   O46   S    
C113  F8    S    
Cr8   O18   S    
C2    C9    S    
C17   C125  S    
C144  H11   S    
C19   C127  S    
C53   H43   S    
C32   H25   S    
C83   H47   S    
C114  C122  A    
C75   H57   S    
C90   O5    A    
C131  O25   A    
C26   C142  S    
C4    C30   S    
C5    C31   S    
