data_mof_unit_27314.cif
_audit_creation_date              2013-03-05T16:44:16-0500
_audit_creation_method            fapswitch 2.2
_symmetry_space_group_name_H-M    P1
_symmetry_Int_Tables_number       1
_space_group_crystal_system       triclinic
_cell_length_a                    23.430466
_cell_length_b                    10.672772
_cell_length_c                    9.841292
_cell_angle_alpha                 90.077522
_cell_angle_beta                  89.745747
_cell_angle_gamma                 90.019928
_cell_volume                      2460.96579209

loop_
_atom_site_label
_atom_site_type_symbol
_atom_site_description
_atom_site_fract_x
_atom_site_fract_y
_atom_site_fract_z
_atom_type_partial_charge
O1    O     O_R   0.500010 0.316790 0.614690 -0.617277
O2    O     O_R   0.500000 0.316760 0.385350 -0.621154
C1    C     C_R   0.498097 0.259879 0.499996 0.888192
O3    O     O_R   0.416160 0.499980 0.614700 -0.622108
O4    O     O_R   0.416150 0.499940 0.385360 -0.623177
C2    C     C_R   0.389265 0.499835 0.500244 0.883523
Zn1   Zn    Zn3+2 0.500000 0.500020 0.653130 0.948489
Zn2   Zn    Zn3+2 0.500000 0.499980 0.346870 0.948352
O5    O     O_R   0.500000 0.683240 0.614650 -0.619635
O6    O     O_R   0.499990 0.683210 0.385310 -0.627874
O7    O     O_R   0.583850 0.500060 0.614640 -0.621327
O8    O     O_R   0.583840 0.500020 0.385300 -0.617616
C3    C     C_R   0.498110 0.740151 0.500081 0.887625
C4    C     C_R   0.610729 0.500182 0.499659 0.877120
C5    C     C_R   0.880724 0.610057 0.520783 0.503332
N1    N     N_R   0.852355 0.500641 0.495452 -0.360686
C6    C     C_R   0.880364 0.390881 0.469167 0.503803
C7    C     C_R   0.939944 0.388066 0.467924 -0.015594
C8    C     C_R   0.970035 0.499769 0.494230 -0.021662
C9    C     C_R   0.940314 0.611997 0.520759 -0.015232
C10   C     C_R   0.969940 0.276743 0.441641 -0.158890
C11   C     C_R   0.029348 0.276142 0.441770 -0.159109
C12   C     C_R   0.059707 0.386847 0.468195 -0.013993
C13   C     C_R   0.029986 0.499181 0.494317 -0.022381
C14   C     C_R   0.060074 0.610886 0.520758 -0.017351
C15   C     C_R   0.030089 0.722311 0.546444 -0.160787
C16   C     C_R   0.970681 0.722856 0.546492 -0.157638
C17   C     C_R   0.119280 0.388452 0.469993 0.486201
N2    N     N_R   0.147565 0.497530 0.497130 -0.361465
C18   C     C_R   0.119631 0.607727 0.521197 0.508769
O9    O     O_2   0.851208 0.716385 0.545223 -0.549143
O10   O     O_2   0.850500 0.284995 0.445257 -0.548388
H1    H     H_    0.947658 0.189843 0.421179 0.194422
H2    H     H_    0.051342 0.188799 0.421467 0.193874
O11   O     O_2   0.148880 0.282208 0.445750 -0.552015
O12   O     O_2   0.149564 0.713403 0.545634 -0.556008
H3    H     H_    0.052376 0.809208 0.566892 0.193204
H4    H     H_    0.948693 0.810182 0.566911 0.193988
C19   C     C_R   0.238085 0.516880 0.379430 -0.130605
H5    H     H_    0.215221 0.532234 0.285483 0.142925
C20   C     C_R   0.297211 0.518105 0.379156 -0.217742
H6    H     H_    0.319488 0.534756 0.284233 0.159961
C21   C     C_R   0.327006 0.499036 0.500511 -0.074779
C22   C     C_R   0.296984 0.478440 0.622018 -0.229984
H7    H     H_    0.319726 0.462361 0.715754 0.155057
C23   C     C_R   0.237427 0.476826 0.623545 0.213579
C24   C     C_R   0.208209 0.496384 0.500492 0.293922
C25   C     C_R   0.762043 0.493684 0.374012 -0.100280
H8    H     H_    0.785005 0.488270 0.278436 0.139739
C26   C     C_R   0.702819 0.493597 0.374872 -0.212531
H9    H     H_    0.680526 0.487852 0.278891 0.164268
C27   C     C_R   0.672976 0.500515 0.498726 -0.045333
C28   C     C_R   0.703102 0.507821 0.621504 -0.217768
H10   H     H_    0.681013 0.513428 0.718230 0.163013
C29   C     C_R   0.762347 0.508151 0.620215 -0.100150
H11   H     H_    0.785555 0.513607 0.714962 0.139621
C30   C     C_R   0.791683 0.500951 0.496568 0.321483
C31   C     C_R   0.487451 0.064171 0.623387 0.127111
C32   C     C_R   0.488521 0.128627 0.500517 -0.103932
C33   C     C_R   0.478326 0.064597 0.378469 -0.216264
H12   H     H_    0.474653 0.113356 0.282463 0.165306
C34   C     C_R   0.478297 0.935066 0.378560 -0.217285
H13   H     H_    0.474533 0.885958 0.282589 0.170245
C35   C     C_R   0.488510 0.871434 0.500697 -0.103804
C36   C     C_R   0.487413 0.936346 0.623507 0.146905
C37   C     C_3   0.526758 0.929567 0.742496 -0.492895
C38   C     C_3   0.526877 0.071588 0.742195 -0.470055
H14   H     H_    0.505501 0.889132 0.833639 0.202027
H15   H     H_    0.568926 0.887953 0.716358 0.206401
H16   H     H_    0.505849 0.112898 0.833270 0.200044
H17   H     H_    0.569093 0.112707 0.715592 0.211544
C39   C     C_R   0.478762 0.399791 0.071435 0.215851
N3    N     N_R   0.499610 0.499140 0.142800 -0.107564
C40   C     C_R   0.526014 0.593024 0.071905 -0.135309
H18   H     H_    0.546096 0.669237 0.126245 0.150544
C41   C     C_R   0.526108 0.592897 0.927768 -0.134406
H19   H     H_    0.546447 0.668701 0.873211 0.146903
N4    N     N_R   0.499610 0.499180 0.857150 -0.105614
C42   C     C_R   0.478684 0.399913 0.928729 0.216006
C43   C     C_3   0.419061 0.351547 0.923841 -0.513460
C44   C     C_3   0.419243 0.350874 0.078089 -0.502591
H20   H     H_    0.388834 0.420860 0.880874 0.213122
H21   H     H_    0.416704 0.256256 0.878517 0.201685
H22   H     H_    0.388844 0.419111 0.123636 0.217436
H23   H     H_    0.417294 0.255055 0.121887 0.197665
C45   C     C_3   0.206481 0.452121 0.756165 -0.416485
C46   C     C_3   0.211536 0.563523 0.852818 -0.824102
H24   H     H_    0.256917 0.581715 0.878343 0.249879
H25   H     H_    0.192906 0.648661 0.805809 0.293967
H26   H     H_    0.187951 0.543069 0.948388 0.248379
H27   H     H_    0.160514 0.432328 0.739977 0.214998
H28   H     H_    0.224912 0.367556 0.805054 0.212972

loop_
_geom_bond_atom_site_label_1
_geom_bond_atom_site_label_2
_geom_bond_distance
_ccdc_geom_bond_type
C37   H14   1.111656 S    
C29   H11   1.082977 S    
C7    C10   1.403789 A    
C20   H6    1.082932 S    
C8    C9    1.409224 A    
C46   H24   1.110628 S    
C25   C30   1.396483 A    
C19   C20   1.385393 A    
C28   H10   1.083086 S    
C22   H7    1.081291 S    
Zn1   O7    1.999176 S    
C15   C16   1.391960 A    
C34   H13   1.083458 S    
C40   C41   1.418495 A    
N2    C24   1.421492 S    
C17   N2    1.366033 A    
C41   N4    1.367627 A    
C39   C42   1.404427 A    
C45   H27   1.109627 S    
C43   H21   1.111442 S    
O4    C2    1.291805 A    
O7    C4    1.292574 A    
C37   H15   1.112349 S    
C10   H1    1.083223 S    
C16   H4    1.083223 S    
C5    N1    1.366685 A    
C33   C34   1.382454 A    
C7    C8    1.409123 A    
N3    C40   1.367900 A    
O5    C3    1.282368 A    
C34   C35   1.402902 A    
C4    C27   1.458479 S    
C17   O11   1.349825 S    
N1    C6    1.366786 A    
C26   C27   1.404381 A    
C12   C13   1.409464 A    
C39   C44   1.490101 S    
C25   C26   1.387625 A    
C37   C38   1.515760 S    
C32   C33   1.402476 A    
C10   C11   1.391994 A    
C20   C21   1.401172 A    
O3    Zn1   2.002133 S    
C22   C23   1.395570 A    
C26   H9    1.083063 S    
C28   C29   1.388138 A    
C5    C9    1.396362 A    
C11   H2    1.083231 S    
C40   H18   1.081574 S    
C13   C14   1.409334 A    
C43   H20   1.109733 S    
C19   H5    1.083297 S    
C45   C46   1.526517 S    
C39   N3    1.362661 A    
C14   C15   1.403540 A    
C33   H12   1.083047 S    
O1    C1    1.282021 A    
C21   C22   1.402203 A    
N2    C18   1.366064 A    
C31   C36   1.364251 A    
Zn2   O8    2.002131 S    
C6    C7    1.396306 A    
C12   C17   1.396106 A    
C41   H19   1.080991 S    
Zn1   N4    2.007833 S    
O3    C2    1.293123 A    
C25   H8    1.082996 S    
O8    C4    1.292219 A    
C2    C21   1.458761 S    
C29   C30   1.396950 A    
C44   H22   1.111420 S    
C27   C28   1.404122 A    
C19   C24   1.396606 A    
C14   C18   1.395895 A    
Zn1   O5    1.992300 S    
C23   C24   1.409581 A    
O1    Zn1   1.991323 S    
O2    Zn2   1.992298 S    
C43   C44   1.518047 S    
O6    C3    1.282479 A    
O4    Zn2   1.999177 S    
C15   H3    1.083235 S    
C5    O9    1.349916 S    
C9    C16   1.403740 A    
C18   O12   1.349818 S    
C38   H16   1.111594 S    
C35   C36   1.392421 A    
C46   H25   1.110598 S    
O2    C1    1.282537 A    
C31   C32   1.392125 A    
C45   H28   1.111693 S    
N4    C42   1.362958 A    
C3    C35   1.419168 S    
Zn2   N3    2.008382 S    
C8    C13   1.404707 A    
C38   H17   1.112326 S    
N1    C30   1.421558 S    
C42   C43   1.490100 S    
C31   C38   1.495319 S    
Zn2   O6    1.991325 S    
C36   C37   1.495397 S    
C46   H26   1.110635 S    
C6    O10   1.349936 S    
C11   C12   1.403511 A    
C44   H23   1.111162 S    
C23   C45   1.513641 S    
C1    C32   1.418605 S    
