data_mof_unit_51340.cif
_audit_creation_date              2012-12-10T20:34:12-0500
_audit_creation_method            fapswitch 2.2
_symmetry_space_group_name_H-M    P1
_symmetry_Int_Tables_number       1
_space_group_crystal_system       triclinic
_cell_length_a                    9.886075
_cell_length_b                    10.679084
_cell_length_c                    13.631471
_cell_angle_alpha                 89.917643
_cell_angle_beta                  84.170774
_cell_angle_gamma                 90.051894
_cell_volume                      1431.68800616

loop_
_atom_site_label
_atom_site_type_symbol
_atom_type_description
_atom_site_fract_x
_atom_site_fract_y
_atom_site_fract_z
_atom_type_partial_charge
C1    C     C_R   0.500355 0.739969 0.497418 0.902984
C2    C     C_3   0.255492 0.928628 0.558096 -0.476542
C3    C     C_R   0.917309 0.496794 0.586823 0.214001
C4    C     C_R   0.476921 0.499023 0.685481 0.924947
C5    C     C_R   0.940081 0.492756 0.414254 -0.164288
C6    C     C_R   0.083679 0.492537 0.414266 -0.134024
C7    C     C_R   0.059738 0.497598 0.586382 0.205129
C8    C     C_3   0.057764 0.591348 0.667161 -0.654897
C9    C     C_3   0.902857 0.590054 0.670171 -0.133109
C10   C     C_R   0.500337 0.260025 0.497303 0.877978
C11   C     C_R   0.522914 0.502530 0.314528 0.891592
C12   C     C_1   0.461933 0.495323 0.788821 -0.093427
C13   C     C_1   0.536395 0.524922 0.212597 -0.163888
C14   C     C_2   0.534512 0.569927 0.025351 0.025899
C15   C     C_2   0.455227 0.491923 0.979854 -0.182293
C16   C     C_1   0.454444 0.492831 0.876259 0.094168
C17   C     C_1   0.540414 0.547463 0.127029 -0.115416
C18   C     C_2   0.837675 0.537010 0.766680 0.533277
C19   C     C_2   0.844670 0.714171 0.641352 0.455279
C20   C     C_2   0.613884 0.676592 0.978852 0.413107
C21   C     C_R   0.379153 0.936013 0.485393 0.125117
C22   C     C_R   0.501703 0.871445 0.482749 -0.090533
C23   C     C_R   0.625264 0.935393 0.461900 -0.196371
C24   C     C_R   0.625221 0.064864 0.461776 -0.207144
C25   C     C_R   0.501628 0.128558 0.482579 -0.099892
C26   C     C_R   0.379111 0.063712 0.485325 0.123714
C27   C     C_3   0.255467 0.070600 0.558046 -0.449768
H1    H     H_    0.398037 0.417985 0.020485 0.142362
H2    H     H_    0.167054 0.887535 0.525287 0.197826
H3    H     H_    0.896166 0.488778 0.344880 0.162689
H4    H     H_    0.835191 0.593299 0.832972 0.081605
H5    H     H_    0.887362 0.761105 0.574520 0.040067
H6    H     H_    0.687909 0.723543 0.019620 0.054441
H7    H     H_    0.146673 0.488297 0.344785 0.161391
H8    H     H_    0.098419 0.551141 0.733556 0.212917
H9    H     H_    0.107000 0.680974 0.641586 0.206183
H10   H     H_    0.721642 0.886475 0.452212 0.165454
H11   H     H_    0.721590 0.113981 0.451987 0.174660
H12   H     H_    0.276779 0.111881 0.629764 0.209903
H13   H     H_    0.167019 0.111581 0.525212 0.207781
H14   H     H_    0.276806 0.887201 0.629843 0.213533
N1    N     N_R   0.857130 0.500860 0.500650 -0.134187
N2    N     N_R   0.142770 0.500820 0.500650 -0.102597
O1    O     O_R   0.385310 0.683210 0.499990 -0.619463
O2    O     O_2   0.749912 0.762944 0.691712 -0.530382
O3    O     O_2   0.595569 0.715623 0.897042 -0.535461
O4    O     O_R   0.614650 0.683240 0.500000 -0.617815
O5    O     O_R   0.368820 0.499950 0.640340 -0.627743
O6    O     O_R   0.598170 0.499990 0.640350 -0.558913
O7    O     O_R   0.385350 0.316760 0.500000 -0.615985
O8    O     O_R   0.614690 0.316790 0.500010 -0.611931
O9    O     O_R   0.401830 0.500010 0.359650 -0.621229
O10   O     O_R   0.631180 0.500050 0.359660 -0.627900
O11   O     O_2   0.791072 0.430970 0.772090 -0.579359
Zn1   Zn    Zn3+2 0.346870 0.499980 0.499990 0.947074
Zn2   Zn    Zn3+2 0.653130 0.500020 0.500010 0.979478

loop_
_geom_bond_atom_site_label_1
_geom_bond_atom_site_label_2
_ccdc_geom_bond_type
C8    C9    S    
O5    Zn1   S    
C24   H11   S    
C23   C24   A    
C19   O2    D    
C3    N1    A    
C2    C27   S    
C3    C9    S    
C7    N2    A    
C4    C12   S    
O6    Zn2   S    
C4    O6    A    
C1    O1    A    
O7    Zn1   S    
C11   O10   A    
O9    Zn1   S    
C13   C17   T    
C27   H13   S    
C21   C26   A    
C10   O8    A    
C2    C21   S    
C26   C27   S    
C1    C22   S    
C23   H10   S    
C21   C22   A    
C11   C13   S    
O1    Zn1   S    
C15   H1    S    
C2    H2    S    
C19   H5    S    
C10   C25   S    
N2    Zn1   S    
C18   H4    S    
C5    H3    S    
C3    C7    A    
C6    N2    A    
C8    H9    S    
C5    C6    A    
C6    H7    S    
C20   H6    S    
C2    H14   S    
C15   C16   S    
C10   O7    A    
C14   C20   S    
C9    C18   S    
C7    C8    S    
C24   C25   A    
C5    N1    A    
O8    Zn2   S    
C4    O5    A    
O10   Zn2   S    
C18   O11   D    
C22   C23   A    
C1    O4    A    
C11   O9    A    
N1    Zn2   S    
C25   C26   A    
C14   C15   D    
C9    C19   S    
C20   O3    D    
C12   C16   T    
C27   H12   S    
O4    Zn2   S    
C8    H8    S    
C14   C17   S    
