data_mof_unit_61021.cif
_audit_creation_date              2012-12-10T16:48:56-0500
_audit_creation_method            fapswitch 2.2
_symmetry_space_group_name_H-M    P1
_symmetry_Int_Tables_number       1
_space_group_crystal_system       triclinic
_cell_length_a                    18.412654
_cell_length_b                    18.408765
_cell_length_c                    18.406201
_cell_angle_alpha                 120.044426
_cell_angle_beta                  119.366238
_cell_angle_gamma                 90.358686
_cell_volume                      4436.7560576

loop_
_atom_site_label
_atom_site_type_symbol
_atom_type_description
_atom_site_fract_x
_atom_site_fract_y
_atom_site_fract_z
_atom_type_partial_charge
C1    C     C_R   0.138275 0.361279 0.999405 0.508890
C2    C     C_2   0.815798 0.703665 0.012526 -0.118661
C3    C     C_2   0.716062 0.283974 0.445286 0.211098
C4    C     C_R   0.862394 0.639612 0.001425 0.506571
C5    C     C_2   0.698035 0.194983 0.388350 -0.027024
C6    C     C_2   0.779402 0.338367 0.557772 -0.161221
C7    C     C_2   0.800966 0.304529 0.612389 -0.127587
C8    C     C_2   0.337209 0.281512 0.055955 -0.159962
C9    C     C_2   0.305078 0.192725 0.002119 -0.094474
C10   C     C_2   0.280695 0.337499 0.058651 -0.158591
C11   C     C_2   0.192155 0.304250 0.994871 -0.095998
C12   C     C_3   0.719012 0.329607 0.985442 0.132337
C13   C     C_2   0.218537 0.763973 0.925856 -0.167134
C14   C     C_2   0.306377 0.793271 0.989615 -0.123104
C15   C     C_2   0.163602 0.699457 0.918047 0.211868
C16   C     C_R   0.137821 0.638384 0.277022 0.493299
C17   C     C_2   0.193543 0.697238 0.999671 -0.022201
C18   C     C_2   0.224985 0.778415 0.556919 -0.125576
C19   C     C_2   0.309692 0.830380 0.615540 0.020810
C20   C     C_2   0.165419 0.738948 0.447436 -0.024952
C21   C     C_2   0.191204 0.686496 0.387511 -0.105754
C22   C     C_R   0.638648 0.138929 0.277213 0.537028
C23   C     C_3   0.804421 0.301964 0.004576 0.118089
C24   C     C_R   0.362137 0.864232 0.723177 0.518644
C25   C     C_R   0.640272 0.862982 0.001103 0.500401
C26   C     C_R   0.361688 0.138543 0.000395 0.507691
C27   C     C_R   0.359738 0.857826 0.998517 0.520098
C28   C     C_R   0.861007 0.361249 0.722990 0.518240
C29   C     C_R   0.639218 0.141556 0.998074 0.488463
C30   C     C_R   0.140161 0.639774 0.998878 0.542802
C31   C     C_R   0.860662 0.358698 0.002129 0.510469
C32   C     C_3   0.767214 0.203218 0.910755 -0.281289
C33   C     C_3   0.712429 0.143280 0.914691 -0.268007
C34   C     C_3   0.696555 0.200766 0.999359 0.038242
C35   C     C_3   0.857810 0.305639 0.107604 0.057358
C36   C     C_3   0.602502 0.313731 0.024918 -0.225508
C37   C     C_3   0.654399 0.375568 0.141869 -0.380447
C38   C     C_3   0.902552 0.403871 0.209179 -0.251900
C39   C     C_3   0.995234 0.458626 0.253396 -0.403804
C40   C     C_3   0.776680 0.879688 0.962629 -0.241639
C41   C     C_3   0.867085 0.896901 0.980014 -0.456796
C42   C     C_3   0.351589 0.863811 0.579178 -0.267537
C43   C     C_3   0.378300 0.965128 0.637312 -0.432609
C44   C     C_3   0.077687 0.755900 0.406091 -0.237472
C45   C     C_3   0.787444 0.253624 0.104927 -0.178618
C46   C     C_3   0.070400 0.831522 0.488443 -0.447184
C47   C     C_3   0.935890 0.264886 0.118846 -0.254463
C48   C     C_3   0.920336 0.164089 0.066185 -0.447753
C49   C     C_3   0.653100 0.266829 0.976802 -0.049219
C50   C     C_2   0.754515 0.808914 0.975931 -0.011560
C51   C     C_2   0.694767 0.805971 0.998124 -0.083443
C52   C     C_2   0.796336 0.739173 0.959892 -0.139255
H1    H     H_    0.819666 0.178684 0.904169 0.151378
H2    H     H_    0.407850 0.315305 0.101309 0.155447
H3    H     H_    0.235588 0.156866 0.958514 0.105546
H4    H     H_    0.314015 0.408913 0.114728 0.157628
H5    H     H_    0.156542 0.233937 0.935730 0.104417
H6    H     H_    0.185749 0.786701 0.877475 0.148012
H7    H     H_    0.340984 0.766797 0.033039 0.103248
H8    H     H_    0.257239 0.741350 0.071493 0.045171
H9    H     H_    0.197557 0.763224 0.590208 0.135007
H10   H     H_    0.648048 0.100736 0.838699 0.124076
H11   H     H_    0.255435 0.678423 0.421934 0.097553
H12   H     H_    0.776198 0.299656 0.163126 0.117638
H13   H     H_    0.745525 0.096810 0.927600 0.148139
H14   H     H_    0.811654 0.209656 0.129044 0.102227
H15   H     H_    0.685247 0.319196 0.909481 0.077180
H16   H     H_    0.598019 0.223459 0.893926 0.060916
H17   H     H_    0.664143 0.337686 0.175409 0.181131
H18   H     H_    0.719308 0.420848 0.177891 0.183602
H19   H     H_    0.615563 0.417359 0.162900 0.122677
H20   H     H_    0.574132 0.353547 0.995174 0.125811
H21   H     H_    0.543933 0.263022 0.995371 0.149210
H22   H     H_    0.047337 0.446139 0.306355 0.112850
H23   H     H_    0.681164 0.756580 0.009634 0.089503
H24   H     H_    0.006691 0.443400 0.194464 0.166767
H25   H     H_    0.004808 0.530737 0.298478 0.155313
H26   H     H_    0.859514 0.444496 0.202588 0.219554
H27   H     H_    0.911368 0.400413 0.271564 0.109208
H28   H     H_    0.919488 0.909296 0.053975 0.161674
H29   H     H_    0.866965 0.839819 0.916790 0.152101
H30   H     H_    0.882562 0.956602 0.982096 0.132450
H31   H     H_    0.724746 0.860075 0.884684 0.169972
H32   H     H_    0.778022 0.944351 0.019286 0.156405
H33   H     H_    0.695719 0.389904 0.451217 0.316314
H34   H     H_    0.814123 0.718831 0.906047 0.161390
H35   H     H_    0.071744 0.653878 0.777350 0.315600
H36   H     H_    0.319932 0.986437 0.628714 0.145414
H37   H     H_    0.430579 0.998497 0.719733 0.162418
H38   H     H_    0.404665 0.986815 0.605900 0.128806
H39   H     H_    0.410962 0.843647 0.590700 0.153519
H40   H     H_    0.306956 0.836485 0.497236 0.147637
H41   H     H_    0.070748 0.813933 0.538154 0.151778
H42   H     H_    0.125886 0.893970 0.535651 0.161800
H43   H     H_    0.007247 0.843152 0.451575 0.138235
H44   H     H_    0.069234 0.774174 0.353944 0.162874
H45   H     H_    0.802984 0.726279 0.070697 0.106828
H46   H     H_    0.022637 0.694285 0.362429 0.169265
H47   H     H_    0.880620 0.131371 0.077791 0.136975
H48   H     H_    0.893084 0.126995 0.984290 0.137726
H49   H     H_    0.985656 0.155168 0.100742 0.132791
H50   H     H_    0.972788 0.288581 0.097586 0.141931
H51   H     H_    0.983380 0.292791 0.201041 0.145812
H52   H     H_    0.694158 0.441414 0.024125 0.319339
H53   H     H_    0.729447 0.160832 0.422635 0.049364
H54   H     H_    0.807187 0.409501 0.596917 0.154350
H55   H     H_    0.723819 0.197802 0.838504 0.106994
H56   H     H_    0.772310 0.234732 0.577283 0.100340
O1    O     O_3   0.000000 0.500000 0.000000 -0.447503
O2    O     O_R   0.324760 0.053850 0.939900 -0.543193
O3    O     O_R   0.443270 0.883090 0.060070 -0.538702
O4    O     O_R   0.053940 0.324750 0.939940 -0.544964
O5    O     O_R   0.616890 0.176890 0.060090 -0.558804
O6    O     O_R   0.323100 0.883090 0.939900 -0.543092
O7    O     O_R   0.616910 0.056740 0.939940 -0.560283
O8    O     O_R   0.615250 0.885990 0.939940 -0.549602
O9    O     O_R   0.446110 0.175200 0.060060 -0.540785
O10   O     O_R   0.614030 0.053850 0.229160 -0.558607
O11   O     O_R   0.324790 0.884790 0.770830 -0.549059
O12   O     O_R   0.053880 0.613970 0.229150 -0.563810
O13   O     O_R   0.884790 0.613970 0.060060 -0.539709
O14   O     O_R   0.175250 0.615170 0.229170 -0.539573
O15   O     O_R   0.886020 0.446110 0.770840 -0.529378
O16   O     O_R   0.176940 0.616860 0.060100 -0.560020
O17   O     O_R   0.883150 0.323060 0.939910 -0.571081
O18   O     O_R   0.056770 0.616860 0.939930 -0.474787
O19   O     O_R   0.883130 0.443210 0.060060 -0.498909
O20   O     O_3   0.676374 0.325415 0.398136 -0.667161
O21   O     O_3   0.080939 0.643096 0.828438 -0.664910
O22   O     O_3   0.739557 0.420074 0.058409 -0.718506
O23   O     O_R   0.884840 0.324750 0.770840 -0.540570
O24   O     O_R   0.175280 0.446110 0.060100 -0.539378
O25   O     O_R   0.885990 0.615170 0.939900 -0.541985
O26   O     O_3   0.500040 0.999960 0.000000 -0.442357
O27   O     O_R   0.615200 0.175200 0.229160 -0.471404
O28   O     O_R   0.446160 0.885990 0.770850 -0.544928
O29   O     O_R   0.614060 0.884790 0.060100 -0.537600
Zn1   Zn    Zn3+2 0.956210 0.542060 0.085830 0.918589
Zn2   Zn    Zn3+2 0.129620 0.543770 0.085850 0.926488
Zn3   Zn    Zn3+2 0.957930 0.543770 0.914160 0.965273
Zn4   Zn    Zn3+2 0.956240 0.370390 0.914160 0.920579
Zn5   Zn    Zn3+2 0.543830 0.957900 0.914170 0.903876
Zn6   Zn    Zn3+2 0.542120 0.956180 0.085840 0.937544
Zn7   Zn    Zn3+2 0.370430 0.956180 0.914150 0.926914
Zn8   Zn    Zn3+2 0.543800 0.129560 0.085840 0.940430

loop_
_geom_bond_atom_site_label_1
_geom_bond_atom_site_label_2
_ccdc_geom_bond_type
O13   Zn1   S    
C30   O18   A    
C16   C21   S    
C17   C30   S    
C49   H16   S    
C37   H17   S    
C40   H32   S    
O16   Zn2   S    
C25   O29   A    
C1    C11   S    
C26   O9    A    
C31   O19   A    
C1    O24   A    
C35   C47   S    
C41   H28   S    
C12   C49   S    
C28   O15   A    
C33   H13   S    
C5    H53   S    
O24   Zn2   S    
C14   H7    S    
C12   C23   S    
O18   Zn3   S    
C43   H37   S    
C12   O22   S    
O1    Zn3   S    
C43   H36   S    
C39   H25   S    
C36   C37   S    
C51   H23   S    
O14   Zn2   S    
C18   C19   D    
C16   O12   A    
C1    O4    A    
C38   C39   S    
C38   H27   S    
C48   H49   S    
O9    Zn8   S    
C42   H39   S    
C39   H22   S    
O5    Zn8   S    
O26   Zn8   S    
C16   O14   A    
O28   Zn5   S    
O26   Zn6   S    
C44   H46   S    
C5    C22   S    
C2    H45   S    
O17   Zn4   S    
C8    C9    D    
O27   Zn8   S    
C32   H55   S    
C15   O21   S    
C50   C52   S    
C9    H3    S    
O19   Zn1   S    
C13   C14   D    
C14   C27   S    
C10   H4    S    
C26   O2    A    
C18   C20   S    
O23   Zn4   S    
C19   C42   S    
O3    Zn6   S    
C24   O28   A    
O29   Zn6   S    
O7    Zn5   S    
C27   O3    A    
C47   H50   S    
H52   O22   S    
C37   H18   S    
O11   Zn7   S    
C40   H31   S    
C20   C44   S    
C44   C46   S    
C9    C26   S    
C50   C51   D    
C48   H48   S    
C12   H15   S    
C43   H38   S    
C47   H51   S    
C46   H43   S    
C35   C38   S    
O10   Zn6   S    
C36   H21   S    
C25   O8    A    
C8    H2    S    
C3    O20   S    
C33   H10   S    
C13   H6    S    
C38   H26   S    
O15   Zn3   S    
C7    C28   S    
O1    Zn1   S    
O6    Zn7   S    
O4    Zn4   S    
C2    C4    S    
C25   C51   S    
C44   H44   S    
O26   Zn5   S    
C47   C48   S    
C46   H42   S    
C41   H29   S    
C33   C34   S    
C6    H54   S    
C34   C45   S    
C39   H24   S    
O2    Zn7   S    
C2    C52   D    
O8    Zn5   S    
C40   C41   S    
C30   O16   A    
C23   C35   S    
C37   H19   S    
O12   Zn1   S    
C42   C43   S    
C31   O17   A    
C35   C45   S    
C32   H1    S    
C24   O11   A    
C22   O10   A    
C48   H47   S    
C29   O5    A    
C34   C49   S    
C3    C5    D    
C18   H9    S    
C15   C17   D    
C6    C7    D    
C45   H12   S    
C22   O27   A    
O1    Zn2   S    
C28   O23   A    
C23   C32   S    
H35   O21   S    
C13   C15   S    
C19   C24   S    
C32   C33   S    
C46   H41   S    
C40   C50   S    
C41   H30   S    
C29   C34   S    
C52   H34   S    
C4    O13   A    
C42   H40   S    
C29   O7    A    
C21   H11   S    
C10   C11   D    
C17   H8    S    
O26   Zn7   S    
C27   O6    A    
C20   C21   D    
O25   Zn3   S    
C8    C10   S    
C3    C6    S    
C45   H14   S    
C7    H56   S    
H33   O20   S    
O1    Zn4   S    
C11   H5    S    
C36   C49   S    
C36   H20   S    
C23   C31   S    
C4    O25   A    
