data_mof_unit_35594.cif
_audit_creation_date              2012-12-10T17:42:49-0500
_audit_creation_method            fapswitch 2.2
_symmetry_space_group_name_H-M    P1
_symmetry_Int_Tables_number       1
_space_group_crystal_system       triclinic
_cell_length_a                    15.049357
_cell_length_b                    13.896124
_cell_length_c                    15.910916
_cell_angle_alpha                 88.515358
_cell_angle_beta                  86.530141
_cell_angle_gamma                 90.056676
_cell_volume                      3320.18801478

loop_
_atom_site_label
_atom_site_type_symbol
_atom_type_description
_atom_site_fract_x
_atom_site_fract_y
_atom_site_fract_z
_atom_type_partial_charge
C1    C     C_R   0.329165 0.500012 0.499533 0.902770
C2    C     C_3   0.563756 0.567781 0.944395 -0.582613
C3    C     C_3   0.569190 0.564041 0.041442 -0.468768
C4    C     C_1   0.493915 0.494961 0.825592 0.020126
C5    C     C_1   0.498399 0.504635 0.175948 0.019846
C6    C     C_1   0.501330 0.503964 0.251159 -0.121208
C7    C     C_R   0.818042 0.470561 0.422594 0.333261
C8    C     C_R   0.767498 0.502376 0.493642 -0.111271
C9    C     C_R   0.808960 0.542126 0.560655 -0.288135
C10   C     C_R   0.901411 0.546624 0.559711 0.057548
C11   C     C_R   0.953339 0.506910 0.492642 0.062393
C12   C     C_R   0.501502 0.501185 0.340483 0.913502
C13   C     C_R   0.911402 0.467825 0.423867 0.049842
C14   C     C_R   0.942165 0.590903 0.624885 -0.253744
C15   C     C_R   0.034458 0.594539 0.626114 0.426273
C16   C     C_R   0.088399 0.548762 0.562420 -0.083308
C17   C     C_R   0.047007 0.506719 0.494256 -0.101545
C18   C     C_R   0.098605 0.463047 0.428240 0.072990
C19   C     C_R   0.055727 0.423240 0.361132 -0.147749
C20   C     C_R   0.963760 0.426796 0.358374 -0.185352
C21   C     C_R   0.181537 0.540353 0.566117 0.449738
C22   C     C_R   0.232473 0.499980 0.498717 -0.249792
C23   C     C_R   0.670907 0.500405 0.497253 0.888825
C24   C     C_R   0.191676 0.460304 0.430589 0.258149
C25   C     C_R   0.445947 0.792100 0.557217 0.481973
C26   C     C_R   0.443057 0.204433 0.555133 0.516963
C27   C     C_R   0.556055 0.794810 0.443694 0.483499
C28   C     C_R   0.557710 0.207918 0.445742 0.486868
C29   C     C_R   0.557323 0.898048 0.441844 -0.189515
C30   C     C_R   0.561164 0.104925 0.445868 -0.195834
C31   C     C_R   0.503494 0.948015 0.502335 -0.104038
C32   C     C_R   0.503088 0.051354 0.502683 -0.111253
C33   C     C_R   0.450090 0.894605 0.562635 -0.182830
C34   C     C_R   0.443177 0.100922 0.558457 -0.161508
C35   C     C_R   0.611422 0.953274 0.382472 0.370857
C36   C     C_R   0.620072 0.053288 0.390226 0.344141
C37   C     C_R   0.386997 0.045991 0.617324 0.388977
C38   C     C_R   0.401066 0.945088 0.626329 0.371731
C39   C     C_R   0.498892 0.498909 0.659808 0.796235
C40   C     C_3   0.400133 0.544975 0.055874 0.716857
C41   C     C_3   0.507958 0.393098 0.055800 0.723867
C42   C     C_3   0.522621 0.395163 0.956407 0.211464
C43   C     C_3   0.400452 0.533420 0.956858 0.204705
C44   C     C_1   0.496065 0.496442 0.749833 -0.171245
C45   C     C_3   0.492017 0.501076 0.084349 -0.004352
C46   C     C_3   0.492506 0.494704 0.918174 -0.021057
Cu1   Cu    Cu3+1 0.499990 0.597420 0.500010 1.053321
Cu2   Cu    Cu3+1 0.499990 0.402580 0.500010 1.067232
H1    H     H_    0.092474 0.388387 0.310077 0.190690
H2    H     H_    0.934208 0.394743 0.305415 0.192254
H3    H     H_    0.596295 0.391538 0.942209 0.074534
H4    H     H_    0.400252 0.608944 0.931544 0.161285
H5    H     H_    0.567362 0.638603 0.064971 0.234417
H6    H     H_    0.634794 0.533914 0.057236 0.234564
H7    H     H_    0.547531 0.642314 0.923047 0.214971
H8    H     H_    0.630386 0.551422 0.913857 0.206467
H9    H     H_    0.768770 0.570206 0.613401 0.147487
H10   H     H_    0.901864 0.624167 0.674915 0.176027
N1    N     N_R   0.499930 0.743810 0.499960 -0.268819
N2    N     N_R   0.499930 0.256190 0.499960 -0.255596
O1    O     O_R   0.370250 0.582280 0.500020 -0.537434
O2    O     O_R   0.370250 0.417720 0.500020 -0.515778
O3    O     O_R   0.499990 0.582310 0.379440 -0.558174
O4    O     O_R   0.499990 0.417690 0.379440 -0.520211
O5    O     O_R   0.629730 0.582260 0.499990 -0.544505
O6    O     O_R   0.629730 0.417740 0.499990 -0.545743
O7    O     O_R   0.499980 0.582240 0.620570 -0.551826
O8    O     O_R   0.499980 0.417760 0.620570 -0.558647
O9    O     O_3   0.319422 0.499766 0.925129 -0.616599
C47   C     C_3   0.310360 0.399143 0.920958 0.155012
H11   H     H_    0.334492 0.361645 0.976579 0.257275
H12   H     H_    0.344696 0.374580 0.861642 0.200065
C48   C     C_3   0.212236 0.371784 0.919064 -0.888462
H13   H     H_    0.175218 0.427317 0.884138 0.282242
H14   H     H_    0.205805 0.301364 0.889063 0.217987
H15   H     H_    0.180968 0.362809 0.983711 0.238112
O10   O     O_3   0.479907 0.315403 0.921513 -0.594062
C49   C     C_3   0.537003 0.266692 0.862881 0.054753
H16   H     H_    0.592802 0.232037 0.894634 0.121009
H17   H     H_    0.564622 0.316452 0.812018 0.157976
C50   C     C_3   0.484704 0.188366 0.822964 -0.779341
H18   H     H_    0.428239 0.221084 0.791172 0.278320
H19   H     H_    0.528150 0.150338 0.775728 0.195346
H20   H     H_    0.458610 0.135657 0.872063 0.236245
Cl1   Cl    Cl    0.076290 0.661633 0.707945 -0.535918
O11   O     O_3   0.221787 0.566838 0.638151 -0.500897
C51   C     C_3   0.245445 0.484905 0.687153 0.154393
H21   H     H_    0.266512 0.510926 0.748275 0.212693
H22   H     H_    0.304256 0.448714 0.657736 0.161887
C52   C     C_3   0.169600 0.411929 0.706194 -0.846376
H23   H     H_    0.149546 0.377830 0.647912 0.248951
H24   H     H_    0.192905 0.353425 0.747532 0.234161
H25   H     H_    0.111241 0.447287 0.738141 0.264760
Cl2   Cl    Cl    0.258642 0.407594 0.348485 -0.703774
Cl3   Cl    Cl    0.364572 0.725784 0.618739 -0.471846
Cl4   Cl    Cl    0.373226 0.269338 0.625567 -0.623728
Cl5   Cl    Cl    0.629457 0.729341 0.376015 -0.532686
Cl6   Cl    Cl    0.624939 0.276152 0.372559 -0.527905
O12   O     O_3   0.660102 0.910933 0.316878 -0.520828
C53   C     C_3   0.613544 0.923103 0.242803 0.125942
H26   H     H_    0.609463 0.000504 0.223677 0.151057
H27   H     H_    0.544923 0.893143 0.251977 0.131562
C54   C     C_3   0.662505 0.870316 0.171450 -0.739581
H28   H     H_    0.666694 0.792340 0.187782 0.278664
H29   H     H_    0.626270 0.879379 0.113011 0.177853
H30   H     H_    0.730831 0.900004 0.159937 0.250094
O13   O     O_3   0.684215 0.099274 0.337753 -0.546264
C55   C     C_3   0.766608 0.093617 0.375685 0.148168
H31   H     H_    0.788531 0.017452 0.382715 0.162798
H32   H     H_    0.762182 0.127181 0.438691 0.140954
C56   C     C_3   0.836822 0.147699 0.320087 -0.727319
H33   H     H_    0.817929 0.224584 0.313097 0.290274
H34   H     H_    0.902099 0.143354 0.348958 0.194082
H35   H     H_    0.843170 0.115521 0.256833 0.240572
O14   O     O_3   0.309263 0.088716 0.651225 -0.528118
C57   C     C_3   0.288722 0.065394 0.737186 0.185461
H36   H     H_    0.349303 0.058544 0.773444 0.127534
H37   H     H_    0.248154 0.998470 0.743085 0.212795
C58   C     C_3   0.231819 0.144527 0.776342 -0.808034
H38   H     H_    0.171941 0.156985 0.740041 0.269891
H39   H     H_    0.210368 0.123609 0.842306 0.195921
H40   H     H_    0.271112 0.211865 0.776710 0.261081
O15   O     O_3   0.366714 0.896497 0.697972 -0.550379
C59   C     C_3   0.436264 0.880013 0.752694 0.047158
H41   H     H_    0.468602 0.948793 0.768710 0.100071
H42   H     H_    0.487964 0.831679 0.723951 0.162977
C60   C     C_3   0.398149 0.831615 0.833894 -0.707667
H43   H     H_    0.366908 0.761781 0.820040 0.284601
H44   H     H_    0.452143 0.818079 0.877275 0.184187
H45   H     H_    0.347280 0.878720 0.865145 0.231547
O16   O     O_3   0.326169 0.495466 0.098531 -0.606419
C61   C     C_3   0.241952 0.539475 0.087379 0.117606
H46   H     H_    0.205881 0.500192 0.041075 0.206437
H47   H     H_    0.244843 0.615304 0.063694 0.166123
C62   C     C_3   0.184432 0.532505 0.169295 -0.818444
H48   H     H_    0.215557 0.571093 0.220101 0.257246
H49   H     H_    0.118107 0.564662 0.160010 0.213941
H50   H     H_    0.175196 0.455679 0.188511 0.279414
O17   O     O_3   0.432849 0.332807 0.079545 -0.601134
C63   C     C_3   0.420143 0.309486 0.166782 0.125896
H51   H     H_    0.373059 0.361341 0.196844 0.230774
H52   H     H_    0.481984 0.309433 0.201261 0.196156
C64   C     C_3   0.378678 0.209820 0.177770 -0.778919
H53   H     H_    0.424480 0.155279 0.149495 0.226089
H54   H     H_    0.365949 0.191903 0.245876 0.231394
H55   H     H_    0.314639 0.207858 0.146612 0.259544
O18   O     O_3   0.586828 0.358272 0.092891 -0.609906
C65   C     C_3   0.610800 0.263148 0.070551 0.015015
H56   H     H_    0.662155 0.266688 0.017479 0.135333
H57   H     H_    0.553961 0.218794 0.052046 0.192858
C66   C     C_3   0.652257 0.212220 0.144446 -0.673510
H58   H     H_    0.601577 0.200054 0.197210 0.266360
H59   H     H_    0.678913 0.141284 0.124670 0.180980
H60   H     H_    0.707600 0.256102 0.166488 0.291515
O19   O     O_3   0.399247 0.646926 0.071048 -0.642333
C67   C     C_3   0.375336 0.674422 0.154854 0.088636
H61   H     H_    0.365194 0.613934 0.201094 0.179758
H62   H     H_    0.311563 0.714505 0.154765 0.159563
C68   C     C_3   0.444630 0.743119 0.185186 -0.821825
H63   H     H_    0.454296 0.805100 0.140068 0.244639
H64   H     H_    0.421718 0.770314 0.247836 0.217134
H65   H     H_    0.509138 0.706062 0.191460 0.260377
Cl7   Cl    Cl    0.764940 0.446198 0.329268 -0.581744

loop_
_geom_bond_atom_site_label_1
_geom_bond_atom_site_label_2
_ccdc_geom_bond_type
C62   H50   S    
C51   H21   S    
C16   C21   A    
C64   H55   S    
C34   C37   A    
O15   C59   S    
C41   C42   S    
O18   C65   S    
C67   C68   S    
C63   C64   S    
C1    O2    A    
C50   H18   S    
C7    C8    A    
C4    C46   S    
O10   C49   S    
C57   H36   S    
C18   C24   A    
C23   O6    A    
C67   H61   S    
C65   H57   S    
C2    H7    S    
C6    C12   S    
C5    C6    T    
C12   O4    A    
C3    H6    S    
C49   H17   S    
C43   H4    S    
Cu2   O4    S    
C27   C29   A    
C15   C16   A    
C11   C13   A    
C8    C23   S    
C55   H31   S    
C64   H54   S    
C18   C19   A    
C48   H13   S    
C66   H60   S    
C64   H53   S    
C20   H2    S    
C52   H24   S    
C26   C34   A    
C40   C43   S    
C11   C17   A    
C68   H63   S    
C55   H32   S    
C8    C9    A    
O13   C55   S    
C65   C66   S    
C40   O19   S    
C47   H11   S    
C54   H30   S    
C9    C10   A    
C38   O15   S    
C13   C20   A    
C42   H3    S    
C15   Cl1   S    
C28   N2    A    
C1    C22   S    
C43   O9    S    
C21   C22   A    
C36   O13   S    
C48   H14   S    
O9    C47   S    
C35   O12   S    
Cu1   O7    S    
C50   H19   S    
Cu2   N2    S    
C58   H39   S    
C26   Cl4   S    
C40   C45   S    
C14   H10   S    
Cu1   Cu2   S    
C62   H48   S    
C63   H51   S    
C56   H34   S    
C10   C14   A    
C12   O3    A    
C49   H16   S    
C16   C17   A    
C4    C44   T    
C5    C45   S    
C3    C45   S    
C53   C54   S    
C2    C46   S    
Cu1   O3    S    
C35   C36   A    
C32   C34   A    
C60   H44   S    
C39   O8    A    
C37   C38   A    
C24   Cl2   S    
C19   H1    S    
Cu2   O2    S    
O12   C53   S    
C41   O18   S    
C66   H58   S    
C47   C48   S    
C31   C33   A    
C17   C18   A    
C68   H65   S    
C54   H29   S    
C65   H56   S    
C58   H38   S    
C59   C60   S    
C40   O16   S    
C25   Cl3   S    
C51   H22   S    
C42   C46   S    
C48   H15   S    
C22   C24   A    
C60   H43   S    
O19   C67   S    
C50   H20   S    
C52   H25   S    
C59   H42   S    
C53   H27   S    
C58   H40   S    
C28   Cl6   S    
C62   H49   S    
C21   O11   S    
C27   Cl5   S    
C56   H33   S    
O11   C51   S    
C39   O7    A    
C31   C32   A    
C63   H52   S    
Cu2   O8    S    
C1    O1    A    
Cu1   O1    S    
C47   H12   S    
O17   C63   S    
C57   C58   S    
C39   C44   S    
C37   O14   S    
C29   C35   A    
C33   C38   A    
C55   C56   S    
C30   C36   A    
C23   O5    A    
C19   C20   A    
C28   C30   A    
C2    C3    S    
C60   H45   S    
C29   C31   A    
C27   N1    A    
C30   C32   A    
C3    H5    S    
C49   C50   S    
C52   H23   S    
C7    Cl7   S    
C61   C62   S    
C67   H62   S    
C53   H26   S    
C57   H37   S    
C61   H46   S    
C56   H35   S    
C9    H9    S    
C66   H59   S    
O16   C61   S    
C43   C46   S    
C41   O17   S    
C10   C11   A    
Cu1   N1    S    
C7    C13   A    
C42   O10   S    
C61   H47   S    
C51   C52   S    
C54   H28   S    
C41   C45   S    
C14   C15   A    
C2    H8    S    
C25   N1    A    
Cu2   O6    S    
C68   H64   S    
C26   N2    A    
Cu1   O5    S    
O14   C57   S    
C25   C33   A    
C59   H41   S    
