data_mof_unit_12169.cif
_audit_creation_date              2012-12-11T15:30:39-0500
_audit_creation_method            fapswitch 2.2
_symmetry_space_group_name_H-M    P1
_symmetry_Int_Tables_number       1
_space_group_crystal_system       triclinic
_cell_length_a                    6.95048
_cell_length_b                    20.492245
_cell_length_c                    24.386101
_cell_angle_alpha                 89.781126
_cell_angle_beta                  90.255622
_cell_angle_gamma                 89.210138
_cell_volume                      3472.94449175

loop_
_atom_site_label
_atom_site_type_symbol
_atom_type_description
_atom_site_fract_x
_atom_site_fract_y
_atom_site_fract_z
_atom_type_partial_charge
O1    O     O_R   0.507310 0.423620 0.460450 -0.535885
O2    O     O_R   0.170760 0.556060 0.437190 -0.535974
O3    O     O_R   0.004040 0.576380 0.539550 -0.536280
C1    C     C_R   0.338786 0.576135 0.421237 0.721951
O4    O     O_R   0.177350 0.422870 0.454070 -0.538112
O5    O     O_R   0.010680 0.442240 0.556560 -0.536187
C2    C     C_R   0.346788 0.398908 0.443516 0.694534
O6    O     O_R   0.500670 0.557760 0.443440 -0.536019
O7    O     O_3   0.340380 0.506510 0.533610 -0.366985
V1    V     V_3+5 0.064130 0.498790 0.493770 1.421706
O8    O     O_R   0.681170 0.443940 0.562810 -0.536265
C3    C     C_R   0.850894 0.423924 0.578711 0.726014
O9    O     O_R   0.674570 0.577130 0.545930 -0.537650
C4    C     C_R   0.841688 0.601253 0.556557 0.693436
V2    V     V_3+5 0.564560 0.501210 0.506230 1.423403
O10   O     O_3   0.838170 0.493490 0.466390 -0.366667
C5    C     C_R   0.981341 0.837544 0.911628 -0.073209
C6    C     C_R   0.839344 0.661941 0.589168 -0.051043
C7    C     C_R   0.100353 0.726786 0.901971 -0.174902
C8    C     C_R   0.074210 0.782486 0.933601 -0.166219
C9    C     C_R   0.909993 0.835712 0.857557 -0.198602
C10   C     C_R   0.926520 0.778150 0.825046 0.085188
C11   C     C_R   0.032566 0.724796 0.847738 0.128373
C12   C     C_R   0.853464 0.773003 0.769794 0.008256
C13   C     C_R   0.914527 0.718912 0.736183 0.006232
C14   C     C_R   0.026337 0.668673 0.760713 -0.173931
C15   C     C_R   0.078022 0.670704 0.815661 -0.208984
C16   C     C_R   0.718182 0.818554 0.747081 0.268756
C17   C     C_R   0.678967 0.818191 0.690889 -0.267199
C18   C     C_R   0.748309 0.768573 0.657102 0.098717
C19   C     C_R   0.859336 0.716256 0.679365 0.082399
C20   C     C_R   0.694231 0.768819 0.601615 -0.149484
C21   C     C_R   0.738024 0.715904 0.568223 -0.160577
C22   C     C_R   0.903990 0.662667 0.644003 -0.204287
H1    H     H_    0.161746 0.630383 0.832698 0.121217
H2    H     H_    0.977454 0.619234 0.658422 0.095015
H3    H     H_    0.684812 0.715738 0.526378 0.108105
H4    H     H_    0.581065 0.854860 0.674069 0.122875
H5    H     H_    0.179216 0.685687 0.919502 0.114710
H6    H     H_    0.132775 0.783475 0.974849 0.118905
H7    H     H_    0.856732 0.881193 0.840707 0.151808
H8    H     H_    0.609637 0.808885 0.584535 0.110436
C23   C     C_3   0.753675 0.253768 0.799670 -0.337327
C24   C     C_3   0.111495 0.248617 0.785644 -0.342888
C25   C     C_3   0.091418 0.298360 0.737452 -0.419366
H9    H     H_    0.752215 0.354326 0.768948 0.134145
H10   H     H_    0.770613 0.280085 0.839202 0.141308
H11   H     H_    0.238948 0.216331 0.778785 0.135034
H12   H     H_    0.137208 0.275425 0.824538 0.150181
H13   H     H_    0.107275 0.348786 0.753492 0.158370
H14   H     H_    0.210214 0.290105 0.707726 0.144516
C26   C     C_1   0.863452 0.378426 0.624388 -0.190845
C27   C     C_3   0.927940 0.206780 0.790906 0.250051
C28   C     C_3   0.736209 0.304324 0.752009 -0.318835
C29   C     C_3   0.893466 0.291710 0.708171 0.257073
C30   C     C_3   0.880317 0.219936 0.686973 0.220473
C31   C     C_3   0.897126 0.170159 0.735996 -0.337335
C32   C     C_1   0.876283 0.339779 0.662217 -0.062154
C33   C     C_1   0.946918 0.159723 0.837450 -0.086630
C34   C     C_1   0.960545 0.121444 0.875522 -0.196351
H15   H     H_    0.770818 0.138107 0.739791 0.151808
H16   H     H_    0.618758 0.225436 0.802588 0.133595
H17   H     H_    0.590487 0.303050 0.733273 0.157011
H18   H     H_    0.010504 0.211443 0.661215 0.054591
C35   C     C_3   0.570731 0.691968 0.258386 -0.422134
C36   C     C_3   0.213534 0.707237 0.251932 -0.398664
C37   C     C_3   0.238117 0.757271 0.203836 0.129357
H19   H     H_    0.607216 0.715599 0.171299 0.147434
H20   H     H_    0.558615 0.642072 0.240953 0.162586
H21   H     H_    0.199475 0.656845 0.235664 0.166799
H22   H     H_    0.120630 0.794688 0.207014 0.101160
C38   C     C_1   0.475329 0.878726 0.124836 -0.189782
C39   C     C_3   0.387668 0.708955 0.292206 0.156687
C40   C     C_3   0.599435 0.741920 0.210948 -0.350921
C41   C     C_3   0.434040 0.793707 0.209589 0.166724
C42   C     C_3   0.428535 0.830085 0.266017 0.111396
C43   C     C_3   0.413761 0.779587 0.315113 0.147400
C44   C     C_1   0.459346 0.840670 0.162984 0.008750
C45   C     C_1   0.363964 0.660602 0.337808 -0.012481
C46   C     C_1   0.348693 0.621825 0.375490 -0.192826
H23   H     H_    0.548034 0.777274 0.339789 0.137118
H24   H     H_    0.700025 0.691508 0.285470 0.144658
H25   H     H_    0.740393 0.766014 0.215242 0.167205
H26   H     H_    0.292368 0.859541 0.265563 0.064426
C47   C     C_R   0.469868 0.162174 0.088154 -0.095885
C48   C     C_R   0.355158 0.338376 0.411185 -0.040509
C49   C     C_R   0.518115 0.279520 0.091109 0.306466
C50   C     C_R   0.513158 0.220565 0.061952 -0.200268
C51   C     C_R   0.432914 0.161522 0.144552 -0.223686
C52   C     C_R   0.440221 0.219596 0.176256 0.049813
C53   C     C_R   0.481737 0.278977 0.148414 0.067464
C54   C     C_R   0.409019 0.220609 0.234591 0.079230
C55   C     C_R   0.416719 0.281077 0.264024 0.061506
C56   C     C_R   0.453745 0.338487 0.234201 -0.196476
C57   C     C_R   0.485017 0.337369 0.178101 -0.191224
C58   C     C_R   0.371441 0.163091 0.264586 -0.188629
C59   C     C_R   0.341517 0.164318 0.320800 -0.208223
C60   C     C_R   0.347710 0.222646 0.349867 0.141815
C61   C     C_R   0.386128 0.282143 0.322304 0.084533
C62   C     C_R   0.314238 0.221651 0.406596 -0.163581
C63   C     C_R   0.316546 0.279067 0.436846 -0.169905
C64   C     C_R   0.390676 0.340067 0.354482 -0.214930
H27   H     H_    0.511508 0.383592 0.158083 0.143175
H28   H     H_    0.287397 0.277294 0.480438 0.104785
H29   H     H_    0.459848 0.385829 0.253019 0.120360
H30   H     H_    0.364265 0.115677 0.245980 0.119510
H31   H     H_    0.284220 0.176230 0.427601 0.109577
O11   O     O_R   0.323590 0.942280 0.056590 -0.533780
O12   O     O_R   0.647030 0.077140 0.045940 -0.538249
O13   O     O_R   0.813570 0.057750 0.943430 -0.535451
C65   C     C_R   0.477649 0.101088 0.056538 0.711205
O14   O     O_R   0.653510 0.943950 0.062820 -0.536448
O15   O     O_R   0.820100 0.923600 0.960440 -0.533095
C66   C     C_R   0.485469 0.923921 0.078786 0.721330
O16   O     O_R   0.317060 0.076430 0.039590 -0.536251
O17   O     O_3   0.483830 0.993520 0.966410 -0.367222
V3    V     V_3+5 0.760140 0.001200 0.006230 1.425306
O18   O     O_R   0.149560 0.922820 0.954030 -0.540373
C67   C     C_R   0.982213 0.898748 0.943422 0.696110
O19   O     O_R   0.143080 0.056020 0.937150 -0.538822
C68   C     C_R   0.973342 0.076107 0.921306 0.726004
V4    V     V_3+5 0.259690 0.998730 0.993720 1.419304
O20   O     O_3   0.986120 0.006480 0.033580 -0.365904
H32   H     H_    0.022079 0.136771 0.728723 0.109349
N1    N     N_2   0.713395 0.211108 0.650909 -0.511698
H33   H     H_    0.745975 0.198639 0.611033 0.249066
C69   C     C_3   0.534040 0.184402 0.670358 -0.568986
H34   H     H_    0.415094 0.200727 0.642818 0.192075
H35   H     H_    0.499978 0.200996 0.712298 0.197038
H36   H     H_    0.541701 0.130255 0.669579 0.185869
H37   H     H_    0.077083 0.717865 0.273909 0.120259
N2    N     N_2   0.222837 0.725229 0.150670 -0.496918
H38   H     H_    0.311125 0.684870 0.145690 0.263921
C70   C     C_3   0.029838 0.715223 0.130254 -0.582962
H39   H     H_    0.036729 0.694691 0.088227 0.199491
H40   H     H_    0.949180 0.762351 0.128094 0.206025
H41   H     H_    0.953180 0.680416 0.157164 0.192461
N3    N     N_2   0.257545 0.797388 0.352082 -0.523150
H42   H     H_    0.123559 0.800771 0.334100 0.249204
C71   C     C_3   0.295838 0.850376 0.389452 -0.568298
H43   H     H_    0.173039 0.856337 0.418048 0.197513
H44   H     H_    0.314079 0.896707 0.366388 0.195119
H45   H     H_    0.427402 0.839601 0.414077 0.199966
N4    N     N_2   0.584512 0.877266 0.270930 -0.508716
H46   H     H_    0.540040 0.925406 0.273442 0.251966
C72   C     C_3   0.760799 0.863045 0.300836 -0.577750
H47   H     H_    0.874645 0.896661 0.286869 0.196985
H48   H     H_    0.812309 0.812525 0.293693 0.181558
H49   H     H_    0.737999 0.870811 0.345391 0.192322
H50   H     H_    0.418052 0.387341 0.336971 0.091364
H51   H     H_    0.312658 0.118786 0.341821 0.119024
N5    N     N_2   0.566715 0.339284 0.064196 -0.527122
H52   H     H_    0.688925 0.361099 0.079174 0.251545
C73   C     C_3   0.539975 0.345685 0.005490 -0.564817
H53   H     H_    0.550056 0.397899 0.993696 0.198524
H54   H     H_    0.395415 0.328237 0.993224 0.204727
H55   H     H_    0.654098 0.317991 0.983450 0.186061
H56   H     H_    0.546114 0.219264 0.018638 0.114427
H57   H     H_    0.402219 0.114622 0.162244 0.102505
H58   H     H_    0.076312 0.626460 0.738545 0.122469
N6    N     N_2   0.603463 0.860331 0.780625 -0.544625
H59   H     H_    0.557034 0.902766 0.761532 0.248642
C74   C     C_3   0.449322 0.827704 0.809008 -0.509799
H60   H     H_    0.373898 0.862920 0.836251 0.197970
H61   H     H_    0.506899 0.787021 0.834757 0.212104
H62   H     H_    0.343974 0.808279 0.778988 0.197819

loop_
_geom_bond_atom_site_label_1
_geom_bond_atom_site_label_2
_ccdc_geom_bond_type
C24   H12   S    
C13   C19   A    
C49   C50   A    
C56   H29   S    
C55   C56   A    
C49   C53   A    
C4    C6    S    
O2    C1    A    
C7    C8    A    
C71   H45   S    
C40   H25   S    
C1    O6    A    
C42   H26   S    
C70   H41   S    
O14   C66   A    
C59   C60   A    
C27   C33   S    
O12   V3    S    
C35   H24   S    
C36   H21   S    
C30   C31   S    
C14   C15   A    
C71   H43   S    
O17   V4    S    
C51   H57   S    
C16   C17   A    
C74   H61   S    
C71   H44   S    
C36   H37   S    
O12   C65   A    
O13   C68   A    
O5    C3    A    
O14   V3    S    
C8    H6    S    
C2    C48   S    
C28   H17   S    
C25   H14   S    
H19   C40   S    
V2    O10   S    
C38   C66   S    
C54   C58   A    
C5    C8    A    
C35   C39   S    
O17   V3    S    
O18   V4    S    
O11   C66   A    
O18   C67   A    
C62   C63   A    
C38   C44   T    
N6    C74   S    
O15   C67   A    
O8    V2    S    
C24   C27   S    
C23   C27   S    
C74   H60   S    
C57   H27   S    
N2    H38   S    
C17   H4    S    
C30   H18   S    
C14   H58   S    
O1    V2    S    
C11   C15   A    
O7    V1    S    
C55   C61   A    
C73   H54   S    
C10   C12   A    
C36   C37   S    
C33   C34   T    
O16   V4    S    
O9    C4    A    
C56   C57   A    
C41   C44   S    
O13   V3    S    
C3    C26   S    
O19   V4    S    
C16   N6    S    
N6    H59   S    
C72   H48   S    
C42   C43   S    
C10   C11   A    
C59   H51   S    
C26   C32   T    
V4    O20   S    
C40   C41   S    
C20   H8    S    
C74   H62   S    
C12   C13   A    
C73   H55   S    
N4    C72   S    
O4    C2    A    
C27   C31   S    
C70   H40   S    
C15   H1    S    
C13   C14   A    
C36   C39   S    
C21   H3    S    
C35   C40   S    
C7    C11   A    
C41   C42   S    
C69   H35   S    
C17   C18   A    
C72   H49   S    
C23   C28   S    
C52   C54   A    
C43   H23   S    
C58   C59   A    
H9    C28   S    
C29   C30   S    
C39   C45   S    
C19   C22   A    
C30   N1    S    
C43   N3    S    
C31   H15   S    
C6    C22   A    
C25   C29   S    
C73   H53   S    
O3    C4    A    
C7    H5    S    
C64   H50   S    
O15   V3    S    
C42   N4    S    
N5    C73   S    
O6    V2    S    
C50   H56   S    
C49   N5    S    
O9    V2    S    
N1    H33   S    
C9    H7    S    
C37   C41   S    
C69   H34   S    
O2    V1    S    
C24   C25   S    
C72   H47   S    
C47   C50   A    
C58   H30   S    
C28   C29   S    
C62   H31   S    
C47   C51   A    
O1    C2    A    
C12   C16   A    
O11   V4    S    
N4    H46   S    
C47   C65   S    
O5    V1    S    
O8    C3    A    
C1    C46   S    
C70   H39   S    
N3    C71   S    
C63   H28   S    
C60   C62   A    
C20   C21   A    
V3    O20   S    
C69   H36   S    
O4    V1    S    
O3    V1    S    
V1    O10   S    
C31   H32   S    
C18   C20   A    
C52   C53   A    
C18   C19   A    
C25   H13   S    
C35   H20   S    
C54   C55   A    
C37   N2    S    
C37   H22   S    
O7    V2    S    
C34   C68   S    
C6    C21   A    
C5    C9    A    
N3    H42   S    
C5    C67   S    
C53   C57   A    
C45   C46   T    
C61   C64   A    
N5    H52   S    
C22   H2    S    
N2    C70   S    
C60   C61   A    
C29   C32   S    
N1    C69   S    
C39   C43   S    
O19   C68   A    
C65   O16   A    
C51   C52   A    
C9    C10   A    
C48   C63   A    
C23   H10   S    
C24   H11   S    
C23   H16   S    
C48   C64   A    
