data_mof_unit_44975.cif
_audit_creation_date              2013-03-05T15:53:06-0500
_audit_creation_method            fapswitch 2.2
_symmetry_space_group_name_H-M    P1
_symmetry_Int_Tables_number       1
_space_group_crystal_system       triclinic
_cell_length_a                    9.970017
_cell_length_b                    10.72439
_cell_length_c                    15.401213
_cell_angle_alpha                 93.775641
_cell_angle_beta                  67.425392
_cell_angle_gamma                 90.091874
_cell_volume                      1516.76058855

loop_
_atom_site_label
_atom_site_type_symbol
_atom_site_description
_atom_site_fract_x
_atom_site_fract_y
_atom_site_fract_z
_atom_type_partial_charge
O1    O     O_R   0.385310 0.683220 0.500000 -0.640199
O2    O     O_R   0.614640 0.683250 0.500010 -0.639052
C1    C     C_R   0.504734 0.738548 0.490971 0.887669
O3    O     O_R   0.319840 0.499980 0.632240 -0.620660
O4    O     O_R   0.549160 0.500000 0.632250 -0.635847
C2    C     C_R   0.408499 0.497283 0.676184 0.899968
Zn1   Zn    Zn3+2 0.346880 0.499980 0.499990 0.949176
Zn2   Zn    Zn3+2 0.653120 0.500020 0.500010 0.951449
O5    O     O_R   0.385360 0.316750 0.499990 -0.629816
O6    O     O_R   0.614690 0.316780 0.500000 -0.611173
O7    O     O_R   0.450840 0.500000 0.367750 -0.616302
O8    O     O_R   0.680160 0.500020 0.367760 -0.592282
C3    C     C_R   0.494741 0.260888 0.507161 0.882176
C4    C     C_R   0.591361 0.493096 0.323889 0.852765
C5    C     C_R   0.349317 0.492828 0.778810 -0.122501
C6    C     C_R   0.646206 0.456629 0.222624 -0.102520
C7    C     C_R   0.158047 0.541618 0.932943 0.314014
C8    C     C_R   0.205721 0.529489 0.834482 -0.206252
C9    C     C_R   0.440835 0.454295 0.821356 -0.242321
C10   C     C_R   0.392315 0.450845 0.918986 0.082567
C11   C     C_R   0.254733 0.507085 0.975729 0.040244
C12   C     C_R   0.485689 0.406343 0.960977 0.006078
C13   C     C_R   0.461812 0.453846 0.053553 0.072275
C14   C     C_R   0.325075 0.509499 0.109748 -0.197767
C15   C     C_R   0.222315 0.533182 0.072070 -0.154267
C16   C     C_R   0.597852 0.313622 0.915918 -0.160810
C17   C     C_R   0.692240 0.280672 0.959259 0.253161
C18   C     C_R   0.677775 0.339855 0.046642 0.007891
C19   C     C_R   0.569652 0.434581 0.090375 0.023497
C20   C     C_R   0.765540 0.302003 0.093379 -0.095796
C21   C     C_R   0.742332 0.352738 0.183759 -0.002062
C22   C     C_R   0.572353 0.504950 0.170523 -0.020598
H1    H     H_    0.121648 0.578882 0.118676 0.202721
H2    H     H_    0.132056 0.554119 0.801598 0.191734
H3    H     H_    0.553666 0.433423 0.777721 0.177577
H4    H     H_    0.292991 0.530146 0.184749 0.151239
H5    H     H_    0.845050 0.226252 0.063089 0.187443
H6    H     H_    0.715852 0.888563 0.495326 0.174418
C23   C     C_R   0.281320 0.880506 0.447454 -0.143796
H7    H     H_    0.302423 0.791586 0.406790 0.176068
C24   C     C_R   0.148209 0.940305 0.465971 -0.159220
H8    H     H_    0.068519 0.895282 0.443487 0.145839
C25   C     C_R   0.115940 0.055709 0.516745 -0.085006
H9    H     H_    0.009792 0.099615 0.535874 0.152538
C26   C     C_R   0.221876 0.116062 0.541019 -0.085408
H10   H     H_    0.190247 0.203694 0.583170 0.177664
C27   C     C_R   0.363360 0.061888 0.513045 0.091728
C28   C     C_R   0.384503 0.936274 0.479765 0.099421
C29   C     C_R   0.506535 0.871446 0.482630 -0.112573
C30   C     C_R   0.620305 0.936227 0.494967 -0.197795
H11   H     H_    0.705695 0.112215 0.511291 0.175332
C31   C     C_R   0.612314 0.063854 0.507551 -0.174604
C32   C     C_R   0.486016 0.127785 0.515005 -0.120670
H12   H     H_    0.934090 0.348461 0.400462 0.167021
C33   C     C_R   0.783336 0.674172 0.614533 -0.220598
H13   H     H_    0.674137 0.671887 0.621788 0.238506
C34   C     C_R   0.809325 0.771475 0.666723 -0.274021
H14   H     H_    0.722315 0.838390 0.706168 0.206444
C35   C     C_R   0.941543 0.780499 0.673551 0.287074
C36   C     C_R   0.052733 0.688355 0.626251 -0.173745
C37   C     C_R   0.034954 0.589812 0.560369 0.064526
C38   C     C_R   0.891397 0.587257 0.557808 0.171559
N1    N     N_R   0.856800 0.501200 0.500850 -0.114696
C39   C     C_R   0.961442 0.416900 0.444918 -0.156735
C40   C     C_R   0.104356 0.417383 0.443845 0.008759
N2    N     N_R   0.142390 0.501280 0.500880 -0.131907
C41   C     C_1   0.512779 0.631844 0.195133 0.207361
N3    N     N_1   0.465953 0.733153 0.214515 -0.188537
N4    N     N_R   0.959100 0.884040 0.732577 0.220694
O9    O     O_R   0.919342 0.996031 0.722914 -0.347402
O10   O     O_R   0.983240 0.863601 0.807734 -0.283846
C42   C     C_1   0.170855 0.708692 0.656202 0.376340
N5    N     N_1   0.258981 0.736515 0.685270 -0.187497
C43   C     C_1   0.210635 0.328723 0.380364 0.228428
N6    N     N_1   0.295889 0.257404 0.328972 -0.189411
C44   C     C_1   0.810549 0.289146 0.236302 0.204756
N7    N     N_1   0.865065 0.235615 0.277333 -0.210494
N8    N     N_R   0.803326 0.186334 0.913887 0.215042
O11   O     O_R   0.921943 0.213844 0.844790 -0.339839
O12   O     O_R   0.786633 0.073767 0.942468 -0.308550
N9    N     N_R   0.014410 0.592863 0.986786 0.201888
O13   O     O_R   0.957356 0.674747 0.951442 -0.319592
O14   O     O_R   0.932229 0.545238 0.064328 -0.431286
C45   C     C_1   0.603203 0.235130 0.834121 0.286813
N10   N     N_1   0.607702 0.172162 0.768995 -0.164408

loop_
_geom_bond_atom_site_label_1
_geom_bond_atom_site_label_2
_geom_bond_distance
_ccdc_geom_bond_type
C5    C8    1.397980 A    
C33   H13   1.051316 S    
C24   H8    1.082709 S    
C9    C10   1.394668 A    
C17   N8    1.433453 S    
N9    O13   1.301273 A    
C1    C29   1.438891 S    
C23   C24   1.393526 A    
C26   H10   1.080518 S    
C6    C21   1.411843 A    
Zn1   O7    1.897785 S    
C16   C17   1.403723 A    
C14   H4    1.080958 S    
C13   C19   1.415815 A    
C18   C19   1.415512 A    
C19   C22   1.413058 A    
C20   C21   1.393024 A    
O7    C4    1.300661 A    
N8    O12   1.300736 A    
C34   C35   1.364846 A    
C36   C42   1.431878 S    
C33   C38   1.402187 A    
N4    O10   1.301261 A    
O5    C3    1.289823 A    
C2    C5    1.463706 S    
C45   N10   1.157771 T    
C30   C31   1.367798 A    
C13   C14   1.411551 A    
C27   C32   1.420754 A    
C35   C36   1.422953 A    
C24   C25   1.388310 A    
C37   C38   1.447035 A    
O3    Zn1   1.949281 S    
C37   N2    1.422474 A    
N9    O14   1.298510 A    
C3    C32   1.440142 S    
C26   C27   1.419859 A    
C43   N6    1.157483 T    
H11   C31   1.083872 S    
C14   C15   1.388372 A    
O3    C2    1.304682 A    
C23   H7    1.080135 S    
N8    O11   1.300798 A    
C7    C11   1.421820 A    
C40   C43   1.438095 S    
C41   N3    1.157333 T    
C20   H5    1.083613 S    
C36   C37   1.474476 A    
O1    C1    1.292504 A    
C5    C9    1.388729 A    
C25   H9    1.082800 S    
C38   N1    1.365623 A    
C8    H2    1.081427 S    
C27   C28   1.396048 A    
Zn2   O8    1.949278 S    
C7    C8    1.401132 A    
C44   N7    1.156204 T    
C25   C26   1.394026 A    
C35   N4    1.441759 S    
C22   C41   1.452654 S    
C28   C29   1.418993 A    
O8    C4    1.303189 A    
C29   C30   1.396754 A    
C33   C34   1.360412 A    
C4    C6    1.466254 S    
C31   C32   1.396514 A    
Zn1   O5    2.002733 S    
C11   C15   1.400637 A    
C16   C45   1.451667 S    
O1    Zn1   2.001540 S    
O2    Zn2   2.002734 S    
C10   C12   1.420196 A    
C42   N5    1.159740 T    
O6    C3    1.306425 A    
O4    Zn2   1.897785 S    
H6    C30   1.083861 S    
C6    C22   1.401489 A    
C39   C40   1.418601 A    
C18   C20   1.404199 A    
O2    C1    1.304552 A    
C9    H3    1.080627 S    
Zn1   N2    2.033610 S    
C21   C44   1.441962 S    
O4    C2    1.303577 A    
H12   C39   1.076275 S    
C7    N9    1.439182 S    
N4    O9    1.300816 A    
Zn2   N1    2.035708 S    
N1    C39   1.363185 A    
C10   C11   1.421947 A    
Zn2   O6    2.001539 S    
C40   N2    1.369484 A    
C12   C16   1.427489 A    
C17   C18   1.404846 A    
C12   C13   1.411808 A    
C34   H14   1.084684 S    
C15   H1    1.079292 S    
C23   C28   1.419688 A    
