data_mof_unit_33467.cif
_audit_creation_date              2012-10-26T18:40:23-0400
_audit_creation_method            fapswitch 2.2
_symmetry_space_group_name_H-M    P1
_symmetry_Int_Tables_number       1
_space_group_crystal_system       triclinic
_cell_length_a                    8.786377
_cell_length_b                    15.105939
_cell_length_c                    13.858673
_cell_angle_alpha                 89.851369
_cell_angle_beta                  97.843293
_cell_angle_gamma                 90.247792
_cell_volume                      1822.1843581

loop_
_atom_site_label
_atom_site_type_symbol
_atom_type_description
_atom_site_fract_x
_atom_site_fract_y
_atom_site_fract_z
_atom_type_partial_charge
C1    C     C_R   0.499818 0.329968 0.500088 0.536161
C2    C     C_R   0.534484 0.576261 0.895618 -0.163661
C3    C     C_R   0.501527 0.499702 0.055042 0.031607
C4    C     C_R   0.500046 0.499080 0.945663 0.033536
C5    C     C_R   0.204299 0.498726 0.475412 0.569655
C6    C     C_R   0.795695 0.501300 0.524567 0.570327
C7    C     C_2   0.039391 0.492364 0.461983 0.227168
C8    C     C_2   0.960594 0.507771 0.537928 0.227790
C9    C     C_R   0.413845 0.095208 0.565228 0.256097
C10   C     C_R   0.444322 0.905184 0.412338 0.253815
C11   C     C_R   0.421061 0.187798 0.567129 -0.128189
C12   C     C_R   0.499885 0.670221 0.499880 0.536123
C13   C     C_R   0.449933 0.812883 0.412724 -0.115635
C14   C     C_R   0.497847 0.233662 0.500144 -0.027935
C15   C     C_R   0.498270 0.766884 0.499418 -0.033857
C16   C     C_R   0.571683 0.187218 0.432794 -0.163866
C17   C     C_R   0.544344 0.813762 0.585651 -0.164162
C18   C     C_R   0.571618 0.095317 0.433677 -0.138314
C19   C     C_R   0.543502 0.905708 0.585098 -0.131130
C20   C     C_R   0.493534 0.048926 0.499768 0.053957
C21   C     C_R   0.493790 0.951899 0.498827 0.055046
C22   C     C_3   0.969234 0.383186 0.351921 -0.131525
C23   C     C_R   0.619142 0.542759 0.118314 0.223322
C24   C     C_3   0.030002 0.617336 0.647594 -0.106690
C25   C     C_3   0.175617 0.066893 0.607643 -0.009418
C26   C     C_3   0.086049 0.995993 0.654363 -0.370286
C27   C     C_3   0.233899 0.955856 0.315325 -0.007437
C28   C     C_3   0.180246 0.014924 0.228422 -0.371582
C29   C     C_3   0.859659 0.528621 0.078292 -0.018010
C30   C     C_3   0.983675 0.575253 0.030415 -0.357263
C31   C     C_3   0.567656 0.294193 0.956499 -0.016094
C32   C     C_3   0.532473 0.210374 0.010442 -0.364179
C33   C     C_R   0.466022 0.421520 0.889583 0.228140
C34   C     C_R   0.613693 0.543260 0.219572 0.079047
C35   C     C_R   0.462942 0.424524 0.787546 0.080011
C36   C     C_R   0.387228 0.456688 0.199579 0.008669
C37   C     C_R   0.536255 0.575008 0.794371 0.011291
C38   C     C_R   0.385298 0.456328 0.098042 -0.168448
Cu1   Cu    Cu3+1 0.500000 0.499990 0.596430 0.952140
Cu2   Cu    Cu3+1 0.500000 0.500010 0.403570 0.940689
H1    H     H_    0.364375 0.223821 0.619472 0.118264
H2    H     H_    0.566187 0.635008 0.758780 0.126815
H3    H     H_    0.291849 0.422914 0.053478 0.150919
H4    H     H_    0.558938 0.637947 0.934269 0.154812
H5    H     H_    0.912199 0.345716 0.406422 0.108549
H6    H     H_    0.088751 0.359201 0.351823 0.112078
H7    H     H_    0.904605 0.369268 0.279023 0.125091
H8    H     H_    0.910282 0.641052 0.647570 0.111998
H9    H     H_    0.086800 0.654812 0.592993 0.103700
H10   H     H_    0.094425 0.631577 0.720463 0.144010
H11   H     H_    0.135512 0.066296 0.527670 0.110393
H12   H     H_    0.413743 0.777476 0.345557 0.142070
H13   H     H_    0.149095 0.132259 0.638028 0.133734
H14   H     H_    0.120030 0.995821 0.734579 0.160107
H15   H     H_    0.960940 0.009433 0.638220 0.094386
H16   H     H_    0.109797 0.929865 0.624913 0.152507
H17   H     H_    0.193598 0.985678 0.380806 0.124478
H18   H     H_    0.180506 0.889244 0.301812 0.131194
H19   H     H_    0.216343 0.986572 0.161275 0.161766
H20   H     H_    0.053032 0.020154 0.218677 0.091906
H21   H     H_    0.230780 0.082186 0.240589 0.154912
H22   H     H_    0.822149 0.468928 0.034103 0.118573
H23   H     H_    0.632257 0.222033 0.381037 0.123964
H24   H     H_    0.910003 0.507791 0.152985 0.159840
H25   H     H_    0.028171 0.633451 0.074480 0.163344
H26   H     H_    0.079800 0.529113 0.024705 0.098377
H27   H     H_    0.935850 0.597674 0.956073 0.160883
H28   H     H_    0.655394 0.332823 0.004934 0.119767
H29   H     H_    0.615660 0.274876 0.889244 0.130047
H30   H     H_    0.446705 0.169432 0.963773 0.165792
H31   H     H_    0.639180 0.171306 0.029417 0.094719
H32   H     H_    0.485883 0.227763 0.078521 0.155408
H33   H     H_    0.583302 0.779420 0.653147 0.120520
H34   H     H_    0.633069 0.060226 0.383001 0.145951
H35   H     H_    0.582676 0.940985 0.651909 0.146251
H36   H     H_    0.701943 0.578091 0.267033 0.166602
H37   H     H_    0.431843 0.365251 0.745989 0.138079
H38   H     H_    0.297398 0.422434 0.231014 0.133865
N1    N     N_R   0.500000 0.500020 0.258690 -0.255634
N2    N     N_R   0.500000 0.499980 0.741310 -0.244179
O1    O     O_R   0.500010 0.371450 0.581430 -0.523127
O2    O     O_3   0.034000 0.525276 0.631176 -0.563121
O3    O     O_3   0.334429 0.048957 0.629104 -0.568049
O4    O     O_3   0.395582 0.949732 0.326540 -0.569119
O5    O     O_3   0.736565 0.587565 0.082183 -0.582944
O6    O     O_3   0.430995 0.342968 0.932923 -0.583706
O7    O     O_R   0.499990 0.628550 0.418570 -0.509037
O8    O     O_R   0.500010 0.371460 0.418560 -0.507781
O9    O     O_R   0.499990 0.628540 0.581440 -0.520824
O10   O     O_R   0.274840 0.499990 0.562640 -0.465729
O11   O     O_R   0.725160 0.500010 0.437360 -0.484856
O12   O     O_R   0.274840 0.500000 0.399770 -0.495365
O13   O     O_R   0.725160 0.500000 0.600230 -0.481385
O14   O     O_3   0.966008 0.475210 0.368647 -0.587721

loop_
_geom_bond_atom_site_label_1
_geom_bond_atom_site_label_2
_ccdc_geom_bond_type
C36   N1    A    
C3    C23   A    
C26   H15   S    
C7    C8    D    
C32   H32   S    
C8    O2    S    
Cu2   O7    S    
C27   O4    S    
C19   C21   A    
C25   H13   S    
C11   C14   A    
C1    O1    A    
C6    O11   A    
C35   N2    A    
C10   O4    S    
C37   H2    S    
C24   O2    S    
C5    O12   A    
Cu1   O13   S    
C17   C19   A    
C29   H22   S    
C3    C38   A    
C2    H4    S    
C16   H23   S    
Cu1   O10   S    
C29   O5    S    
C5    O10   A    
C28   H21   S    
C6    O13   A    
C1    O8    A    
C22   H7    S    
C29   H24   S    
C18   H34   S    
C31   O6    S    
C17   H33   S    
C22   O14   S    
C26   H14   S    
C32   H31   S    
C28   H20   S    
C10   C21   A    
C24   H10   S    
C31   H28   S    
C37   N2    A    
C24   H8    S    
C12   O9    A    
Cu1   O1    S    
C27   H17   S    
Cu1   Cu2   S    
C5    C7    S    
C32   H30   S    
C25   C26   S    
C35   H37   S    
C2    C4    A    
C33   O6    S    
C25   H11   S    
C29   C30   S    
C34   N1    A    
C13   H12   S    
C9    C20   A    
C31   C32   S    
C12   C15   S    
C23   C34   A    
Cu2   N1    S    
Cu2   O12   S    
C9    C11   A    
C30   H26   S    
C9    O3    S    
C22   H6    S    
C13   C15   A    
C14   C16   A    
C3    C4    S    
C28   H19   S    
C24   H9    S    
C15   C17   A    
C7    O14   S    
C4    C33   A    
C12   O7    A    
C30   H27   S    
C10   C13   A    
C26   H16   S    
C6    C8    S    
Cu1   N2    S    
Cu2   O8    S    
C36   C38   A    
C38   H3    S    
C36   H38   S    
C2    C37   A    
C27   H18   S    
C19   H35   S    
C33   C35   A    
C11   H1    S    
C18   C20   A    
Cu2   O11   S    
C30   H25   S    
C31   H29   S    
C22   H5    S    
C20   C21   S    
C16   C18   A    
C23   O5    S    
C27   C28   S    
C25   O3    S    
C1    C14   S    
Cu1   O9    S    
C34   H36   S    
