data_mof_unit_56506.cif
_audit_creation_date              2012-12-10T17:50:47-0500
_audit_creation_method            fapswitch 2.2
_symmetry_space_group_name_H-M    P1
_symmetry_Int_Tables_number       1
_space_group_crystal_system       triclinic
_cell_length_a                    14.801587
_cell_length_b                    14.586512
_cell_length_c                    15.845336
_cell_angle_alpha                 75.980003
_cell_angle_beta                  102.540129
_cell_angle_gamma                 114.680363
_cell_volume                      2989.74711446

loop_
_atom_site_label
_atom_site_type_symbol
_atom_type_description
_atom_site_fract_x
_atom_site_fract_y
_atom_site_fract_z
_atom_type_partial_charge
C1    C     C_R   0.880674 0.311349 0.515144 0.827947
C2    C     C_R   0.360644 0.923615 0.479382 0.052147
C3    C     C_R   0.676355 0.995823 0.544930 0.086775
C4    C     C_R   0.325318 0.002074 0.436074 0.085628
C5    C     C_R   0.534991 0.050738 0.484191 0.090459
C6    C     C_R   0.466141 0.947395 0.501958 0.091079
C7    C     C_R   0.505353 0.870965 0.539454 -0.240362
C8    C     C_R   0.496651 0.126074 0.439645 -0.239473
C9    C     C_R   0.607570 0.894502 0.558599 -0.227092
C10   C     C_R   0.394695 0.102365 0.416923 -0.226279
C11   C     C_R   0.730399 0.688409 0.375336 -0.319066
C12   C     C_R   0.119312 0.688625 0.484306 0.830201
C13   C     C_R   0.269157 0.311215 0.625069 -0.319252
C14   C     C_R   0.806090 0.651863 0.390777 0.089230
C15   C     C_R   0.193196 0.347583 0.608592 0.086097
C16   C     C_R   0.000172 0.500354 0.659869 0.833327
C17   C     C_R   0.999169 0.498460 0.340244 0.832101
C18   C     C_R   0.710489 0.502384 0.481750 0.013409
C19   C     C_R   0.290617 0.498287 0.519959 0.009931
C20   C     C_R   0.631780 0.537507 0.472796 -0.027830
C21   C     C_R   0.369107 0.462717 0.529211 -0.028634
C22   C     C_R   0.643188 0.631420 0.415382 0.143414
C23   C     C_R   0.780889 0.019436 0.566685 0.103181
C24   C     C_R   0.357121 0.368572 0.586196 0.142738
C25   C     C_R   0.541533 0.482492 0.514666 0.002273
C26   C     C_R   0.459481 0.517487 0.487606 0.001710
C27   C     C_R   0.471921 0.605805 0.420342 -0.023724
C28   C     C_R   0.528309 0.393334 0.581266 -0.021644
C29   C     C_R   0.565110 0.665097 0.392108 -0.232168
C30   C     C_R   0.434997 0.334605 0.609583 -0.231137
C31   C     C_3   0.998607 0.399409 0.048286 0.020988
C32   C     C_3   0.006517 0.582015 0.956801 0.019995
C33   C     C_3   0.920112 0.416251 0.970127 -0.277089
C34   C     C_R   0.221003 0.978518 0.411568 0.101088
C35   C     C_3   0.084984 0.565421 0.034838 -0.280061
C36   C     C_1   0.001425 0.500082 0.749703 -0.178029
C37   C     C_1   0.996012 0.493654 0.251165 -0.184109
C38   C     C_3   0.084757 0.477226 0.996120 0.020481
C39   C     C_3   0.920647 0.504633 0.008533 0.024361
C40   C     C_3   0.006785 0.494568 0.918950 0.090386
C41   C     C_3   0.998022 0.487138 0.085955 0.091350
C42   C     C_1   0.004378 0.498105 0.826160 -0.097096
C43   C     C_1   0.994897 0.489821 0.176301 -0.097365
C44   C     C_R   0.813496 0.201410 0.524635 -0.104652
C45   C     C_R   0.849182 0.121948 0.555704 0.158454
C46   C     C_R   0.186605 0.798436 0.470644 -0.103692
C47   C     C_R   0.388414 0.629755 0.363695 0.082584
C48   C     C_R   0.384465 0.726402 0.354693 -0.178820
C49   C     C_R   0.307859 0.750061 0.297691 -0.120930
C50   C     C_R   0.236838 0.678756 0.247293 -0.120678
C51   C     C_R   0.242304 0.583725 0.254339 -0.115055
C52   C     C_R   0.316989 0.558706 0.312764 -0.125720
C53   C     C_R   0.610453 0.365478 0.636095 0.081638
C54   C     C_R   0.679917 0.429973 0.693315 -0.127301
C55   C     C_R   0.751476 0.399195 0.751542 -0.128164
C56   C     C_R   0.152100 0.876745 0.428064 0.162329
C57   C     C_R   0.756076 0.305372 0.751698 -0.119397
C58   C     C_R   0.687203 0.240782 0.694780 -0.122050
C59   C     C_R   0.613527 0.269878 0.638049 -0.184273
C60   C     C_R   0.993958 0.293556 0.091995 0.108768
C61   C     C_R   0.985278 0.224452 0.039531 -0.135053
C62   C     C_R   0.984323 0.127116 0.077951 -0.140573
C63   C     C_R   0.992447 0.097985 0.169101 -0.106876
C64   C     C_R   0.001556 0.166203 0.221893 -0.128230
C65   C     C_R   0.002424 0.263602 0.183706 -0.167879
C66   C     C_R   0.008180 0.683017 0.902790 0.113040
C67   C     C_R   0.710242 0.176814 0.502475 -0.322411
C68   C     C_R   0.087305 0.775573 0.918632 -0.152716
C69   C     C_R   0.087768 0.868426 0.867249 -0.143868
C70   C     C_R   0.009519 0.869541 0.799801 -0.108000
C71   C     C_R   0.930509 0.777787 0.783863 -0.125508
C72   C     C_R   0.929607 0.685012 0.835266 -0.127665
C73   C     C_R   0.830490 0.523913 0.015497 0.112075
C74   C     C_R   0.733935 0.463459 0.980224 -0.156748
C75   C     C_R   0.651320 0.484256 0.984891 -0.138405
C76   C     C_R   0.664319 0.565050 0.025114 -0.114056
C77   C     C_R   0.760192 0.625568 0.060330 -0.129756
C78   C     C_R   0.289196 0.823516 0.498151 -0.317490
C79   C     C_R   0.843112 0.605432 0.055252 -0.122475
C80   C     C_R   0.180368 0.462915 0.996840 0.105887
C81   C     C_R   0.231319 0.432865 0.077388 -0.131994
C82   C     C_R   0.319364 0.418141 0.080158 -0.128669
C83   C     C_R   0.357819 0.433770 0.002569 -0.118948
C84   C     C_R   0.308691 0.464898 0.922199 -0.141219
C85   C     C_R   0.220534 0.479765 0.919192 -0.145553
C86   C     C_R   0.640187 0.075146 0.509581 0.052452
Cu1   Cu    Cu3+1 0.081740 0.475690 0.522610 0.945255
Cu2   Cu    Cu3+1 0.918260 0.524310 0.477390 0.953077
H1    H     H_    0.853908 0.353576 0.943702 0.133604
H2    H     H_    0.371231 0.164282 0.383048 0.146572
H3    H     H_    0.311302 0.762303 0.534651 0.169841
H4    H     H_    0.685736 0.239382 0.482283 0.172036
H5    H     H_    0.459723 0.790579 0.552614 0.140133
H6    H     H_    0.543389 0.204717 0.418574 0.144088
H7    H     H_    0.573541 0.733641 0.343064 0.148054
H8    H     H_    0.425965 0.265464 0.658018 0.147538
H9    H     H_    0.440785 0.783166 0.391477 0.144521
H10   H     H_    0.304331 0.824032 0.291827 0.134895
H11   H     H_    0.178123 0.697425 0.202370 0.116295
H12   H     H_    0.153210 0.625413 0.062220 0.138118
H13   H     H_    0.189109 0.529140 0.214455 0.129028
H14   H     H_    0.320372 0.484903 0.317110 0.120917
H15   H     H_    0.676834 0.502571 0.694437 0.122383
H16   H     H_    0.802519 0.447733 0.797207 0.128501
H17   H     H_    0.812303 0.282311 0.796515 0.117089
H18   H     H_    0.690017 0.167634 0.695455 0.137798
H19   H     H_    0.558897 0.218267 0.595732 0.144034
H20   H     H_    0.979929 0.246308 0.968794 0.122561
H21   H     H_    0.977710 0.074431 0.037036 0.124911
H22   H     H_    0.992097 0.022764 0.198844 0.122892
H23   H     H_    0.296617 0.573063 0.485913 0.151176
H24   H     H_    0.008570 0.143819 0.292565 0.142041
H25   H     H_    0.011491 0.315007 0.226392 0.138532
H26   H     H_    0.148745 0.776471 0.970282 0.119214
H27   H     H_    0.148939 0.939546 0.879626 0.125877
H28   H     H_    0.010080 0.941409 0.759956 0.129578
H29   H     H_    0.869883 0.778288 0.731687 0.130633
H30   H     H_    0.867514 0.614838 0.822493 0.118705
H31   H     H_    0.722128 0.400924 0.948374 0.123550
H32   H     H_    0.577311 0.437826 0.956937 0.121035
H33   H     H_    0.600225 0.580989 0.028719 0.126713
H34   H     H_    0.705769 0.428453 0.516656 0.151157
H35   H     H_    0.770324 0.688362 0.091216 0.123391
H36   H     H_    0.917174 0.653536 0.081963 0.123861
H37   H     H_    0.202265 0.419359 0.138138 0.118134
H38   H     H_    0.357574 0.394269 0.142484 0.125281
H39   H     H_    0.425662 0.421821 0.004812 0.116645
H40   H     H_    0.339030 0.477699 0.862131 0.131806
H41   H     H_    0.185329 0.505249 0.856263 0.144522
H42   H     H_    0.036471 0.876938 0.332447 0.212470
H43   H     H_    0.024259 0.894656 0.430633 0.235735
H44   H     H_    0.975252 0.109145 0.539658 0.233840
H45   H     H_    0.124722 0.302590 0.637440 0.144049
H46   H     H_    0.968654 0.114415 0.643800 0.216343
H47   H     H_    0.791249 0.900079 0.659742 0.209316
H48   H     H_    0.796619 0.891132 0.555664 0.221990
H49   H     H_    0.212221 0.090746 0.309051 0.218312
H50   H     H_    0.205513 0.111322 0.408669 0.221014
H51   H     H_    0.873814 0.696263 0.360758 0.144656
H52   H     H_    0.739600 0.760516 0.331453 0.135785
H53   H     H_    0.259376 0.238742 0.668522 0.135497
H54   H     H_    0.631704 0.831520 0.585319 0.147979
N1    N     N_R   0.795440 0.560790 0.443380 -0.183224
N2    N     N_R   0.204560 0.439210 0.556620 -0.183313
N3    N     N_3   0.047137 0.853187 0.400336 -0.585094
N4    N     N_3   0.954713 0.144916 0.577737 -0.581462
N5    N     N_3   0.819849 0.940715 0.600962 -0.631128
N6    N     N_3   0.182898 0.056303 0.368451 -0.631337
O1    O     O_R   0.977900 0.338120 0.529810 -0.559612
O2    O     O_R   0.022100 0.661880 0.470190 -0.557631
O3    O     O_R   0.839850 0.379180 0.491620 -0.598508
O4    O     O_R   0.160150 0.620820 0.508380 -0.598722
O5    O     O_R   0.069010 0.479460 0.640020 -0.587354
O6    O     O_R   0.930990 0.520540 0.359980 -0.577750
O7    O     O_R   0.930960 0.520530 0.601820 -0.563043
O8    O     O_R   0.069040 0.479470 0.398180 -0.567087

loop_
_geom_bond_atom_site_label_1
_geom_bond_atom_site_label_2
_ccdc_geom_bond_type
C84   H40   S    
C66   C68   A    
Cu1   Cu2   S    
C75   C76   A    
C34   C56   A    
C19   N2    A    
C23   C45   A    
C22   C29   A    
C27   C29   A    
C73   C74   A    
C12   O4    A    
H49   N6    S    
C36   C42   T    
C21   C26   A    
C80   C85   A    
C81   C82   A    
C53   C59   A    
C39   C41   S    
C53   C54   A    
C25   C28   A    
C74   H31   S    
C52   H14   S    
C50   H11   S    
C33   C39   S    
C3    C9    A    
C76   H33   S    
C18   N1    A    
C19   C21   A    
C5    C6    A    
C11   C14   A    
C64   H24   S    
C48   H9    S    
C20   C25   A    
C32   C39   S    
C56   N3    S    
C61   H20   S    
C82   H38   S    
C30   H8    S    
C85   H41   S    
C49   H10   S    
C54   C55   A    
C34   N6    S    
C66   C72   A    
C83   C84   A    
H50   N6    S    
C68   C69   A    
C31   C33   S    
C1    O1    A    
C70   C71   A    
C13   H53   S    
Cu1   N2    S    
Cu2   N1    S    
C61   C62   A    
C40   C42   S    
C3    C86   A    
C41   C43   S    
C2    C6    A    
Cu2   O2    S    
H46   N4    S    
C17   O6    A    
C77   C79   A    
C7    H5    S    
C4    C34   A    
C33   C40   S    
C57   H17   S    
C71   H29   S    
C51   C52   A    
C32   C35   S    
C12   O2    A    
C54   H15   S    
C35   C38   S    
C8    H6    S    
C76   C77   A    
C12   C46   S    
C74   C75   A    
C46   C78   A    
C70   H28   S    
C25   C26   A    
C63   C64   A    
C23   N5    S    
C55   H16   S    
C59   H19   S    
C45   N4    S    
C13   C24   A    
C60   C61   A    
C58   H18   S    
Cu2   O6    S    
C31   C60   S    
C37   C43   T    
C2    C4    A    
C11   H52   S    
Cu2   O7    S    
C62   C63   A    
C2    C78   A    
C33   H1    S    
C1    C44   S    
C47   C48   A    
C28   C53   S    
C16   O7    A    
Cu1   O5    S    
C50   C51   A    
C73   C79   A    
C17   C37   S    
C84   C85   A    
C6    C7    A    
C18   H34   S    
C5    C86   A    
C39   C73   S    
C48   C49   A    
C20   C22   A    
C60   C65   A    
C82   C83   A    
H47   N5    S    
Cu1   O4    S    
C55   C57   A    
C26   C27   A    
Cu2   O3    S    
C4    C10   A    
C35   H12   S    
C44   C45   A    
C32   C66   S    
C27   C47   S    
C7    C9    A    
C14   N1    A    
C69   H27   S    
C67   C86   A    
C31   C41   S    
C81   H37   S    
C65   H25   S    
C75   H32   S    
C83   H39   S    
C80   C81   A    
C46   C56   A    
C5    C8    A    
C9    H54   S    
C47   C52   A    
C15   H45   S    
C19   H23   S    
C78   H3    S    
C51   H13   S    
C79   H36   S    
C11   C22   A    
C31   C38   S    
C1    O3    A    
H44   N4    S    
C64   C65   A    
C63   H22   S    
C13   C15   A    
C58   C59   A    
C71   C72   A    
C16   C36   S    
C38   C40   S    
C57   C58   A    
C62   H21   S    
C38   C80   S    
C28   C30   A    
C67   H4    S    
H43   N3    S    
C18   C20   A    
C32   C40   S    
C69   C70   A    
C35   C41   S    
C24   C30   A    
H48   N5    S    
C29   H7    S    
C15   N2    A    
C14   H51   S    
C10   H2    S    
C8    C10   A    
C49   C50   A    
Cu1   O1    S    
C21   C24   A    
C72   H30   S    
C16   O5    A    
Cu1   O8    S    
C44   C67   A    
C3    C23   A    
C17   O8    A    
C68   H26   S    
C77   H35   S    
H42   N3    S    
