data_mof_unit_38671.cif
_audit_creation_date              2012-12-10T17:49:40-0500
_audit_creation_method            fapswitch 2.2
_symmetry_space_group_name_H-M    P1
_symmetry_Int_Tables_number       1
_space_group_crystal_system       triclinic
_cell_length_a                    14.774675
_cell_length_b                    14.864492
_cell_length_c                    15.858073
_cell_angle_alpha                 76.58661
_cell_angle_beta                  102.310273
_cell_angle_gamma                 116.185175
_cell_volume                      3015.43489026

loop_
_atom_site_label
_atom_site_type_symbol
_atom_type_description
_atom_site_fract_x
_atom_site_fract_y
_atom_site_fract_z
_atom_type_partial_charge
C1    C     C_R   0.879420 0.312642 0.510722 0.803715
C2    C     C_3   0.957151 0.376044 0.064173 0.139921
C3    C     C_3   0.992880 0.486098 0.084976 -0.048725
C4    C     C_3   0.103949 0.552772 0.061649 0.246506
C5    C     C_3   0.109120 0.550006 0.965141 -0.106798
C6    C     C_1   0.993252 0.485211 0.177691 0.081179
C7    C     C_1   0.001841 0.502094 0.824712 0.091265
C8    C     C_1   0.001256 0.502824 0.748786 -0.118891
C9    C     C_R   0.808578 0.207036 0.501501 -0.061739
C10   C     C_R   0.187398 0.794507 0.493630 -0.134716
C11   C     C_R   0.771772 0.040186 0.474194 -0.131764
C12   C     C_R   0.000450 0.501206 0.659266 0.845996
C13   C     C_R   0.842296 0.136177 0.491772 -0.196848
C14   C     C_R   0.703914 0.180816 0.492221 -0.144493
C15   C     C_R   0.631493 0.087890 0.468011 0.035957
C16   C     C_R   0.666360 0.014648 0.463558 0.055045
C17   C     C_R   0.525300 0.062480 0.458892 -0.020402
C18   C     C_R   0.455276 0.960657 0.457359 0.001139
C19   C     C_R   0.491833 0.889339 0.450930 -0.287780
C20   C     C_R   0.596024 0.915024 0.455670 0.459302
C21   C     C_R   0.486920 0.134487 0.456989 0.116945
C22   C     C_R   0.396425 0.104245 0.491634 0.149941
C23   C     C_R   0.119795 0.687048 0.490487 0.816646
C24   C     C_R   0.324703 0.000506 0.497221 -0.032418
C25   C     C_R   0.352536 0.931702 0.469640 0.069046
C26   C     C_R   0.226868 0.961035 0.527081 0.171531
C27   C     C_R   0.163999 0.855915 0.532794 0.109385
C28   C     C_R   0.278823 0.833589 0.460230 -0.258310
C29   C     C_R   0.702020 0.635399 0.327628 0.002693
C30   C     C_R   0.794254 0.628793 0.368726 0.540206
C31   C     C_R   0.714878 0.518133 0.491554 0.249209
C32   C     C_R   0.628210 0.541179 0.461205 -0.123444
C33   C     C_R   0.615059 0.583745 0.372257 0.000984
C34   C     C_R   0.998870 0.497351 0.341033 0.804502
C35   C     C_R   0.551821 0.517717 0.514599 0.140164
C36   C     C_R   0.453408 0.511577 0.476410 0.075146
C37   C     C_R   0.439925 0.544795 0.385967 -0.276931
C38   C     C_R   0.516247 0.574836 0.333744 0.232376
C39   C     C_R   0.575601 0.512789 0.605422 -0.222125
C40   C     C_R   0.501306 0.481017 0.658929 -0.099329
C41   C     C_R   0.400337 0.459506 0.623452 0.028454
C42   C     C_R   0.374154 0.475881 0.531141 -0.143918
C43   C     C_R   0.326047 0.422944 0.680023 0.350866
C44   C     C_R   0.228435 0.415388 0.643907 -0.121758
C45   C     C_3   0.945617 0.383669 0.962213 0.026364
C46   C     C_R   0.269904 0.455767 0.499573 0.562473
C47   C     C_3   0.940314 0.558021 0.929371 0.174258
C48   C     C_3   0.917907 0.531531 0.025818 0.273388
C49   C     C_1   0.995659 0.489851 0.252646 -0.161780
C50   C     C_3   0.999648 0.497052 0.917737 -0.056772
Cu1   Cu    Cu3+1 0.081750 0.475690 0.522550 0.978707
Cu2   Cu    Cu3+1 0.918250 0.524310 0.477450 1.021386
H1    H     H_    0.291128 0.784578 0.427678 0.151049
H2    H     H_    0.800154 0.985796 0.469694 0.191304
H3    H     H_    0.922776 0.154940 0.497354 0.171173
H4    H     H_    0.679188 0.232896 0.506705 0.204052
H5    H     H_    0.863405 0.360740 0.937918 0.179320
H6    H     H_    0.442295 0.810855 0.448771 0.146750
H7    H     H_    0.172691 0.395118 0.686586 0.172386
H8    H     H_    0.524335 0.475098 0.728863 0.195305
H9    H     H_    0.991587 0.640843 0.918618 0.154548
H10   H     H_    0.370310 0.548812 0.352639 0.218694
H11   H     H_    0.653462 0.537502 0.635908 0.145732
H12   H     H_    0.839048 0.470936 0.025939 0.127645
H13   H     H_    0.143746 0.629568 0.930966 0.169690
H14   H     H_    0.155094 0.519872 0.105607 0.147677
N1    N     N_R   0.795410 0.560790 0.443550 -0.233841
N2    N     N_R   0.204590 0.439170 0.556520 -0.238139
O1    O     O_R   0.977910 0.338120 0.529720 -0.583646
O2    O     O_R   0.839850 0.379180 0.491640 -0.551827
O3    O     O_R   0.069060 0.479460 0.639610 -0.587471
O4    O     O_R   0.931000 0.520530 0.601530 -0.549061
O5    O     O_R   0.160150 0.620820 0.508360 -0.573004
O6    O     O_R   0.022090 0.661880 0.470280 -0.551305
O7    O     O_R   0.069000 0.479470 0.398470 -0.538778
O8    O     O_R   0.930940 0.520540 0.360390 -0.532624
I1    I     I_    0.812462 0.271870 0.110214 -0.317457
I2    I     I_    0.969049 0.270258 0.914769 -0.275537
I3    I     I_    0.056796 0.304836 0.136967 -0.330568
O9    O     O_3   0.132136 0.654538 0.072639 -0.576823
C51   C     C_3   0.234019 0.700187 0.111592 0.075999
H15   H     H_    0.260554 0.783551 0.091003 0.185827
H16   H     H_    0.286094 0.677739 0.088363 0.167260
C52   C     C_3   0.240159 0.676813 0.211630 -0.361833
H17   H     H_    0.180949 0.690855 0.232560 0.231189
H18   H     H_    0.225912 0.595690 0.234244 0.231215
C53   C     C_3   0.344046 0.742723 0.255175 -0.857935
H19   H     H_    0.405649 0.735658 0.231397 0.290784
H20   H     H_    0.348286 0.717692 0.326917 0.244629
H21   H     H_    0.355607 0.823566 0.241181 0.260942
O10   O     O_3   0.631585 0.841134 0.462127 -0.614106
C54   C     C_3   0.602784 0.765990 0.537035 0.049486
H22   H     H_    0.645437 0.718824 0.543581 0.177855
H23   H     H_    0.520795 0.714520 0.527177 0.150398
C55   C     C_3   0.629869 0.809152 0.623282 -0.404460
H24   H     H_    0.712668 0.857468 0.633070 0.230533
H25   H     H_    0.588618 0.856665 0.621332 0.227496
C56   C     C_3   0.600462 0.724264 0.700943 -0.859873
H26   H     H_    0.516891 0.678680 0.693629 0.271206
H27   H     H_    0.623347 0.757248 0.762191 0.269324
H28   H     H_    0.639355 0.674085 0.705677 0.248631
I4    I     I_    0.038660 0.786027 0.608763 -0.424141
I5    I     I_    0.401572 0.219391 0.554645 -0.314872
I6    I     I_    0.541800 0.278685 0.373293 -0.336260
I7    I     I_    0.155124 0.049003 0.552036 -0.397185
I8    I     I_    0.456527 0.563150 0.199665 -0.366449
O11   O     O_3   0.230664 0.443245 0.413992 -0.622359
C57   C     C_3   0.192539 0.339217 0.405913 0.061865
H29   H     H_    0.110820 0.313727 0.379000 0.187731
H30   H     H_    0.196804 0.287345 0.468751 0.160994
C58   C     C_3   0.249591 0.327374 0.341979 -0.327397
H31   H     H_    0.244804 0.378099 0.279201 0.257145
H32   H     H_    0.330884 0.350021 0.368913 0.258001
C59   C     C_3   0.206961 0.218233 0.325036 -0.793813
H33   H     H_    0.122807 0.186157 0.310522 0.271848
H34   H     H_    0.229020 0.170321 0.382657 0.275497
H35   H     H_    0.239019 0.216251 0.268553 0.275835
I9    I     I_    0.706594 0.739560 0.207278 -0.333347
O12   O     O_3   0.880846 0.681596 0.327588 -0.584239
C60   C     C_3   0.928316 0.783205 0.344136 0.078421
H36   H     H_    0.955591 0.786557 0.414510 0.182803
H37   H     H_    0.876055 0.821828 0.325997 0.163166
C61   C     C_3   0.018090 0.842430 0.291250 -0.314274
H38   H     H_    0.075622 0.810044 0.314124 0.214905
H39   H     H_    0.991079 0.834914 0.221167 0.241347
C62   C     C_3   0.067564 0.954803 0.299721 -0.868996
H40   H     H_    0.012844 0.989950 0.272115 0.279254
H41   H     H_    0.134701 0.994553 0.263420 0.263882
H42   H     H_    0.093000 0.964487 0.369258 0.269860
I10   I     I_    0.706797 0.396392 0.599052 -0.299855
O13   O     O_3   0.355261 0.409615 0.770104 -0.608899
C63   C     C_3   0.280621 0.325294 0.815206 0.066597
H43   H     H_    0.245521 0.259032 0.779366 0.153141
H44   H     H_    0.220940 0.346750 0.825234 0.183528
C64   C     C_3   0.330706 0.294430 0.905060 -0.306074
H45   H     H_    0.388904 0.269897 0.896848 0.230210
H46   H     H_    0.369306 0.360806 0.940409 0.252986
C65   C     C_3   0.252651 0.208051 0.959602 -0.820434
H47   H     H_    0.195339 0.232109 0.970599 0.294091
H48   H     H_    0.291578 0.187034 0.024059 0.260448
H49   H     H_    0.213582 0.140380 0.926003 0.256539
O14   O     O_3   0.847175 0.535184 0.872233 -0.614504
C66   C     C_3   0.854566 0.615065 0.801093 0.089071
H50   H     H_    0.795814 0.582904 0.746785 0.172398
H51   H     H_    0.928912 0.647876 0.775194 0.163727
C67   C     C_3   0.835276 0.698251 0.826126 -0.408117
H52   H     H_    0.753845 0.668816 0.834272 0.217559
H53   H     H_    0.880933 0.720330 0.889177 0.256658
C68   C     C_3   0.863325 0.792822 0.756572 -0.839372
H54   H     H_    0.947002 0.830166 0.756112 0.288246
H55   H     H_    0.838578 0.847333 0.771430 0.263296
H56   H     H_    0.826051 0.772577 0.690896 0.262582
O15   O     O_3   0.925525 0.619397 0.053774 -0.573165
C69   C     C_3   0.844699 0.595691 0.101728 0.093012
H57   H     H_    0.869256 0.654856 0.143642 0.200036
H58   H     H_    0.827926 0.522607 0.147456 0.155745
C70   C     C_3   0.748290 0.594611 0.040597 -0.419918
H59   H     H_    0.752032 0.672934 0.023189 0.238920
H60   H     H_    0.742420 0.567819 0.979167 0.248875
C71   C     C_3   0.652192 0.524074 0.082961 -0.755390
H61   H     H_    0.641074 0.443858 0.089956 0.255783
H62   H     H_    0.585079 0.532982 0.041300 0.274261
H63   H     H_    0.657730 0.541579 0.148616 0.289313
I11   I     I_    0.217628 0.493480 0.954988 -0.336080

loop_
_geom_bond_atom_site_label_1
_geom_bond_atom_site_label_2
_ccdc_geom_bond_type
C10   C27   A    
C66   C67   S    
C14   H4    S    
C53   H19   S    
Cu2   O2    S    
C62   H40   S    
C40   H8    S    
C64   C65   S    
C61   H38   S    
C41   C42   A    
C36   C42   A    
C35   C36   A    
C52   C53   S    
C9    C14   A    
C3    C6    S    
C59   H33   S    
C55   C56   S    
C7    C8    T    
C25   C28   A    
C31   N1    A    
C47   O14   S    
C45   H5    S    
C26   C27   A    
C70   H59   S    
C36   C37   A    
Cu1   O7    S    
C4    O9    S    
C31   I10   S    
Cu2   O6    S    
C68   H55   S    
C48   H12   S    
C30   O12   S    
C44   H7    S    
C66   H50   S    
C29   C33   A    
C3    C48   S    
C57   H29   S    
C66   H51   S    
C18   C19   A    
C42   C46   A    
C9    C13   A    
C2    I3    S    
C21   I6    S    
C55   H24   S    
C63   H43   S    
O11   C57   S    
C45   I2    S    
C29   C30   A    
C69   H58   S    
C30   N1    A    
C60   C61   S    
C8    C12   S    
C34   O7    A    
C12   O4    A    
C70   H60   S    
C21   C22   A    
C41   C43   A    
C18   C25   A    
Cu1   O3    S    
C23   O5    A    
C26   I7    S    
C51   H16   S    
C60   H37   S    
C51   H15   S    
C47   C50   S    
C67   H53   S    
C19   H6    S    
C20   O10   S    
C15   C16   A    
Cu1   Cu2   S    
C5    I11   S    
C64   H45   S    
C1    C9    S    
C52   H17   S    
C69   C70   S    
C5    H13   S    
C65   H47   S    
C68   H56   S    
O10   C54   S    
O9    C51   S    
C61   C62   S    
C62   H42   S    
C54   C55   S    
C1    O1    A    
C22   I5    S    
C71   H62   S    
C38   I8    S    
C35   C39   A    
C43   C44   A    
C71   H63   S    
C46   N2    A    
C37   C38   A    
Cu2   O4    S    
C67   C68   S    
C11   C16   A    
C47   C48   S    
C16   C20   A    
C46   O11   S    
C54   H23   S    
C17   C18   A    
C58   H32   S    
C24   C25   A    
C28   H1    S    
Cu2   N1    S    
C69   H57   S    
C11   H2    S    
C65   H48   S    
C40   C41   A    
C48   O15   S    
C70   C71   S    
C56   H27   S    
C53   H20   S    
C22   C24   A    
C5    C50   S    
C44   N2    A    
C23   O6    A    
C3    C4    S    
C39   C40   A    
C51   C52   S    
C60   H36   S    
C67   H52   S    
C10   C28   A    
C64   H46   S    
C34   C49   S    
C62   H41   S    
C58   H31   S    
O14   C66   S    
C12   O3    A    
C31   C32   A    
C32   C35   A    
Cu1   O5    S    
C7    C50   S    
C24   C26   A    
C4    C5    S    
Cu2   O8    S    
C65   H49   S    
C47   H9    S    
C59   H34   S    
O12   C60   S    
C55   H25   S    
C15   C17   A    
C10   C23   S    
C56   H28   S    
C39   H11   S    
C29   I9    S    
C27   I4    S    
C33   C38   A    
C57   C58   S    
C32   C33   A    
C19   C20   A    
C43   O13   S    
C2    C3    S    
C2    I1    S    
C68   H54   S    
C71   H61   S    
C4    H14   S    
C11   C13   A    
C1    O2    A    
C45   C50   S    
C63   C64   S    
C54   H22   S    
C57   H30   S    
C58   C59   S    
Cu1   N2    S    
C6    C49   T    
C17   C21   A    
C59   H35   S    
C61   H39   S    
C2    C45   S    
C63   H44   S    
C56   H26   S    
C53   H21   S    
C37   H10   S    
C14   C15   A    
C52   H18   S    
Cu1   O1    S    
O15   C69   S    
O13   C63   S    
C34   O8    A    
C13   H3    S    
