data_mof_unit_29235.cif
_audit_creation_date              2012-12-10T18:09:55-0500
_audit_creation_method            fapswitch 2.2
_symmetry_space_group_name_H-M    P1
_symmetry_Int_Tables_number       1
_space_group_crystal_system       triclinic
_cell_length_a                    10.808896
_cell_length_b                    12.779925
_cell_length_c                    13.226887
_cell_angle_alpha                 82.572959
_cell_angle_beta                  95.436082
_cell_angle_gamma                 101.552173
_cell_volume                      1770.62696176

loop_
_atom_site_label
_atom_site_type_symbol
_atom_type_description
_atom_site_fract_x
_atom_site_fract_y
_atom_site_fract_z
_atom_type_partial_charge
C1    C     C_R   0.488038 0.439559 0.690758 0.950010
C2    C     C_R   0.482790 0.460411 0.965067 -0.034162
C3    C     C_R   0.539015 0.465510 0.873083 -0.254846
C4    C     C_R   0.741587 0.500925 0.499618 0.959427
C5    C     C_R   0.540630 0.532937 0.034467 -0.023526
C6    C     C_R   0.631547 0.623480 0.003693 -0.129369
C7    C     C_R   0.699062 0.620406 0.919288 0.503722
C8    C     C_R   0.657998 0.535324 0.857870 0.417557
C9    C     C_R   0.531804 0.505532 0.138347 0.439346
C10   C     C_R   0.620028 0.691275 0.165192 0.356741
C11   C     C_R   0.475677 0.400533 0.799241 -0.186363
C12   C     C_3   0.121834 0.498878 0.504941 -0.428447
C13   C     C_R   0.261991 0.085144 0.395843 0.387138
C14   C     C_R   0.654510 0.804239 0.632411 0.456816
C15   C     C_R   0.654127 0.893445 0.683426 0.178296
C16   C     C_R   0.522445 0.558670 0.309950 0.949360
C17   C     C_R   0.569716 0.962036 0.647264 0.427509
C18   C     C_R   0.505401 0.951948 0.550514 -0.058888
C19   C     C_R   0.489596 0.850839 0.510840 -0.036515
C20   C     C_R   0.445694 0.035757 0.497455 -0.093785
C21   C     C_R   0.334724 0.007319 0.434534 -0.271475
C22   C     C_R   0.305840 0.905123 0.403098 0.431690
C23   C     C_3   0.064874 0.521007 0.391672 0.205184
C24   C     C_R   0.389015 0.833060 0.430513 0.394917
C25   C     C_R   0.495254 0.147409 0.499314 0.542564
C26   C     C_R   0.317494 0.192298 0.394494 0.470309
C27   C     C_R   0.258649 0.498712 0.503313 1.053003
C28   C     C_3   0.909236 0.398702 0.565876 0.095591
C29   C     C_3   0.050360 0.390186 0.562091 0.554741
C30   C     C_3   0.917822 0.503396 0.386638 0.584659
C31   C     C_3   0.957455 0.602290 0.549034 0.228062
C32   C     C_3   0.878860 0.502331 0.499058 -0.353254
C33   C     C_3   0.097297 0.590778 0.567347 0.104011
C34   C     C_R   0.666332 0.705464 0.067949 -0.085188
C35   C     C_R   0.554909 0.587942 0.203250 -0.281494
C36   C     C_R   0.382853 0.309241 0.827746 0.371879
C37   C     C_R   0.331872 0.299656 0.923862 0.284398
C38   C     C_R   0.370625 0.383678 0.985699 0.487913
Cl1   Cl    Cl    0.665385 0.799117 0.239931 -0.403451
Cl2   Cl    Cl    0.844815 0.380782 0.331945 -0.439183
Cl3   Cl    Cl    0.938033 0.730137 0.477847 -0.340573
Cl4   Cl    Cl    0.545165 0.369288 0.182254 -0.477212
Cl5   Cl    Cl    0.099754 0.054179 0.352399 -0.286860
Cl6   Cl    Cl    0.643801 0.193039 0.559264 -0.491752
Cl7   Cl    Cl    0.767630 0.726427 0.672101 -0.449195
Cl8   Cl    Cl    0.760758 0.920006 0.791176 -0.428273
Cl9   Cl    Cl    0.354714 0.736113 0.345059 -0.511071
Cl10  Cl    Cl    0.123639 0.364841 0.688791 -0.547336
Cl11  Cl    Cl    0.055163 0.270567 0.505225 -0.415759
H1    H     H_    0.850623 0.328349 0.533372 0.253097
H2    H     H_    0.222838 0.338184 0.067129 0.416437
H3    H     H_    0.263159 0.147073 0.935131 0.367101
H4    H     H_    0.855531 0.321115 0.696054 0.412821
H5    H     H_    0.716244 0.440974 0.776992 0.365027
H6    H     H_    0.310572 0.331664 0.323083 0.397500
H7    H     H_    0.226768 0.928610 0.268546 0.378019
H8    H     H_    0.575477 0.020094 0.778095 0.388534
H9    H     H_    0.089903 0.391509 0.337028 0.434891
H10   H     H_    0.098534 0.607415 0.367119 0.244031
H11   H     H_    0.731010 0.778961 0.043901 0.252675
H12   H     H_    0.922971 0.602437 0.625412 0.231026
H13   H     H_    0.114078 0.565895 0.650184 0.227694
H14   H     H_    0.171511 0.715335 0.477899 0.400718
H15   H     H_    0.787191 0.571907 0.308326 0.341959
H16   H     H_    0.864858 0.664671 0.863592 0.416856
H17   H     H_    0.254544 0.193958 0.775367 0.394214
N1    N     N_R   0.433240 0.222190 0.444680 -0.222253
N2    N     N_R   0.566070 0.776970 0.554790 -0.152049
O1    O     O_R   0.468120 0.366740 0.627160 -0.532449
O2    O     O_3   0.880308 0.589270 0.321237 -0.654775
O3    O     O_3   0.812517 0.691872 0.907884 -0.663623
O4    O     O_3   0.338499 0.236027 0.758004 -0.658264
O5    O     O_3   0.302869 0.391784 0.067243 -0.692858
O6    O     O_3   0.242639 0.212091 0.957872 -0.702499
O7    O     O_3   0.876633 0.397538 0.666667 -0.715387
O8    O     O_3   0.738534 0.517358 0.789709 -0.711985
O9    O     O_3   0.250331 0.266005 0.343727 -0.656230
O10   O     O_3   0.206024 0.879425 0.331690 -0.624865
O11   O     O_3   0.539882 0.033569 0.707028 -0.667159
O12   O     O_R   0.510770 0.544830 0.662520 -0.603085
O13   O     O_3   0.111396 0.469815 0.319184 -0.654381
O14   O     O_R   0.663880 0.410950 0.482330 -0.568298
O15   O     O_R   0.706530 0.589040 0.517700 -0.538469
O16   O     O_R   0.489230 0.455170 0.337480 -0.610441
O17   O     O_R   0.531880 0.633260 0.372840 -0.518035
O18   O     O_R   0.293470 0.410960 0.482300 -0.566874
O19   O     O_R   0.336120 0.589050 0.517670 -0.571119
O20   O     O_3   0.178251 0.691113 0.551461 -0.670652
Zn1   Zn    Zn3+2 0.471520 0.381090 0.476390 1.112899
Zn2   Zn    Zn3+2 0.528480 0.618910 0.523610 1.113386

loop_
_geom_bond_atom_site_label_1
_geom_bond_atom_site_label_2
_ccdc_geom_bond_type
C37   O6    S    
H14   O20   S    
C31   H12   S    
C25   N1    A    
N1    Zn1   S    
C7    C8    A    
C29   Cl11  S    
C23   H10   S    
C12   C23   S    
C9    Cl4   S    
O14   Zn1   S    
C26   N1    A    
C36   C37   A    
C33   O20   S    
H3    O6    S    
C16   C35   S    
C7    O3    S    
C5    C6    A    
H6    O9    S    
C20   C25   A    
C17   O11   S    
H7    O10   S    
C18   C19   A    
H8    O11   S    
C28   H1    S    
H17   O4    S    
C33   H13   S    
C1    C11   S    
N2    Zn2   S    
C31   C33   S    
C10   C35   A    
H15   O2    S    
C23   O13   S    
C21   C22   A    
C34   H11   S    
H4    O7    S    
O1    Zn1   S    
C25   Cl6   S    
C30   O2    S    
C14   Cl7   S    
C26   O9    S    
C29   Cl10  S    
C13   C21   A    
C23   C30   S    
C28   C32   S    
C22   O10   S    
C3    C8    A    
H9    O13   S    
C12   C27   S    
H16   O3    S    
O18   Zn1   S    
C16   O16   A    
C1    O1    A    
C6    C34   A    
C10   Cl1   S    
C11   C36   A    
C27   O18   A    
C5    C9    A    
C37   C38   A    
C2    C38   A    
C31   C32   S    
C17   C18   A    
C30   Cl2   S    
C19   N2    A    
C10   C34   A    
C27   O19   A    
C4    C32   S    
H5    O8    S    
C8    O8    S    
C16   O17   A    
C22   C24   A    
C13   C26   A    
C2    C5    A    
O16   Zn1   S    
C13   Cl5   S    
C15   C17   A    
O15   Zn2   S    
C28   C29   S    
C31   Cl3   S    
C24   Cl9   S    
H2    O5    S    
C12   C29   S    
O17   Zn2   S    
C6    C7    A    
C2    C3    A    
C30   C32   S    
C4    O15   A    
C19   C24   A    
C18   C20   A    
O12   Zn2   S    
C3    C11   A    
C4    O14   A    
C20   C21   A    
O19   Zn2   S    
C9    C35   A    
C1    O12   A    
C14   N2    A    
C14   C15   A    
C15   Cl8   S    
C12   C33   S    
C28   O7    S    
C36   O4    S    
C38   O5    S    
