data_mof_unit_20305.cif
_audit_creation_date              2012-12-10T17:18:59-0500
_audit_creation_method            fapswitch 2.2
_symmetry_space_group_name_H-M    P1
_symmetry_Int_Tables_number       1
_space_group_crystal_system       triclinic
_cell_length_a                    10.209701
_cell_length_b                    10.722566
_cell_length_c                    13.559523
_cell_angle_alpha                 92.425465
_cell_angle_beta                  100.012201
_cell_angle_gamma                 96.661847
_cell_volume                      1448.9752193

loop_
_atom_site_label
_atom_site_type_symbol
_atom_type_description
_atom_site_fract_x
_atom_site_fract_y
_atom_site_fract_z
_atom_type_partial_charge
C1    C     C_R   0.052313 0.732824 0.489869 0.875580
C2    C     C_R   0.944260 0.266427 0.502347 0.861013
C3    C     C_R   0.437124 0.506508 0.127280 -0.256442
C4    C     C_R   0.506969 0.355730 0.892669 -0.242725
C5    C     C_R   0.305804 0.530082 0.098517 -0.143133
C6    C     C_R   0.638754 0.332741 0.921593 -0.174645
C7    C     C_2   0.077653 0.864847 0.471143 -0.187176
C8    C     C_2   0.905462 0.131381 0.490503 -0.189738
C9    C     C_2   0.970495 0.926974 0.448112 -0.212449
C10   C     C_2   0.983796 0.062358 0.446664 -0.225957
C11   C     C_2   0.430096 0.509070 0.514478 0.428816
C12   C     C_2   0.570052 0.473836 0.509614 0.391233
C13   C     C_R   0.092229 0.510837 0.686137 0.897460
C14   C     C_R   0.906366 0.485422 0.313826 0.865481
C15   C     C_R   0.135969 0.506477 0.794364 -0.186224
C16   C     C_R   0.851928 0.461026 0.206742 -0.175726
C17   C     C_R   0.119210 0.553125 0.967644 -0.284231
C18   C     C_R   0.844060 0.355032 0.044122 -0.288587
C19   C     C_R   0.065425 0.553386 0.865534 0.525936
C20   C     C_R   0.913840 0.391847 0.141314 0.514771
C21   C     C_R   0.253752 0.454568 0.826079 -0.364418
C22   C     C_R   0.724012 0.492993 0.174111 -0.359382
C23   C     C_R   0.312488 0.459629 0.927142 0.090804
C24   C     C_R   0.647067 0.442973 0.083030 0.095577
C25   C     C_R   0.244890 0.512903 0.998252 0.105081
C26   C     C_R   0.710289 0.377088 0.015741 0.105125
C27   C     C_R   0.441841 0.423230 0.957951 0.083903
C28   C     C_R   0.509627 0.458619 0.057044 0.085195
H1    H     H_    0.254375 0.568303 0.154230 0.170290
H2    H     H_    0.685026 0.280472 0.869727 0.157606
H3    H     H_    0.685087 0.555946 0.222580 0.177315
H4    H     H_    0.302377 0.416971 0.769399 0.181469
H5    H     H_    0.065538 0.589875 0.022487 0.162644
H6    H     H_    0.892991 0.305669 0.992306 0.158735
H7    H     H_    0.478328 0.525693 0.205678 0.133797
H8    H     H_    0.457498 0.315767 0.819563 0.150777
H9    H     H_    0.069324 0.106783 0.417686 0.186229
H10   H     H_    0.869140 0.878594 0.439804 0.189640
H11   H     H_    0.662855 0.645919 0.552345 0.147901
H12   H     H_    0.333371 0.368780 0.417290 0.136789
N1    N     N_2   0.322180 0.446120 0.460900 -0.208763
N2    N     N_2   0.677820 0.553880 0.539100 -0.207287
O1    O     O_R   0.935190 0.693030 0.507870 -0.626035
O2    O     O_R   0.064810 0.306970 0.492130 -0.620926
O3    O     O_R   0.142080 0.658430 0.482770 -0.555362
O4    O     O_R   0.857920 0.341570 0.517230 -0.551579
O5    O     O_R   0.969700 0.527180 0.651960 -0.552145
O6    O     O_R   0.030300 0.472820 0.348040 -0.566223
O7    O     O_R   0.176600 0.492580 0.626860 -0.583271
O8    O     O_R   0.823400 0.507420 0.373140 -0.629786
Zn1   Zn    Zn3+2 0.861850 0.523100 0.516760 0.982333
Zn2   Zn    Zn3+2 0.138150 0.476900 0.483240 0.992392
O9    O     O_3   0.043677 0.365101 0.170583 -0.602884
C29   C     C_3   0.039962 0.236969 0.190869 -0.295860
H13   H     H_    0.005285 0.175182 0.121037 0.153746
H14   H     H_    0.975807 0.212367 0.247552 0.147186
H15   H     H_    0.143100 0.218585 0.222637 0.185104
O10   O     O_3   0.942318 0.595161 0.836041 -0.588716
C30   C     C_3   0.960925 0.727727 0.839512 -0.298592
H16   H     H_    0.032309 0.763150 0.790572 0.151981
H17   H     H_    0.995439 0.768628 0.917793 0.149821
H18   H     H_    0.863184 0.760755 0.810887 0.191032
C31   C     C_1   0.789425 0.076292 0.528885 0.214143
N3    N     N_1   0.696728 0.032398 0.559500 -0.179561
C32   C     C_1   0.214458 0.925216 0.482040 0.201549
N4    N     N_1   0.323677 0.973378 0.490750 -0.177582
O11   O     O_3   0.584025 0.350026 0.484534 -0.588061
C33   C     C_3   0.571116 0.329416 0.379410 -0.229233
H19   H     H_    0.560022 0.414849 0.336529 0.118196
H20   H     H_    0.483278 0.258210 0.351209 0.146332
H21   H     H_    0.660550 0.289175 0.362397 0.194539
O12   O     O_3   0.414517 0.613098 0.573998 -0.583937
C34   C     C_3   0.474783 0.603415 0.675137 -0.265555
H22   H     H_    0.574147 0.661360 0.692494 0.157607
H23   H     H_    0.485284 0.505057 0.695801 0.142033
H24   H     H_    0.411475 0.642901 0.724263 0.195025

loop_
_geom_bond_atom_site_label_1
_geom_bond_atom_site_label_2
_ccdc_geom_bond_type
C5    C25   A    
O5    Zn1   S    
C11   C12   S    
C4    H8    S    
H12   N1    S    
C14   C16   S    
C23   C27   A    
C7    C32   S    
C18   H6    S    
C9    C10   S    
N1    Zn2   S    
C18   C20   A    
C18   C26   A    
C13   C15   S    
C3    H7    S    
N2    Zn1   S    
C16   C20   A    
O7    Zn2   S    
C17   C25   A    
O2    Zn2   S    
C23   C25   A    
O8    Zn1   S    
C30   H16   S    
C14   O8    A    
C12   O11   S    
C2    O4    A    
C15   C19   A    
C34   H23   S    
C1    O3    A    
C6    C26   A    
C1    O1    A    
C17   H5    S    
O1    Zn1   S    
C33   H21   S    
C13   O7    A    
C22   C24   A    
C4    C6    A    
C3    C28   A    
C17   C19   A    
C24   C26   A    
C11   N1    D    
H11   N2    S    
C5    H1    S    
C21   C23   A    
C19   O10   S    
C33   H19   S    
C21   H4    S    
C29   H14   S    
C30   H17   S    
C11   O12   S    
C22   H3    S    
C8    C31   S    
C12   N2    D    
O11   C33   S    
C34   H22   S    
C24   C28   A    
C15   C21   A    
C4    C27   A    
C34   H24   S    
O12   C34   S    
C33   H20   S    
C32   N4    T    
C10   H9    S    
C27   C28   A    
C7    C9    D    
C14   O6    A    
C29   H13   S    
C9    H10   S    
C30   H18   S    
C16   C22   A    
O3    Zn2   S    
C1    C7    S    
O10   C30   S    
O6    Zn2   S    
C13   O5    A    
O4    Zn1   S    
C6    H2    S    
C8    C10   D    
C2    C8    S    
C31   N3    T    
O9    C29   S    
C2    O2    A    
C20   O9    S    
C3    C5    A    
C29   H15   S    
