data_mof_unit_14249.cif
_audit_creation_date              2012-12-11T16:44:21-0500
_audit_creation_method            fapswitch 2.2
_symmetry_space_group_name_H-M    P1
_symmetry_Int_Tables_number       1
_space_group_crystal_system       triclinic
_cell_length_a                    27.087406
_cell_length_b                    7.194223
_cell_length_c                    22.834393
_cell_angle_alpha                 90.118365
_cell_angle_beta                  101.851575
_cell_angle_gamma                 90.124996
_cell_volume                      4354.92143461

loop_
_atom_site_label
_atom_site_type_symbol
_atom_type_description
_atom_site_fract_x
_atom_site_fract_y
_atom_site_fract_z
_atom_type_partial_charge
O1    O     O_R   0.707300 0.594030 0.176840 -0.527286
O2    O     O_R   0.292700 0.405970 0.823160 -0.529893
O3    O     O_R   0.792700 0.094030 0.323160 -0.524379
O4    O     O_R   0.207300 0.905970 0.676840 -0.537713
O5    O     O_R   0.697330 0.262360 0.295660 -0.542761
O6    O     O_R   0.302670 0.737640 0.704340 -0.540575
O7    O     O_R   0.802670 0.762360 0.204340 -0.542020
O8    O     O_R   0.197330 0.237640 0.795660 -0.538936
C1    C     C_R   0.684784 0.432459 0.311789 0.671862
C2    C     C_R   0.315209 0.567542 0.688201 0.676312
C3    C     C_R   0.815194 0.932506 0.188188 0.677942
C4    C     C_R   0.184622 0.067457 0.811556 0.699230
O9    O     O_R   0.701410 0.264250 0.175600 -0.525442
O10   O     O_R   0.298590 0.735750 0.824400 -0.536046
O11   O     O_R   0.798590 0.764250 0.324400 -0.522916
O12   O     O_R   0.201410 0.235750 0.675600 -0.525293
O13   O     O_R   0.796800 0.094950 0.202240 -0.540404
O14   O     O_R   0.203200 0.905050 0.797760 -0.541348
O15   O     O_R   0.703200 0.594950 0.297760 -0.542270
O16   O     O_R   0.296800 0.405050 0.702240 -0.540605
C5    C     C_R   0.689953 0.431728 0.153070 0.682118
C6    C     C_R   0.310065 0.568257 0.846910 0.687848
C7    C     C_R   0.810610 0.932721 0.346655 0.690859
C8    C     C_R   0.189453 0.067721 0.653283 0.718317
O17   O     O_3   0.781290 0.427390 0.258880 -0.360418
O18   O     O_3   0.218710 0.572610 0.741120 -0.368667
O19   O     O_3   0.718710 0.927390 0.241120 -0.366099
O20   O     O_3   0.281290 0.072610 0.758880 -0.370012
V1    V     V_3+5 0.744190 0.152150 0.248350 1.517429
V2    V     V_3+5 0.255810 0.847850 0.751650 1.461562
V3    V     V_3+5 0.755810 0.652150 0.251650 1.519842
V4    V     V_3+5 0.244190 0.347850 0.748350 1.482808
C9    C     C_R   0.153491 0.069537 0.594821 -0.078551
C10   C     C_R   0.845075 0.938853 0.406079 -0.054316
C11   C     C_R   0.345000 0.568744 0.905756 -0.075133
C12   C     C_R   0.655160 0.431043 0.094112 -0.062359
C13   C     C_R   0.132412 0.209614 0.496577 -0.126789
C14   C     C_R   0.859971 0.872252 0.512099 -0.098493
C15   C     C_R   0.366927 0.708117 0.004212 -0.111382
C16   C     C_R   0.633317 0.290093 0.995877 -0.069590
C17   C     C_R   0.168024 0.161969 0.547312 -0.165769
C18   C     C_R   0.828226 0.870556 0.455744 -0.142776
C19   C     C_R   0.331176 0.666708 0.952796 -0.184361
C20   C     C_R   0.668959 0.331364 0.047388 -0.133463
C21   C     C_R   0.102327 0.020904 0.589919 -0.095031
C22   C     C_R   0.894807 0.006803 0.413520 -0.032764
C23   C     C_R   0.394519 0.500842 0.912701 -0.064075
C24   C     C_R   0.605755 0.500378 0.086777 -0.042898
C25   C     C_R   0.064421 0.086104 0.541464 0.108420
C26   C     C_R   0.926866 0.021096 0.471203 0.114475
C27   C     C_R   0.430565 0.528492 0.966788 0.139851
C28   C     C_R   0.569766 0.472041 0.032673 0.122587
C29   C     C_R   0.080925 0.175588 0.493630 0.075354
C30   C     C_R   0.909070 0.945076 0.520120 0.071592
C31   C     C_R   0.416975 0.648742 0.009939 0.099543
C32   C     C_R   0.583362 0.350902 0.989759 0.073515
C33   C     C_R   0.011034 0.062059 0.537688 -0.086219
C34   C     C_R   0.976974 0.097387 0.481486 -0.081998
C35   C     C_R   0.481045 0.457619 0.976868 -0.097981
C36   C     C_R   0.519309 0.543166 0.022423 -0.079154
C37   C     C_R   0.994318 0.214471 0.439612 0.388320
C38   C     C_R   0.989179 0.013791 0.587481 0.383977
C39   C     C_R   0.505152 0.695545 0.055562 0.406508
C40   C     C_R   0.495225 0.305423 0.943664 0.466594
C41   C     C_R   0.045977 0.242475 0.444771 -0.247369
C42   C     C_R   0.939543 0.948229 0.577298 -0.225381
C43   C     C_R   0.454196 0.727728 0.054239 -0.213781
C44   C     C_R   0.546195 0.272575 0.945265 -0.178332
H1    H     H_    0.059004 0.326215 0.411475 0.156477
H2    H     H_    0.923792 0.904771 0.615092 0.164853
H3    H     H_    0.443781 0.834968 0.082863 0.154180
H4    H     H_    0.556624 0.165249 0.916676 0.170715
H5    H     H_    0.908436 0.040899 0.373791 0.163816
H6    H     H_    0.092849 0.937425 0.624971 0.180298
H7    H     H_    0.594706 0.561203 0.125218 0.154259
H8    H     H_    0.405519 0.441394 0.874030 0.159699
H9    H     H_    0.790368 0.815061 0.450805 0.106647
H10   H     H_    0.207001 0.202978 0.550404 0.105390
H11   H     H_    0.706612 0.274428 0.052544 0.105360
H12   H     H_    0.293435 0.722611 0.947923 0.110633
H13   H     H_    0.144979 0.281735 0.460619 0.117449
H14   H     H_    0.845972 0.816841 0.549709 0.123887
H15   H     H_    0.356143 0.796994 0.037842 0.122393
H16   H     H_    0.644100 0.200375 0.962450 0.119376
C45   C     C_R   0.867639 0.117612 0.129835 -0.137348
C46   C     C_R   0.131405 0.882390 0.868962 -0.122031
C47   C     C_R   0.632372 0.617445 0.370176 -0.147904
C48   C     C_R   0.367565 0.382574 0.629736 -0.140174
H17   H     H_    0.850740 0.244925 0.141635 0.127032
H18   H     H_    0.148526 0.755082 0.857542 0.122146
H19   H     H_    0.649520 0.744780 0.358715 0.125008
H20   H     H_    0.350406 0.255247 0.641185 0.125611
C49   C     C_R   0.903150 0.130228 0.093371 -0.141816
C50   C     C_R   0.095391 0.869875 0.904770 -0.133233
C51   C     C_R   0.596643 0.630019 0.406350 -0.144246
C52   C     C_R   0.403276 0.370002 0.593537 -0.140796
H21   H     H_    0.911931 0.266078 0.077844 0.102808
H22   H     H_    0.086472 0.734116 0.920241 0.098269
H23   H     H_    0.587941 0.765855 0.422008 0.102270
H24   H     H_    0.411956 0.234175 0.577852 0.100671
C53   C     C_R   0.926134 0.969873 0.076090 0.092892
C54   C     C_R   0.072161 0.030296 0.921596 0.093465
C55   C     C_R   0.573317 0.469635 0.423161 0.094351
C56   C     C_R   0.426612 0.530376 0.576740 0.092642
C57   C     C_R   0.912583 0.796118 0.096476 -0.138444
C58   C     C_R   0.085830 0.203921 0.901249 -0.116423
C59   C     C_R   0.586781 0.295881 0.402655 -0.141085
C60   C     C_R   0.413174 0.704122 0.597276 -0.135645
H25   H     H_    0.929970 0.669781 0.084741 0.102840
H26   H     H_    0.068228 0.330266 0.912603 0.104016
H27   H     H_    0.569148 0.169519 0.414051 0.101560
H28   H     H_    0.430814 0.830476 0.585885 0.103930
C61   C     C_R   0.876911 0.783304 0.133001 -0.143515
C62   C     C_R   0.121982 0.216623 0.865367 -0.111399
C63   C     C_R   0.622669 0.283110 0.366420 -0.149619
C64   C     C_R   0.377307 0.716891 0.633540 -0.145608
H29   H     H_    0.867489 0.647208 0.147738 0.128536
H30   H     H_    0.131496 0.352644 0.850663 0.125191
H31   H     H_    0.631991 0.147030 0.351538 0.125277
H32   H     H_    0.368007 0.852963 0.648448 0.128438
C65   C     C_R   0.853830 0.944015 0.150144 -0.045971
C66   C     C_R   0.145462 0.055935 0.848878 -0.029853
C67   C     C_R   0.646051 0.443866 0.349693 -0.046036
C68   C     C_R   0.353920 0.556140 0.650264 -0.048528
C69   C     C_R   0.964976 0.851725 0.991720 -0.150143
C70   C     C_R   0.033099 0.148849 0.005680 -0.153476
C71   C     C_R   0.533861 0.351571 0.506955 -0.149445
C72   C     C_R   0.466061 0.648432 0.492937 -0.151534
H33   H     H_    0.938405 0.737197 0.984691 0.115256
H34   H     H_    0.059691 0.263315 0.012737 0.107661
H35   H     H_    0.560307 0.237178 0.514017 0.113275
H36   H     H_    0.439616 0.762831 0.485880 0.109140
C73   C     C_R   0.999779 0.867199 0.954285 -0.131579
C74   C     C_R   0.998310 0.133361 0.043117 -0.144676
C75   C     C_R   0.498877 0.367084 0.544144 -0.144289
C76   C     C_R   0.501044 0.632915 0.455747 -0.148583
H37   H     H_    0.999065 0.763766 0.919612 0.124606
H38   H     H_    0.999075 0.236720 0.077822 0.112168
H39   H     H_    0.499350 0.263832 0.578679 0.116784
H40   H     H_    0.500569 0.736166 0.421212 0.110301
C77   C     C_R   0.034378 0.015894 0.960764 0.083234
C78   C     C_R   0.963725 0.984617 0.036672 0.081535
C79   C     C_R   0.464445 0.515672 0.537648 0.082300
C80   C     C_R   0.535478 0.484330 0.462245 0.082017
S1    S     S_3+6 0.954765 0.372680 0.391456 -0.010341
O21   O     O_2   0.905925 0.402851 0.411603 -0.313929
O22   O     O_2   0.981110 0.557201 0.392342 -0.330078
O23   O     O_3   0.942717 0.291681 0.320778 -0.507958
H41   H     H_    0.976304 0.274783 0.310739 0.325439
S2    S     S_3+6 0.014861 0.080479 0.662851 0.001358
O24   O     O_2   0.052325 0.236183 0.665238 -0.314919
O25   O     O_2   0.973152 0.146474 0.692158 -0.312237
O26   O     O_3   0.042936 0.897617 0.701774 -0.502104
H42   H     H_    0.016215 0.801594 0.698194 0.346925
S3    S     S_3+6 0.546618 0.879875 0.086366 0.002919
O27   O     O_2   0.592021 0.886721 0.058060 -0.314777
O28   O     O_2   0.519371 0.062270 0.074954 -0.321273
O29   O     O_3   0.565336 0.853288 0.160785 -0.513649
H43   H     H_    0.533719 0.849532 0.176168 0.317943
S4    S     S_3+6 0.453703 0.122204 0.912246 -0.008228
O30   O     O_2   0.438537 0.147414 0.845627 -0.362065
O31   O     O_2   0.480757 0.939649 0.924339 -0.315036
O32   O     O_3   0.402140 0.115365 0.942584 -0.510588
H44   H     H_    0.378644 0.029085 0.916741 0.359519

loop_
_geom_bond_atom_site_label_1
_geom_bond_atom_site_label_2
_ccdc_geom_bond_type
O17   V3    S    
C48   C52   A    
O1    C5    A    
C47   H19   S    
O19   V1    S    
C9    C21   A    
C16   H16   S    
O3    C7    A    
O32   H44   S    
C10   C18   A    
C73   H37   S    
C48   C68   A    
C11   C23   A    
C55   C80   S    
S1    O21   D    
C25   C33   A    
C33   C38   A    
C5    C12   S    
C75   H39   S    
C6    C11   S    
C35   C40   A    
C26   C30   A    
C58   C62   A    
C36   C39   A    
C40   C44   A    
C57   C61   A    
C71   C75   A    
C23   H8    S    
C14   C18   A    
C2    C68   S    
C72   C76   A    
C58   H26   S    
O4    C8    A    
C51   H23   S    
C44   H4    S    
S3    O28   D    
C70   H34   S    
O1    V3    S    
O13   V1    S    
O2    V4    S    
O3    V1    S    
C37   S1    S    
C46   C50   A    
C45   C49   A    
C1    O15   A    
C15   C31   A    
C48   H20   S    
C2    O16   A    
C16   C32   A    
S2    O26   S    
C47   C51   A    
O2    C6    A    
C45   C65   A    
C10   C22   A    
C54   C77   S    
C11   C19   A    
C16   C20   A    
C43   H3    S    
C76   H40   S    
C13   C29   A    
C34   C37   A    
O11   C7    A    
O15   V3    S    
C35   C36   A    
O12   C8    A    
C14   H14   S    
S3    O29   S    
C24   H7    S    
C13   H13   S    
C3    C65   S    
O10   V2    S    
C72   H36   S    
S1    O22   D    
C51   C55   A    
O5    V1    S    
C53   C57   A    
C39   C43   A    
O7    V3    S    
C38   C42   A    
C26   C34   A    
S4    O32   S    
C63   C67   A    
O23   H41   S    
C4    C66   S    
C46   H18   S    
C49   C53   A    
C17   H10   S    
C45   H17   S    
O18   V4    S    
C23   C27   A    
C19   H12   S    
C32   C44   A    
C64   H32   S    
C21   H6    S    
O8    V4    S    
O7    C3    A    
O5    C1    A    
C37   C41   A    
C74   C78   A    
C53   C78   S    
C31   C43   A    
C14   C30   A    
C21   C25   A    
C69   C78   A    
O8    C4    A    
C7    C10   S    
C40   S4    S    
C56   C79   S    
O9    C5    A    
C59   C63   A    
C62   H30   S    
C61   H29   S    
O6    V2    S    
C63   H31   S    
C52   C56   A    
C69   H33   S    
O29   H43   S    
S2    O25   D    
C12   C20   A    
C27   C35   A    
O9    V1    S    
C49   H21   S    
C56   C60   A    
S1    O23   S    
C29   C41   A    
O16   V4    S    
C69   C73   A    
C57   H25   S    
C3    O13   A    
C38   S2    S    
C59   H27   S    
C20   H11   S    
C74   H38   S    
C15   C19   A    
O11   V3    S    
C30   C42   A    
O12   V4    S    
C22   C26   A    
C70   C77   A    
C73   C77   A    
C8    C9    S    
C9    C17   A    
S4    O30   D    
O10   C6    A    
O20   V2    S    
C15   H15   S    
C76   C80   A    
C47   C67   A    
C60   C64   A    
C33   C34   A    
C42   H2    S    
C41   H1    S    
C52   H24   S    
C75   C79   A    
C1    C67   S    
C12   C24   A    
C27   C31   A    
C71   C80   A    
C13   C17   A    
C46   C66   A    
C72   C79   A    
C71   H35   S    
C25   C29   A    
O6    C2    A    
O14   V2    S    
C39   S3    S    
C62   C66   A    
C60   H28   S    
C24   C28   A    
C61   C65   A    
C70   C74   A    
C18   H9    S    
C28   C36   A    
C54   C58   A    
C4    O14   A    
S3    O27   D    
C50   H22   S    
S2    O24   D    
C55   C59   A    
O26   H42   S    
C64   C68   A    
C22   H5    S    
O4    V2    S    
C28   C32   A    
C50   C54   A    
S4    O31   D    
