data_mof_unit_36491.cif
_audit_creation_date              2012-12-10T17:37:48-0500
_audit_creation_method            fapswitch 2.2
_symmetry_space_group_name_H-M    P1
_symmetry_Int_Tables_number       1
_space_group_crystal_system       triclinic
_cell_length_a                    12.337123
_cell_length_b                    13.220358
_cell_length_c                    17.265473
_cell_angle_alpha                 105.60838
_cell_angle_beta                  74.282662
_cell_angle_gamma                 116.815675
_cell_volume                      2383.6140224

loop_
_atom_site_label
_atom_site_type_symbol
_atom_type_description
_atom_site_fract_x
_atom_site_fract_y
_atom_site_fract_z
_atom_type_partial_charge
C1    C     C_R   0.144570 0.713483 0.506735 0.766737
C2    C     C_R   0.940208 0.594302 0.795925 -0.210587
C3    C     C_R   0.943656 0.490247 0.148718 -0.169563
C4    C     C_R   0.927639 0.477396 0.228690 -0.233213
C5    C     C_R   0.149386 0.550289 0.217469 -0.304321
C6    C     C_R   0.166351 0.562668 0.136523 0.512291
C7    C     C_R   0.062879 0.536487 0.103144 0.084179
C8    C     C_2   0.006449 0.580437 0.992713 0.371308
C9    C     C_2   0.079526 0.549455 0.018348 -0.289355
C10   C     C_R   0.030355 0.507572 0.263289 -0.083852
C11   C     C_R   0.734975 0.974192 0.391342 -0.205126
C12   C     C_R   0.988525 0.506000 0.652437 0.775101
C13   C     C_R   0.774558 0.164449 0.470467 -0.052730
C14   C     C_R   0.178851 0.916905 0.557431 -0.189260
C15   C     C_R   0.255982 0.032726 0.571874 -0.147538
C16   C     C_R   0.382033 0.069465 0.543209 -0.181308
C17   C     C_R   0.433401 0.990517 0.496307 0.077904
C18   C     C_R   0.352261 0.874771 0.473120 0.082027
C19   C     C_R   0.562520 0.022834 0.471017 0.074347
C20   C     C_R   0.607646 0.943251 0.416408 0.171683
C21   C     C_R   0.525244 0.834585 0.386136 -0.236517
C22   C     C_R   0.399408 0.801278 0.413104 -0.196988
C23   C     C_R   0.855913 0.286216 0.487743 0.807954
C24   C     C_R   0.648467 0.131629 0.499393 -0.255717
C25   C     C_R   0.818206 0.084721 0.417803 -0.193566
C26   C     C_R   0.225936 0.836483 0.510019 -0.097757
C27   C     C_R   0.642063 0.675864 0.630359 -0.301604
C28   C     C_R   0.249263 0.350610 0.388810 0.675509
C29   C     C_R   0.349538 0.317974 0.366819 -0.363925
C30   C     C_R   0.448350 0.374850 0.408564 -0.261954
C31   C     C_R   0.450710 0.465184 0.474135 0.001431
C32   C     C_R   0.347333 0.495448 0.496056 0.197128
C33   C     C_R   0.551330 0.525816 0.519073 -0.017428
C34   C     C_R   0.014520 0.498614 0.348015 0.821359
C35   C     C_R   0.545998 0.615190 0.585075 0.170667
C36   C     C_R   0.444697 0.643378 0.605789 -0.272977
C37   C     C_R   0.347700 0.584789 0.562538 -0.155308
C38   C     C_R   0.657798 0.502051 0.501761 0.018366
C39   C     C_R   0.743505 0.648102 0.610409 0.071084
C40   C     C_R   0.988457 0.520382 0.739095 -0.019542
C41   C     C_R   0.041375 0.464435 0.765182 -0.177081
C42   C     C_R   0.046605 0.482417 0.847317 -0.206773
C43   C     C_R   0.002768 0.560164 0.904597 0.102555
C44   C     C_R   0.947787 0.614394 0.877994 -0.137128
Cu1   Cu    Cu3+1 0.900140 0.524980 0.518800 0.937616
Cu2   Cu    Cu3+1 0.099860 0.475020 0.481200 0.959526
H1    H     H_    0.077421 0.405716 0.722167 0.148905
H2    H     H_    0.915819 0.108874 0.394870 0.172838
H3    H     H_    0.558166 0.774780 0.341552 0.144534
H4    H     H_    0.769895 0.913706 0.349793 0.138891
H5    H     H_    0.619901 0.193509 0.543911 0.149527
H6    H     H_    0.082312 0.890019 0.585023 0.151051
H7    H     H_    0.436069 0.160606 0.557213 0.130448
H8    H     H_    0.218373 0.094171 0.607762 0.140683
H9    H     H_    0.340018 0.718198 0.384432 0.169796
H10   H     H_    0.817848 0.694808 0.645169 0.115418
H11   H     H_    0.835143 0.442988 0.263277 0.154467
H12   H     H_    0.439975 0.711571 0.656424 0.151632
H13   H     H_    0.638645 0.744384 0.680981 0.137631
H14   H     H_    0.669975 0.435980 0.452481 0.121518
H15   H     H_    0.521576 0.345472 0.388220 0.155775
H16   H     H_    0.354298 0.248918 0.317587 0.154169
H17   H     H_    0.274378 0.612479 0.583901 0.206062
H18   H     H_    0.229167 0.576687 0.245145 0.151277
H19   H     H_    0.153536 0.530951 0.975767 0.148492
H20   H     H_    0.910927 0.672820 0.920414 0.152183
H21   H     H_    0.862499 0.462745 0.122353 0.192011
H22   H     H_    0.899279 0.638705 0.776652 0.141960
H23   H     H_    0.083190 0.433241 0.865045 0.124978
N1    N     N_R   0.749710 0.562810 0.547300 -0.180131
N2    N     N_R   0.249640 0.437820 0.453210 -0.240369
O1    O     O_R   0.025490 0.682370 0.523640 -0.581892
O2    O     O_R   0.194150 0.640180 0.491890 -0.611145
O3    O     O_R   0.905900 0.523560 0.631310 -0.583299
O4    O     O_R   0.074570 0.481370 0.599560 -0.605613
O5    O     O_R   0.805850 0.359820 0.508110 -0.593429
O6    O     O_R   0.974510 0.317630 0.476360 -0.536134
O7    O     O_R   0.925430 0.518630 0.400440 -0.587835
O8    O     O_R   0.094100 0.476440 0.368690 -0.552443
O9    O     O_3   0.283785 0.610448 0.092180 -0.583580
C45   C     C_3   0.340437 0.533117 0.074838 -0.354274
H24   H     H_    0.426816 0.564817 0.030243 0.198353
H25   H     H_    0.280900 0.445546 0.046503 0.157965
H26   H     H_    0.366108 0.529120 0.130527 0.166155
O10   O     O_3   0.145432 0.295811 0.351011 -0.588940
C46   C     C_3   0.156690 0.225414 0.274038 0.010310
H27   H     H_    0.062910 0.179001 0.257933 0.177296
H28   H     H_    0.182642 0.156206 0.276305 0.127717
C47   C     C_3   0.240177 0.296940 0.207000 -0.367527
H29   H     H_    0.204632 0.359960 0.205774 0.231482
H30   H     H_    0.335813 0.345367 0.219527 0.207635
C48   C     C_3   0.242977 0.220663 0.123316 -0.924533
H31   H     H_    0.275443 0.154830 0.123458 0.261294
H32   H     H_    0.307032 0.274138 0.076594 0.250848
H33   H     H_    0.149576 0.177236 0.106696 0.255333
O11   O     O_3   0.925894 0.623279 0.048428 -0.619637
C49   C     C_3   0.993023 0.740085 0.079513 0.062704
H34   H     H_    0.043342 0.790825 0.028925 0.129904
H35   H     H_    0.060519 0.748648 0.115166 0.165936
C50   C     C_3   0.903330 0.789746 0.136121 -0.313624
H36   H     H_    0.834981 0.781527 0.101491 0.219474
H37   H     H_    0.852938 0.740333 0.187158 0.223575
C51   C     C_3   0.970817 0.916316 0.171190 -0.964875
H38   H     H_    0.036827 0.926302 0.208395 0.257538
H39   H     H_    0.903135 0.950442 0.210724 0.253786
H40   H     H_    0.021686 0.967284 0.121135 0.260073

loop_
_geom_bond_atom_site_label_1
_geom_bond_atom_site_label_2
_ccdc_geom_bond_type
C38   N1    A    
C12   O3    A    
C41   C42   A    
C44   H20   S    
C35   C36   A    
C8    O11   S    
C8    C43   S    
C23   O5    A    
C49   C50   S    
C21   H3    S    
C45   H24   S    
Cu1   Cu2   S    
Cu1   O5    S    
C5    C6    A    
C28   C29   A    
C2    H22   S    
C30   C31   A    
C46   H28   S    
C11   C25   A    
C15   C16   A    
C13   C23   S    
C16   H7    S    
C48   H31   S    
C49   H35   S    
C37   H17   S    
C14   H6    S    
C19   C20   A    
C2    C44   A    
C8    C9    D    
C18   C26   A    
C4    H11   S    
C31   C33   A    
Cu1   O7    S    
C47   H30   S    
C24   H5    S    
C21   C22   A    
Cu1   O1    S    
C13   C25   A    
C50   H37   S    
Cu2   O4    S    
C45   H25   S    
C49   H34   S    
C32   N2    A    
C11   C20   A    
C1    O1    A    
C36   H12   S    
C15   H8    S    
C51   H39   S    
C27   C39   A    
C46   H27   S    
C16   C17   A    
C27   C35   A    
O10   C46   S    
C50   C51   S    
C23   O6    A    
C13   C24   A    
Cu1   O3    S    
C12   C40   S    
C43   C44   A    
C29   C30   A    
C34   O8    A    
C6    O9    S    
C39   H10   S    
O11   C49   S    
C48   H32   S    
C17   C18   A    
C41   H1    S    
C10   C34   S    
C32   C37   A    
C14   C26   A    
C47   C48   S    
C25   H2    S    
Cu2   N2    S    
C6    C7    A    
C38   H14   S    
C40   C41   A    
C1    C26   S    
C30   H15   S    
C28   N2    A    
C42   C43   A    
C48   H33   S    
C4    C10   A    
C3    C4    A    
C28   O10   S    
C45   H26   S    
C7    C9    S    
C29   H16   S    
C36   C37   A    
Cu1   N1    S    
C18   C22   A    
C31   C32   A    
C3    H21   S    
O9    C45   S    
C46   C47   S    
Cu2   O6    S    
C22   H9    S    
C3    C7    A    
C33   C38   A    
C1    O2    A    
C19   C24   A    
C5    C10   A    
C11   H4    S    
C27   H13   S    
C34   O7    A    
Cu2   O8    S    
C50   H36   S    
C33   C35   A    
C39   N1    A    
C51   H40   S    
C42   H23   S    
C9    H19   S    
C17   C19   A    
C2    C40   A    
C20   C21   A    
C5    H18   S    
C12   O4    A    
C51   H38   S    
C14   C15   A    
C47   H29   S    
Cu2   O2    S    
