data_mof_unit_25740.cif
_audit_creation_date              2013-03-05T15:50:03-0500
_audit_creation_method            fapswitch 2.2
_symmetry_space_group_name_H-M    P1
_symmetry_Int_Tables_number       1
_space_group_crystal_system       triclinic
_cell_length_a                    8.206069
_cell_length_b                    12.665265
_cell_length_c                    17.374762
_cell_angle_alpha                 94.866795
_cell_angle_beta                  95.907773
_cell_angle_gamma                 97.951652
_cell_volume                      1769.91340851

loop_
_atom_site_label
_atom_site_type_symbol
_atom_site_description
_atom_site_fract_x
_atom_site_fract_y
_atom_site_fract_z
_atom_type_partial_charge
P1    P     P_3+3 0.990420 0.746550 0.559720 0.467398
O1    O     O_2   0.163080 0.763400 0.536930 -0.363635
O2    O     O_3   0.893330 0.628980 0.538660 -0.405914
O3    O     O_3   0.379830 0.697590 0.399610 -0.370674
O4    O     O_2   0.301142 0.884799 0.450726 -0.388370
O5    O     O_3   0.024066 0.774482 0.661013 -0.555091
O6    O     O_3   0.352940 0.868589 0.305861 -0.502695
H1    H     H_    0.385914 0.720010 0.254209 0.086408
C1    C     C_3   0.368473 0.832698 0.169003 -0.052033
H2    H     H_    0.236997 0.796458 0.152311 0.159768
P2    P     P_3+3 0.330880 0.415450 0.326700 0.479079
P3    P     P_3+3 0.919557 0.636921 0.260059 0.461000
O7    O     O_2   0.161570 0.447940 0.314920 -0.362470
O8    O     O_3   0.953630 0.643360 0.361440 -0.377468
O9    O     O_2   0.042166 0.568917 0.225562 -0.383850
O10   O     O_3   0.294739 0.275992 0.306436 -0.545039
O11   O     O_3   0.977824 0.764827 0.232279 -0.508334
C2    C     C_3   0.926469 0.841639 0.284162 0.409540
H3    H     H_    0.030112 0.873187 0.330098 0.150143
H4    H     H_    0.817746 0.810029 0.313002 0.025397
C3    C     C_3   0.879595 0.932788 0.239152 -0.904413
H5    H     H_    0.839987 0.995330 0.278869 0.244515
H6    H     H_    0.986147 0.968506 0.210935 0.294868
C4    C     C_3   0.748252 0.315359 0.304518 0.406881
H7    H     H_    0.640952 0.344049 0.328530 0.093334
H8    H     H_    0.856253 0.380025 0.314143 0.126149
C5    C     C_3   0.705244 0.284978 0.217472 -0.879442
H9    H     H_    0.588136 0.227700 0.206105 0.299826
H10   H     H_    0.689331 0.356989 0.187274 0.204892
H11   H     H_    0.806356 0.247397 0.193580 0.272094
Ba1   Ba    Ba6+2 0.158660 0.552610 0.463110 1.557528
C6    C     C_3   0.055859 0.682527 0.695500 0.449561
H12   H     H_    0.166382 0.654613 0.674368 0.085546
H13   H     H_    0.948580 0.617718 0.682482 0.121019
C7    C     C_3   0.087006 0.710406 0.783203 -0.910024
H14   H     H_    0.201186 0.769649 0.798585 0.298501
H15   H     H_    0.102060 0.637771 0.812810 0.210374
H16   H     H_    0.980352 0.744795 0.804266 0.263734
C8    C     C_3   0.249535 0.228029 0.372206 0.368440
H17   H     H_    0.124261 0.243907 0.382350 0.086421
H18   H     H_    0.338475 0.256901 0.424756 0.138096
C9    C     C_3   0.247489 0.108141 0.356567 -0.830616
H19   H     H_    0.164991 0.077531 0.302686 0.266223
H20   H     H_    0.202105 0.066302 0.405333 0.214382
H21   H     H_    0.374182 0.091090 0.349006 0.277719
P4    P     P_3+3 0.819870 0.253440 0.440220 0.458544
O12   O     O_2   0.647210 0.236530 0.463040 -0.371825
O13   O     O_3   0.916960 0.371010 0.461280 -0.406250
O14   O     O_3   0.430470 0.302400 0.600330 -0.393310
O15   O     O_3   0.785582 0.224581 0.339038 -0.562738
P5    P     P_3+3 0.883227 0.358474 0.739995 0.460233
O16   O     O_3   0.388290 0.554800 0.590630 -0.394206
O17   O     O_3   0.856660 0.356630 0.638500 -0.374593
O18   O     O_2   0.756877 0.424241 0.773582 -0.394032
O19   O     O_3   0.823026 0.228083 0.763013 -0.498996
Ba2   Ba    Ba6+2 0.651510 0.447380 0.536830 1.553302
P6    P     P_3+3 0.419469 0.836635 0.398816 0.459677
C10   C     C_3   0.424524 0.807125 0.251150 0.265428
H22   H     H_    0.560998 0.825651 0.261600 0.024447
H23   H     H_    0.443875 0.796172 0.127344 0.055901
O20   O     O_3   0.422000 0.445190 0.409310 -0.408015
C11   C     C_3   0.554515 0.774479 0.647231 0.268550
H24   H     H_    0.656971 0.741129 0.621127 0.051022
H25   H     H_    0.444725 0.765190 0.603097 0.120907
C12   C     C_3   0.609627 0.893447 0.671902 -0.112647
H26   H     H_    0.741940 0.905385 0.696569 0.108634
H27   H     H_    0.598562 0.939499 0.620491 0.090604
P7    P     P_3+3 0.473532 0.585981 0.687872 0.453659
O21   O     O_2   0.648720 0.552000 0.685060 -0.354732
O22   O     O_3   0.514074 0.723739 0.712847 -0.539090
H28   H     H_    0.777273 0.901400 0.192656 0.276917
C13   C     C_3   0.900705 0.155685 0.718508 0.461557
H29   H     H_    0.805441 0.105947 0.675471 0.111022
H30   H     H_    0.997893 0.193890 0.685499 0.027694
C14   C     C_3   0.980530 0.083624 0.772074 -0.969569
H31   H     H_    0.043680 0.026719 0.737909 0.254839
H32   H     H_    0.072347 0.133135 0.816756 0.256574
H33   H     H_    0.885711 0.037787 0.802217 0.301801
P8    P     P_3+3 0.389494 0.164491 0.603860 0.473098
C15   C     C_3   0.402673 0.220504 0.750330 0.478755
H34   H     H_    0.269830 0.228131 0.738207 -0.005188
O23   O     O_2   0.513793 0.114436 0.556294 -0.386194
O24   O     O_3   0.445470 0.139078 0.699600 -0.470166
H35   H     H_    0.478921 0.298352 0.744923 0.138623
H36   H     H_    0.396499 0.255974 0.874036 0.193723
C16   C     C_3   0.435487 0.193975 0.833735 -0.819685
H37   H     H_    0.569544 0.191654 0.848977 0.293436
H38   H     H_    0.364936 0.114775 0.840886 0.280584
C17   C     C_R   0.077541 0.184431 0.531579 -0.528339
C18   C     C_R   0.730332 0.816494 0.471230 -0.514595
C19   C     C_R   0.700356 0.996656 0.441662 -0.195113
C20   C     C_R   0.635565 0.888067 0.438557 0.204611
C21   C     C_R   0.886926 0.851118 0.511534 0.270361
C22   C     C_R   0.952089 0.963310 0.518626 -0.085243
C23   C     C_R   0.857536 0.037200 0.482494 -0.061630
C24   C     C_R   0.922314 0.149408 0.489812 0.286429
C25   C     C_R   0.173618 0.112716 0.563237 0.199262
C26   C     C_R   0.109579 0.003834 0.559172 -0.189629
H39   H     H_    0.624709 0.048409 0.413477 0.183882
H40   H     H_    0.186227 0.951728 0.586128 0.218958
H41   H     H_    0.128293 0.268518 0.535952 0.174594
H42   H     H_    0.678360 0.732721 0.467997 0.178839
H43   H     H_    0.534750 0.567009 0.857214 0.158065
H44   H     H_    0.721970 0.598837 0.103855 0.161592
C27   C     C_R   0.602539 0.542366 0.279549 -0.523251
C28   C     C_R   0.445355 0.485226 0.255445 0.328513
C29   C     C_R   0.384063 0.472423 0.176166 -0.234597
C30   C     C_R   0.481668 0.515638 0.121210 0.048291
C31   C     C_R   0.643151 0.568715 0.145893 -0.287404
C32   C     C_R   0.704081 0.580161 0.225073 0.234943
C33   C     C_R   0.414131 0.521991 0.835965 -0.228999
C34   C     C_R   0.358827 0.511648 0.756266 0.283016
C35   C     C_R   0.096262 0.415129 0.780274 0.246190
C36   C     C_R   0.150492 0.424514 0.860284 -0.277816
C37   C     C_R   0.310966 0.477251 0.888308 0.055453
C38   C     C_1   0.368354 0.489749 0.970719 0.005151
C39   C     C_1   0.419135 0.501336 0.039348 0.013115
C40   C     C_R   0.203045 0.455197 0.728765 -0.524968
H45   H     H_    0.067703 0.392915 0.900260 0.160018
H46   H     H_    0.262466 0.427204 0.157290 0.162518
H47   H     H_    0.650302 0.550881 0.340516 0.173776
H48   H     H_    0.160463 0.448955 0.667261 0.168112
N1    N     N_R   0.509251 0.931828 0.730076 0.315229
O25   O     O_R   0.349368 0.923230 0.713908 -0.379237
O26   O     O_R   0.576178 0.962129 0.801118 -0.365519
N2    N     N_R   0.386248 0.948233 0.164151 0.290118
O27   O     O_R   0.531069 0.006851 0.178926 -0.392775
O28   O     O_R   0.258239 0.992588 0.141382 -0.368982

loop_
_geom_bond_atom_site_label_1
_geom_bond_atom_site_label_2
_geom_bond_distance
_ccdc_geom_bond_type
O5    C6    1.397770 S    
C27   C32   1.395787 A    
C21   C22   1.437606 A    
P6    C20   1.843286 S    
C5    H10   1.106443 S    
C2    C3    1.518674 S    
Ba1   O20   2.899670 S    
C23   C24   1.436942 A    
C4    C5    1.521110 S    
Ba1   O16   2.752500 S    
C15   H35   1.108861 S    
P3    C32   1.834599 S    
C36   C37   1.409542 A    
N1    O25   1.300604 A    
C8    H18   1.110115 S    
H36   C16   1.109774 S    
C30   C31   1.406932 A    
N2    O27   1.300054 A    
C3    H28   1.108696 S    
C7    H15   1.106725 S    
C4    H8    1.108893 S    
C2    H3    1.110013 S    
C15   O24   1.404802 S    
P7    C34   1.832841 S    
H44   C31   1.083345 S    
C16   H38   1.109992 S    
N1    O26   1.301640 A    
C28   C29   1.404842 A    
C22   C26   1.413383 A    
C37   C38   1.448858 S    
P1    Ba1   3.387146 S    
C38   C39   1.211671 T    
C11   O22   1.402154 S    
H43   C33   1.083532 S    
C1    C10   1.529088 S    
C40   H48   1.082349 S    
C18   H42   1.081918 S    
C11   H25   1.107571 S    
H1    C10   1.112328 S    
C33   C34   1.401462 A    
P7    O21   1.560899 D    
C12   H27   1.110260 S    
O3    P6    1.747523 S    
C15   C16   1.520766 S    
C29   C30   1.406285 A    
Ba1   Ba2   4.526405 S    
C1    H2    1.111215 S    
O8    Ba1   2.745916 S    
O6    C10   1.403781 S    
P5    O19   1.748798 S    
C36   H45   1.083162 S    
O16   P7    1.751269 S    
P2    Ba1   3.361922 S    
C3    H5    1.110834 S    
C5    H11   1.110841 S    
C9    H20   1.106331 S    
C13   C14   1.520629 S    
O7    Ba1   2.798151 S    
C25   C26   1.399356 A    
C8    C9    1.517128 S    
C4    O15   1.397168 S    
P4    O13   1.582796 S    
P1    O5    1.751030 S    
O3    Ba1   2.777921 S    
C6    C7    1.521693 S    
C7    H16   1.110852 S    
C4    H7    1.104448 S    
C13   H30   1.110679 S    
C19   C20   1.398665 A    
C16   H37   1.109715 S    
C13   H29   1.109316 S    
C10   H22   1.104737 S    
O14   P8    1.739983 S    
C17   C25   1.393832 A    
O1    Ba1   2.855936 S    
P1    O2    1.582798 S    
C9    H21   1.109138 S    
C6    H13   1.107927 S    
P3    O11   1.746918 S    
C14   H31   1.111036 S    
C11   H24   1.111415 S    
O2    Ba2   2.817924 S    
C18   C20   1.392921 A    
P3    O9    1.545864 D    
P2    C28   1.841611 S    
O11   C2    1.406944 S    
C27   H47   1.082031 S    
P5    C35   1.837572 S    
O2    Ba1   2.890493 S    
C14   H32   1.108997 S    
P1    C21   1.878605 S    
P3    O8    1.748012 S    
Ba2   O21   2.798344 S    
C26   H40   1.075695 S    
Ba1   O13   2.817344 S    
C3    H6    1.107238 S    
C9    H19   1.104695 S    
C29   H46   1.083454 S    
C8    H17   1.103082 S    
C18   C21   1.393097 A    
C35   C36   1.405223 A    
O17   Ba2   2.746509 S    
O13   Ba2   2.891326 S    
P4    O12   1.502219 D    
N2    O28   1.300369 A    
C11   C12   1.523346 S    
C17   H41   1.081872 S    
C30   C39   1.448953 S    
P8    C25   1.846361 S    
O19   C13   1.409929 S    
C15   H34   1.107877 S    
P2    O20   1.539664 S    
P8    O23   1.545601 D    
O14   Ba2   2.777277 S    
C27   C28   1.393550 A    
P4    O15   1.750449 S    
C1    N2    1.460817 S    
O4    P6    1.542476 D    
C1    H23   1.111461 S    
C19   H39   1.076689 S    
C6    H12   1.103457 S    
P5    O18   1.546089 D    
C17   C24   1.394540 A    
C31   C32   1.402903 A    
C34   C40   1.391799 A    
P2    O7    1.501832 D    
P1    O1    1.501999 D    
C2    H4    1.111121 S    
C12   N1    1.461230 S    
C22   C23   1.439522 A    
C14   H33   1.107812 S    
P2    O10   1.749193 S    
O10   C8    1.398288 S    
C19   C23   1.413229 A    
C35   C40   1.393474 A    
P8    O24   1.748175 S    
P4    C24   1.880212 S    
P7    O22   1.739058 S    
C12   H26   1.110510 S    
P4    Ba2   3.387696 S    
C5    H9    1.110188 S    
Ba2   O20   2.751910 S    
C33   C37   1.406439 A    
C7    H14   1.110062 S    
P5    O17   1.752224 S    
O6    P6    1.749525 S    
O16   Ba2   2.898839 S    
O12   Ba2   2.856584 S    
