data_mof_unit_27218.cif
_audit_creation_date              2012-12-10T19:27:26-0500
_audit_creation_method            fapswitch 2.2
_symmetry_space_group_name_H-M    P1
_symmetry_Int_Tables_number       1
_space_group_crystal_system       triclinic
_cell_length_a                    23.324508
_cell_length_b                    10.480129
_cell_length_c                    9.794475
_cell_angle_alpha                 89.798649
_cell_angle_beta                  88.148472
_cell_angle_gamma                 89.8895
_cell_volume                      2392.93048849

loop_
_atom_site_label
_atom_site_type_symbol
_atom_type_description
_atom_site_fract_x
_atom_site_fract_y
_atom_site_fract_z
_atom_type_partial_charge
C1    C     C_R   0.500081 0.257669 0.500291 0.844235
C2    C     C_R   0.500166 0.742380 0.499677 0.847560
C3    C     C_R   0.240391 0.535564 0.384322 -0.119954
C4    C     C_R   0.755492 0.387172 0.377608 -0.130013
C5    C     C_R   0.298979 0.546077 0.394182 -0.286421
C6    C     C_R   0.696848 0.405829 0.389321 -0.258048
C7    C     C_R   0.327082 0.486562 0.501308 -0.079152
C8    C     C_R   0.672809 0.477681 0.496902 -0.105577
C9    C     C_R   0.295862 0.412681 0.599443 0.166364
C10   C     C_R   0.707979 0.519510 0.603887 0.145270
C11   C     C_R   0.235218 0.410705 0.595208 -0.024690
C12   C     C_R   0.767082 0.492171 0.596170 0.008683
C13   C     C_R   0.208247 0.470322 0.484522 0.244224
C14   C     C_R   0.790838 0.434632 0.477106 0.225812
C15   C     C_3   0.496567 0.040207 0.630192 -0.145994
C16   C     C_3   0.503275 0.960023 0.369665 -0.140379
C17   C     C_3   0.545493 0.957855 0.567585 -0.184667
C18   C     C_3   0.454352 0.042493 0.432288 -0.177301
C19   C     C_3   0.500170 0.877600 0.498876 0.038594
C20   C     C_3   0.499736 0.122550 0.501061 0.037380
C21   C     C_3   0.451230 0.957358 0.561310 -0.184071
C22   C     C_3   0.548614 0.042853 0.438576 -0.176363
C23   C     C_R   0.389451 0.497383 0.501532 0.887448
C24   C     C_R   0.610663 0.497346 0.498839 0.875455
C25   C     C_3   0.467964 0.409252 0.052267 -0.117955
C26   C     C_3   0.531412 0.590936 0.947533 -0.150686
C27   C     C_3   0.519402 0.392944 0.949276 -0.125241
C28   C     C_3   0.480871 0.606983 0.050503 -0.150741
C29   C     C_3   0.449121 0.516640 0.957640 0.110971
C30   C     C_3   0.550852 0.484253 0.042063 0.119703
C31   C     C_R   0.877228 0.555265 0.438281 0.512511
C32   C     C_R   0.122418 0.348871 0.446282 0.528658
C33   C     C_R   0.881967 0.327547 0.442155 0.505021
C34   C     C_R   0.116463 0.574446 0.477605 0.500404
C35   C     C_R   0.941768 0.331334 0.432627 -0.027060
C36   C     C_R   0.057440 0.572004 0.459902 -0.048028
C37   C     C_R   0.969658 0.450321 0.437533 -0.053705
C38   C     C_R   0.029851 0.453856 0.445151 -0.067419
C39   C     C_R   0.937417 0.565316 0.437171 -0.073614
C40   C     C_R   0.062327 0.339487 0.440238 -0.052530
C41   C     C_R   0.973911 0.218529 0.424937 -0.251843
C42   C     C_R   0.025870 0.685369 0.457077 -0.194385
C43   C     C_R   0.033676 0.220921 0.429038 0.215244
C44   C     C_R   0.966722 0.684226 0.442620 0.212376
H1    H     H_    0.952687 0.127006 0.419289 0.190234
H2    H     H_    0.047177 0.776754 0.464299 0.192638
H3    H     H_    0.535181 0.302755 0.902200 0.117225
H4    H     H_    0.464567 0.696967 0.097208 0.128066
H5    H     H_    0.441580 0.332408 0.100658 0.120335
H6    H     H_    0.557983 0.667422 0.898879 0.133068
H7    H     H_    0.219506 0.580047 0.299117 0.154464
H8    H     H_    0.773791 0.339137 0.288696 0.161533
H9    H     H_    0.322591 0.600405 0.316655 0.177749
H10   H     H_    0.670096 0.365609 0.312360 0.189193
H11   H     H_    0.582647 0.920866 0.623375 0.131694
H12   H     H_    0.417335 0.081707 0.377189 0.134039
H13   H     H_    0.493754 0.076841 0.736448 0.133558
H14   H     H_    0.506059 0.923364 0.263413 0.132144
H15   H     H_    0.411626 0.917934 0.611112 0.123541
H16   H     H_    0.588182 0.082553 0.388843 0.132081
N1    N     N_R   0.851439 0.438423 0.450113 -0.337318
N2    N     N_R   0.147470 0.463979 0.471096 -0.345605
N3    N     N_3   0.499960 0.500030 0.863290 -0.088176
N4    N     N_3   0.500040 0.499970 0.136710 -0.087969
O1    O     O_R   0.500000 0.313960 0.616610 -0.621721
O2    O     O_R   0.500000 0.686040 0.383390 -0.628547
O3    O     O_R   0.500030 0.313950 0.383350 -0.622305
O4    O     O_R   0.499970 0.686050 0.616650 -0.638745
O5    O     O_R   0.416140 0.499970 0.616650 -0.581054
O6    O     O_R   0.583860 0.500030 0.383350 -0.613214
O7    O     O_R   0.416170 0.499960 0.383400 -0.625357
O8    O     O_R   0.583830 0.500040 0.616600 -0.620301
O9    O     O_2   0.843985 0.660241 0.431171 -0.596227
O10   O     O_2   0.155915 0.245157 0.426017 -0.544528
O11   O     O_2   0.854487 0.214322 0.447666 -0.594492
O12   O     O_2   0.142902 0.686318 0.501609 -0.591633
Zn1   Zn    Zn3+2 0.499980 0.500010 0.655740 0.938041
Zn2   Zn    Zn3+2 0.500020 0.499990 0.344260 0.934783
C45   C     C_R   0.389967 0.555309 0.917137 0.146924
C46   C     C_R   0.341646 0.493834 0.975580 -0.179192
C47   C     C_R   0.286549 0.540087 0.951837 -0.159789
C48   C     C_R   0.279307 0.647464 0.869129 -0.093790
C49   C     C_R   0.327186 0.710330 0.812348 -0.157236
C50   C     C_R   0.382328 0.665977 0.838405 -0.114356
H17   H     H_    0.346419 0.411529 0.041282 0.127193
H18   H     H_    0.249506 0.492561 0.997665 0.148691
H19   H     H_    0.236678 0.682941 0.850398 0.131672
H20   H     H_    0.321619 0.794746 0.750151 0.127069
H21   H     H_    0.419044 0.718731 0.798700 0.142037
C51   C     C_R   0.613020 0.485764 0.077418 0.123194
C52   C     C_R   0.649696 0.387289 0.031518 -0.225289
C53   C     C_R   0.709220 0.402438 0.034342 -0.161903
C54   C     C_R   0.732455 0.515446 0.083653 -0.073575
C55   C     C_R   0.696329 0.612750 0.132131 -0.128944
C56   C     C_R   0.636851 0.598330 0.128648 -0.124199
H22   H     H_    0.632495 0.301115 0.988324 0.126779
H23   H     H_    0.737349 0.327093 0.997152 0.142479
H24   H     H_    0.778430 0.526678 0.086843 0.151693
H25   H     H_    0.714420 0.699940 0.170856 0.144082
H26   H     H_    0.609345 0.676703 0.161047 0.128374
N5    N     N_2   0.063912 0.102827 0.429005 -0.252985
H27   H     H_    0.046906 0.035015 0.365854 0.218733
C57   C     C_3   0.073206 0.052606 0.564255 -0.691967
H28   H     H_    0.101270 0.967094 0.556793 0.256101
H29   H     H_    0.031703 0.025631 0.614836 0.206500
H30   H     H_    0.094404 0.124788 0.627791 0.263623
N6    N     N_2   0.938831 0.804796 0.434937 -0.307082
H31   H     H_    0.909963 0.816060 0.358429 0.270960
C58   C     C_3   0.922001 0.860327 0.565157 -0.720849
H32   H     H_    0.905299 0.958253 0.549321 0.250592
H33   H     H_    0.959278 0.865361 0.632566 0.222057
H34   H     H_    0.887898 0.802533 0.616309 0.266736
N7    N     N_2   0.325511 0.341144 0.699725 -0.283951
H35   H     H_    0.302895 0.324275 0.789861 0.236371
C59   C     C_3   0.354430 0.227415 0.649481 -0.764509
H36   H     H_    0.381994 0.188401 0.730041 0.235662
H37   H     H_    0.381891 0.248746 0.558036 0.231006
H38   H     H_    0.322892 0.153635 0.621943 0.218161
N8    N     N_2   0.685223 0.586016 0.720227 -0.295505
H39   H     H_    0.657093 0.534128 0.781489 0.262250
C60   C     C_3   0.667450 0.716409 0.696488 -0.803613
H40   H     H_    0.661302 0.765726 0.796014 0.231843
H41   H     H_    0.626417 0.719060 0.642816 0.240544
H42   H     H_    0.700355 0.768739 0.634050 0.245554
C61   C     C_R   0.199534 0.352750 0.707390 0.114521
C62   C     C_R   0.163461 0.430609 0.789213 -0.181960
C63   C     C_R   0.130470 0.377798 0.896813 -0.150238
C64   C     C_R   0.133022 0.246861 0.923217 -0.094732
C65   C     C_R   0.168115 0.168391 0.841105 -0.176115
C66   C     C_R   0.200798 0.220754 0.732653 -0.117494
H43   H     H_    0.161263 0.532313 0.770308 0.148778
H44   H     H_    0.103069 0.438470 0.960008 0.135206
H45   H     H_    0.107555 0.206116 0.006750 0.138940
H46   H     H_    0.169485 0.066703 0.860440 0.142398
H47   H     H_    0.226456 0.158287 0.667828 0.155263
C67   C     C_R   0.804513 0.518867 0.712829 0.143997
C68   C     C_R   0.834911 0.418337 0.772762 -0.190819
C69   C     C_R   0.872147 0.442300 0.878677 -0.148423
C70   C     C_R   0.879390 0.566712 0.925733 -0.118691
C71   C     C_R   0.849161 0.667178 0.867339 -0.184760
C72   C     C_R   0.811946 0.643582 0.761212 -0.074675
H48   H     H_    0.829847 0.321420 0.737135 0.153022
H49   H     H_    0.895429 0.364406 0.924183 0.137745
H50   H     H_    0.908233 0.585185 0.007735 0.132680
H51   H     H_    0.854960 0.763629 0.903450 0.137174
H52   H     H_    0.790395 0.723082 0.714573 0.152770

loop_
_geom_bond_atom_site_label_1
_geom_bond_atom_site_label_2
_ccdc_geom_bond_type
C38   C40   A    
C68   H48   S    
C29   N3    S    
C62   C63   A    
C8    C24   S    
C30   N4    S    
O6    Zn2   S    
C18   C21   S    
N6    C58   S    
C23   O5    A    
C36   C42   A    
C66   H47   S    
C30   C51   S    
C64   C65   A    
C46   H17   S    
C47   C48   A    
C24   O6    A    
C51   C56   A    
N5    H27   S    
C4    H8    S    
C55   H25   S    
C5    H9    S    
C28   C29   S    
C19   C21   S    
C21   H15   S    
C2    O4    A    
C69   H49   S    
C58   H33   S    
C32   O10   S    
C45   C50   A    
C33   C35   A    
C31   O9    S    
C59   H36   S    
C34   N2    A    
C15   C17   S    
C42   H2    S    
C31   N1    A    
C63   H44   S    
C60   H42   S    
C10   N8    S    
O8    Zn1   S    
C17   C19   S    
C52   H22   S    
O5    Zn1   S    
C61   C66   A    
C33   O11   S    
C40   C43   A    
C13   N2    S    
C59   H37   S    
C1    O1    A    
N6    H31   S    
C17   H11   S    
C18   C20   S    
C47   H18   S    
C3    C13   A    
C18   H12   S    
C49   H20   S    
N5    C57   S    
C27   C30   S    
C15   H13   S    
O3    Zn2   S    
C42   C44   A    
C6    H10   S    
C53   H23   S    
N8    C60   S    
C25   C29   S    
C15   C20   S    
O2    Zn2   S    
O1    Zn1   S    
C23   O7    A    
C71   C72   A    
C4    C6    A    
C58   H34   S    
C52   C53   A    
C5    C7    A    
C3    H7    S    
C56   H26   S    
C67   C68   A    
C6    C8    A    
C3    C5    A    
C14   N1    S    
C65   H46   S    
C25   N4    S    
C26   N3    S    
C43   N5    S    
C37   C38   A    
C70   H50   S    
C49   C50   A    
C29   C45   S    
N8    H39   S    
C59   H38   S    
C57   H29   S    
C54   C55   A    
C16   H14   S    
C9    C11   A    
C60   H40   S    
C10   C12   A    
C72   H52   S    
C28   N4    S    
C8    C10   A    
C12   C14   A    
C26   C30   S    
C61   C62   A    
C50   H21   S    
C63   C64   A    
C24   O8    A    
N7    H35   S    
N3    Zn1   S    
C44   N6    S    
C27   H3    S    
O4    Zn1   S    
C7    C9    A    
C28   H4    S    
C1    C20   S    
C16   C22   S    
C11   C61   S    
C2    C19   S    
N4    Zn2   S    
C16   C18   S    
C41   C43   A    
C20   C22   S    
C46   C47   A    
C2    O2    A    
C71   H51   S    
C70   C71   A    
C39   C44   A    
C25   C27   S    
C68   C69   A    
C26   C28   S    
C17   C22   S    
C9    N7    S    
C26   H6    S    
C65   C66   A    
C32   N2    A    
C35   C37   A    
C37   C39   A    
C64   H45   S    
C22   H16   S    
C11   C13   A    
C51   C52   A    
C62   H43   S    
C16   C19   S    
C7    C23   S    
C36   C38   A    
C53   C54   A    
C1    O3    A    
C67   C72   A    
C31   C39   A    
C57   H30   S    
C34   C36   A    
C32   C40   A    
C4    C14   A    
C55   C56   A    
C35   C41   A    
C25   H5    S    
C60   H41   S    
C69   C70   A    
C45   C46   A    
C15   C21   S    
C33   N1    A    
C48   C49   A    
C12   C67   S    
C57   H28   S    
C41   H1    S    
C27   N3    S    
C58   H32   S    
C54   H24   S    
O7    Zn2   S    
C48   H19   S    
C34   O12   S    
N7    C59   S    
