data_mof_unit_11428.cif
_audit_creation_date              2012-12-11T17:43:44-0500
_audit_creation_method            fapswitch 2.2
_symmetry_space_group_name_H-M    P1
_symmetry_Int_Tables_number       1
_space_group_crystal_system       triclinic
_cell_length_a                    15.111964
_cell_length_b                    15.186824
_cell_length_c                    17.004311
_cell_angle_alpha                 108.562827
_cell_angle_beta                  105.422056
_cell_angle_gamma                 109.829933
_cell_volume                      3159.43267091

loop_
_atom_site_label
_atom_site_type_symbol
_atom_type_description
_atom_site_fract_x
_atom_site_fract_y
_atom_site_fract_z
_atom_type_partial_charge
C1    C     C_R   0.083655 0.285361 0.073359 -0.127387
C2    C     C_R   0.084952 0.092634 0.081463 0.159412
C3    C     C_R   0.007196 0.911358 0.969529 -0.026706
C4    C     C_R   0.991300 0.094248 0.044219 0.047199
C5    C     C_R   0.096735 0.005698 0.036392 -0.009418
C6    C     C_R   0.901561 0.999840 0.979260 0.012153
C7    C     C_R   0.714003 0.955052 0.901479 -0.166560
C8    C     C_R   0.283119 0.050102 0.113429 -0.116616
C9    C     C_R   0.608791 0.961492 0.986240 -0.338315
C10   C     C_R   0.394081 0.059433 0.033581 -0.450014
C11   C     C_R   0.616648 0.749681 0.353699 -0.205082
C12   C     C_R   0.914794 0.718293 0.934646 -0.107204
C13   C     C_R   0.368607 0.416172 0.668588 -0.204938
C14   C     C_R   0.590733 0.709636 0.260171 0.499845
C15   C     C_R   0.387771 0.411854 0.751995 0.493333
C16   C     C_R   0.941114 0.465474 0.734401 -0.159464
C17   C     C_R   0.062254 0.482408 0.253582 -0.114103
C18   C     C_R   0.553098 0.600453 0.207290 -0.282019
C19   C     C_R   0.477547 0.494100 0.831311 -0.144379
C20   C     C_R   0.544598 0.534730 0.251145 0.277496
C21   C     C_R   0.531143 0.588106 0.827504 0.248389
C22   C     C_R   0.572644 0.576639 0.345811 0.445989
C23   C     C_R   0.034361 0.484635 0.725968 -0.103290
C24   C     C_R   0.509060 0.593466 0.744031 0.483411
C25   C     C_R   0.609115 0.685346 0.397166 0.040101
C26   C     C_R   0.430456 0.504096 0.663071 0.033275
C27   C     C_R   0.587748 0.520081 0.074393 -0.224700
C28   C     C_R   0.429551 0.529254 0.955783 -0.275304
C29   C     C_R   0.571781 0.488870 0.982043 0.123710
C30   C     C_R   0.444743 0.558596 0.046321 0.122955
C31   C     C_R   0.493422 0.499033 0.922961 0.099258
C32   C     C_R   0.525753 0.556311 0.107618 0.164918
C33   C     C_R   0.618879 0.942547 0.903499 0.663053
C34   C     C_R   0.971596 0.417160 0.253576 -0.112436
C35   C     C_R   0.380364 0.069041 0.113848 0.650589
C36   C     C_R   0.963922 0.376676 0.321393 0.016387
C37   C     C_R   0.049009 0.452689 0.641279 0.034376
C38   C     C_R   0.147454 0.478473 0.551470 -0.222752
C39   C     C_R   0.871545 0.306209 0.402447 -0.198361
C40   C     C_R   0.728763 0.209959 0.822716 0.502108
C41   C     C_R   0.228903 0.796189 0.192015 0.600048
C42   C     C_R   0.139790 0.512173 0.634322 0.207181
C43   C     C_R   0.869917 0.331683 0.330434 0.207515
C44   C     C_R   0.965292 0.366944 0.562596 -0.203869
C45   C     C_R   0.677377 0.202444 0.738703 -0.122702
C46   C     C_R   0.056710 0.399651 0.389142 -0.161991
C47   C     C_R   0.965528 0.351791 0.477746 0.122971
C48   C     C_R   0.058656 0.403568 0.472129 0.128023
C49   C     C_R   0.576953 0.113941 0.668226 -0.225128
C50   C     C_R   0.310706 0.891205 0.369634 -0.084425
C51   C     C_R   0.393221 0.076832 0.469923 0.094750
C52   C     C_R   0.449349 0.929838 0.591656 0.299551
C53   C     C_R   0.360236 0.995567 0.383543 0.416176
C54   C     C_R   0.551610 0.008132 0.649461 0.417206
C55   C     C_R   0.309295 0.873072 0.445806 0.224934
C56   C     C_R   0.265392 0.801061 0.279125 -0.088831
C57   C     C_R   0.499086 0.135281 0.627790 0.306643
C58   C     C_R   0.385347 0.951727 0.531573 -0.168856
C59   C     C_R   0.417944 0.056472 0.545678 -0.093017
C60   C     C_R   0.692823 0.992742 0.066340 0.118739
C61   C     C_R   0.311942 0.033514 0.954539 0.265819
C62   C     C_R   0.789351 0.005225 0.064399 0.482546
C63   C     C_R   0.215415 0.019431 0.954879 0.465254
C64   C     C_R   0.305974 0.609915 0.020443 0.257902
C65   C     C_R   0.699162 0.415730 0.001279 0.186236
C66   C     C_R   0.799319 0.984832 0.980780 -0.095391
C67   C     C_R   0.364341 0.575949 0.068330 -0.117040
C68   C     C_R   0.199686 0.025327 0.035018 -0.231639
C69   C     C_R   0.730471 0.301082 0.742710 0.174211
C70   C     C_R   0.244550 0.699709 0.264619 0.164685
C71   C     C_R   0.296129 0.504678 0.083656 0.482215
C72   C     C_R   0.710377 0.510080 0.925663 0.479987
C73   C     C_R   0.111010 0.539065 0.813230 0.598073
C74   C     C_R   0.893390 0.385619 0.170547 0.594047
C75   C     C_R   0.912775 0.202457 0.996053 -0.058215
C76   C     C_R   0.086173 0.795361 0.998735 0.009975
C77   C     C_R   0.995526 0.191955 0.042745 0.012490
C78   C     C_R   0.646805 0.458965 0.957565 -0.055708
C79   C     C_R   0.002979 0.810398 0.961705 0.095674
C80   C     C_R   0.913034 0.912714 0.934094 0.154345
H1    H     H_    0.160774 0.309854 0.119376 0.184575
H2    H     H_    0.894279 0.322825 0.566009 0.144869
H3    H     H_    0.216059 0.525437 0.546633 0.193380
H4    H     H_    0.799584 0.272027 0.408677 0.179516
H5    H     H_    0.867022 0.423599 0.678430 0.174575
H6    H     H_    0.139969 0.507408 0.299034 0.175676
H7    H     H_    0.534961 0.950376 0.988182 0.186155
H8    H     H_    0.468774 0.073085 0.032675 0.201155
H9    H     H_    0.832169 0.152911 0.972734 0.180531
H10   H     H_    0.166038 0.842210 0.014579 0.154586
H11   H     H_    0.602197 0.748539 0.162696 0.347269
H12   H     H_    0.835591 0.701851 0.903772 0.176913
H13   H     H_    0.339077 0.328967 0.813422 0.346058
H14   H     H_    0.585871 0.547587 0.451190 0.370673
H15   H     H_    0.537260 0.682861 0.683682 0.382019
H16   H     H_    0.475060 0.903307 0.835660 0.345953
H17   H     H_    0.524803 0.113831 0.184284 0.358363
H18   H     H_    0.693109 0.030944 0.700613 0.327595
H19   H     H_    0.433097 0.090424 0.341733 0.378380
H20   H     H_    0.861108 0.056804 0.196178 0.347097
H21   H     H_    0.088994 0.022364 0.892166 0.325925
H22   H     H_    0.613639 0.106410 0.825712 0.370535
H23   H     H_    0.721960 0.945089 0.838334 0.224544
H24   H     H_    0.196808 0.910618 0.220795 0.336782
H25   H     H_    0.261880 0.363227 0.055431 0.317000
H26   H     H_    0.730976 0.534367 0.826682 0.337208
H27   H     H_    0.209389 0.494503 0.786440 0.315579
H28   H     H_    0.822444 0.241475 0.149003 0.315427
H29   H     H_    0.272794 0.054354 0.174765 0.228161
H30   H     H_    0.644788 0.832858 0.393543 0.205819
H31   H     H_    0.303502 0.350687 0.607397 0.212396
H32   H     H_    0.651971 0.520792 0.122466 0.157156
H33   H     H_    0.367011 0.531251 0.908715 0.195222
H34   H     H_    0.130004 0.433522 0.385500 0.161272
I1    I     I_    0.654852 0.760455 0.540300 -0.206305
I2    I     I_    0.407824 0.780246 0.589291 -0.150420
I3    I     I_    0.665043 0.011336 0.185236 -0.287159
I4    I     I_    0.336605 0.020066 0.835259 -0.186160
I5    I     I_    0.369659 0.756242 0.018130 -0.287446
I6    I     I_    0.614249 0.280962 0.011523 -0.252174
I7    I     I_    0.670893 0.359586 0.654704 -0.327442
I8    I     I_    0.342024 0.656222 0.340488 -0.334985
I9    I     I_    0.809113 0.803962 0.795210 -0.252338
I10   I     I_    0.193634 0.204854 0.219102 -0.270785
I11   I     I_    0.399137 0.495253 0.530404 -0.230722
I12   I     I_    0.486061 0.369388 0.176996 -0.174558
I13   I     I_    0.645715 0.725382 0.949769 -0.335788
I14   I     I_    0.729763 0.333615 0.266659 -0.268723
I15   I     I_    0.255015 0.668896 0.730540 -0.276376
I16   I     I_    0.461225 0.226005 0.721575 -0.256861
I17   I     I_    0.171815 0.758134 0.436234 -0.287566
I18   I     I_    0.405091 0.224001 0.480568 -0.197462
N1    N     N_R   0.055660 0.348550 0.045620 -0.057501
N2    N     N_R   0.185200 0.638170 0.176300 -0.113533
N3    N     N_R   0.201680 0.494570 0.045620 -0.125067
N4    N     N_R   0.798320 0.505430 0.954380 -0.131208
N5    N     N_R   0.068420 0.560530 0.871650 -0.084803
N6    N     N_R   0.931580 0.439470 0.128350 -0.082858
N7    N     N_R   0.948070 0.295860 0.997670 -0.046068
N8    N     N_R   0.051930 0.704140 0.002330 -0.055927
N9    N     N_R   0.944340 0.651450 0.954380 -0.070090
N10   N     N_R   0.960830 0.507850 0.823700 -0.072976
N11   N     N_R   0.039170 0.492150 0.176300 -0.077011
N12   N     N_R   0.811290 0.303410 0.871650 -0.091566
N13   N     N_R   0.188710 0.696590 0.128350 -0.116546
N14   N     N_R   0.205200 0.552990 0.997670 -0.094940
N15   N     N_R   0.794800 0.447010 0.002330 -0.099469
N16   N     N_R   0.814800 0.361830 0.823700 -0.109095
Ni1   Ni    Ni4+2 0.119340 0.493420 0.109960 0.236680
Ni2   Ni    Ni4+2 0.880660 0.506580 0.890040 0.225979
Ni3   Ni    Ni4+2 0.872590 0.372590 0.000000 0.296323
Ni4   Ni    Ni4+2 0.127410 0.627410 0.000000 0.268395
O1    O     O_3   0.605278 0.780774 0.224503 -0.682106
O2    O     O_3   0.139631 0.001435 0.876454 -0.688753
O3    O     O_3   0.689199 0.149858 0.862669 -0.737620
O4    O     O_3   0.213942 0.872200 0.172929 -0.751189
O5    O     O_3   0.314240 0.432392 0.107120 -0.727411
O6    O     O_3   0.675835 0.522082 0.848779 -0.738996
O7    O     O_3   0.208381 0.546831 0.838451 -0.771549
O8    O     O_3   0.811912 0.285927 0.119349 -0.723979
O9    O     O_3   0.314882 0.327646 0.752816 -0.703025
O10   O     O_3   0.562855 0.508683 0.384734 -0.649181
O11   O     O_3   0.564034 0.687655 0.745303 -0.668430
O12   O     O_3   0.537197 0.911226 0.823474 -0.669906
O13   O     O_3   0.460368 0.097122 0.193728 -0.671602
O14   O     O_3   0.623142 0.978716 0.686281 -0.674971
O15   O     O_3   0.380654 0.016335 0.315231 -0.681998
O16   O     O_3   0.874244 0.033639 0.141213 -0.722395

loop_
_geom_bond_atom_site_label_1
_geom_bond_atom_site_label_2
_ccdc_geom_bond_type
C62   O16   S    
N5    N10   A    
C38   H3    S    
C27   C29   A    
C1    C77   A    
C14   C18   A    
C16   N10   A    
C76   C79   A    
N12   N16   A    
C19   C31   S    
C18   C32   S    
C72   O6    S    
C15   C19   A    
C74   N6    A    
C10   H8    S    
C69   I7    S    
C64   I5    S    
C19   C21   A    
N16   Ni2   S    
C39   H4    S    
C38   C42   A    
N12   Ni3   S    
C44   H2    S    
N6    N11   A    
C25   I1    S    
C71   N3    A    
C24   O11   S    
C22   O10   S    
C11   C14   A    
C57   C59   A    
C11   C25   A    
C1    H1    S    
C49   C54   A    
C12   C79   A    
C49   C57   A    
C12   N9    A    
C60   C62   A    
C37   C42   A    
C61   C63   A    
H11   O1    S    
C72   C78   A    
C53   O15   S    
H25   O5    S    
C29   C78   S    
N3    Ni1   S    
C22   C25   A    
N11   Ni1   S    
N5    Ni4   S    
C36   C46   A    
C10   C35   A    
H13   O9    S    
C21   I13   S    
H14   O10   S    
C18   C20   A    
C30   C67   S    
C44   C47   A    
C12   H12   S    
C41   O4    S    
C52   I2    S    
C27   C32   A    
C3    C79   S    
C7    H23   S    
C11   H30   S    
C9    C33   A    
C7    C33   A    
C23   C73   A    
C5    C68   S    
C1    N1    A    
C3    C80   A    
C52   C54   A    
N9    Ni2   S    
C51   C59   A    
H19   O15   S    
C76   N8    A    
C40   C45   A    
C71   O5    S    
C46   C48   A    
C50   C53   A    
C46   H34   S    
C45   C69   A    
C17   H6    S    
N4    N15   A    
C64   C67   A    
C57   I16   S    
C33   O12   S    
N1    Ni1   S    
N8    N9    A    
C4    C6    A    
C17   N11   A    
C62   C66   A    
C39   C43   A    
C58   C59   A    
H26   O6    S    
N2    Ni1   S    
C50   C56   S    
H16   O12   S    
C51   C53   A    
C8    C35   A    
C2    C4    A    
C41   C56   A    
C20   I12   S    
N4    Ni2   S    
H15   O11   S    
C70   I8    S    
C6    C80   A    
C47   C48   A    
C13   C15   A    
C45   C49   S    
N3    N14   A    
C60   I3    S    
C40   O3    S    
H24   O4    S    
C75   C77   A    
H18   O14   S    
C52   C58   A    
C34   C74   A    
N14   Ni4   S    
C20   C22   A    
C27   H32   S    
N1    N7    A    
C16   C23   A    
C56   C70   A    
C40   N12   A    
C14   O1    S    
C16   H5    S    
C13   C26   A    
C21   C24   A    
C2    C5    A    
C65   N15   A    
C17   C34   A    
C39   C47   A    
C54   O14   S    
N2    N13   A    
N8    Ni4   S    
C63   C68   A    
C65   C78   A    
C64   N14   A    
C61   I4    S    
C38   C48   A    
C15   O9    S    
C28   C31   A    
C63   O2    S    
C24   C26   A    
C3    C5    A    
C43   I14   S    
H27   O7    S    
C51   I18   S    
C8    C68   A    
H28   O8    S    
C2    I10   S    
N6    Ni3   S    
C73   O7    S    
C55   I17   S    
C50   C55   A    
C74   O8    S    
H20   O16   S    
C9    C60   A    
N10   Ni2   S    
C37   C44   A    
C28   C30   A    
C4    C77   S    
C13   H31   S    
C23   C37   S    
C8    H29   S    
C9    H7    S    
C7    C66   A    
C30   C32   A    
C73   N5    A    
H21   O2    S    
H17   O13   S    
N15   Ni3   S    
N7    Ni3   S    
C35   O13   S    
C65   I6    S    
C42   I15   S    
C67   C71   A    
N13   Ni4   S    
C72   N4    A    
C28   H33   S    
C75   H9    S    
C10   C61   A    
C6    C66   S    
C41   N13   A    
C34   C36   S    
C29   C31   A    
C55   C58   A    
C70   N2    A    
C69   N16   A    
C36   C43   A    
C75   N7    A    
H22   O3    S    
C26   I11   S    
C76   H10   S    
C80   I9    S    
