data_mof_unit_27156.cif
_audit_creation_date              2012-12-11T14:08:17-0500
_audit_creation_method            fapswitch 2.2
_symmetry_space_group_name_H-M    P1
_symmetry_Int_Tables_number       1
_space_group_crystal_system       triclinic
_cell_length_a                    11.017291
_cell_length_b                    10.939498
_cell_length_c                    18.795796
_cell_angle_alpha                 90.985953
_cell_angle_beta                  90.349972
_cell_angle_gamma                 59.836467
_cell_volume                      1958.30066358

loop_
_atom_site_label
_atom_site_type_symbol
_atom_type_description
_atom_site_fract_x
_atom_site_fract_y
_atom_site_fract_z
_atom_type_partial_charge
C1    C     C_R   0.241974 0.646367 0.609845 0.536063
C2    C     C_3   0.664262 0.601461 0.801336 -0.222224
C3    C     C_3   0.732570 0.694794 0.806617 0.049176
C4    C     C_3   0.684904 0.657987 0.673130 0.056103
C5    C     C_3   0.844254 0.602330 0.685241 -0.232477
C6    C     C_3   0.639289 0.577584 0.723390 -0.224903
C7    C     C_2   0.673319 0.162297 0.671615 -0.127661
C8    C     C_2   0.682587 0.171516 0.829683 -0.125608
C9    C     C_2   0.791121 0.138694 0.786324 -0.179883
C10   C     C_2   0.767705 0.176923 0.710756 -0.181247
C11   C     C_2   0.211158 0.669635 0.685668 -0.019741
C12   C     C_R   0.657210 0.626145 0.599627 0.532651
C13   C     C_2   0.131629 0.687950 0.833588 -0.085175
C14   C     C_2   0.215967 0.564504 0.801921 -0.196438
C15   C     C_2   0.228443 0.558902 0.724542 -0.183931
C16   C     C_2   0.650001 0.648821 0.318287 -0.092305
C17   C     C_2   0.636919 0.667647 0.160496 -0.119503
C18   C     C_2   0.712559 0.548481 0.196418 -0.160708
C19   C     C_2   0.693405 0.538933 0.272284 -0.145151
C20   C     C_2   0.675775 0.142862 0.332050 -0.018613
C21   C     C_2   0.644347 0.155176 0.175973 -0.078436
C22   C     C_2   0.615744 0.075969 0.219295 -0.150632
C23   C     C_R   0.627151 0.230092 0.602441 0.543394
C24   C     C_2   0.596304 0.104363 0.295009 -0.181207
C25   C     C_2   0.123642 0.685769 0.344257 -0.129259
C26   C     C_2   0.129864 0.680126 0.185597 -0.099410
C27   C     C_2   0.046403 0.783144 0.231008 -0.148711
C28   C     C_2   0.102154 0.787524 0.298899 -0.047336
C29   C     C_R   0.702444 0.102138 0.897913 0.536049
C30   C     C_R   0.757854 0.712192 0.883225 0.548155
C31   C     C_R   0.114873 0.706654 0.907562 0.536514
C32   C     C_R   0.673817 0.108805 0.103544 0.543196
C33   C     C_R   0.693105 0.689204 0.095064 0.559116
C34   C     C_R   0.218657 0.650716 0.403220 0.549782
C35   C     C_R   0.094193 0.708610 0.112564 0.549844
C36   C     C_R   0.641136 0.621618 0.392905 0.548074
C37   C     C_R   0.620760 0.224172 0.396954 0.541660
C38   C     C_3   0.635932 0.839777 0.770592 -0.233649
C39   C     C_3   0.602578 0.817437 0.692861 -0.242129
C40   C     C_3   0.871981 0.621816 0.764067 -0.241471
Cr1   Cr    Cr6+3 0.393010 0.398050 0.501480 1.023469
Cr2   Cr    Cr6+3 0.398820 0.707980 0.501630 1.039241
Cr3   Cr    Cr6+3 0.708140 0.393940 0.496850 1.026534
Cr4   Cr    Cr6+3 0.937950 0.938450 0.008940 1.030617
Cr5   Cr    Cr6+3 0.626180 0.937030 0.994750 1.011018
Cr6   Cr    Cr6+3 0.937790 0.625760 0.001410 1.021201
H1    H     H_    0.689176 0.903338 0.770982 0.112676
H2    H     H_    0.700480 0.462587 0.711059 0.129982
H3    H     H_    0.947184 0.517458 0.787078 0.140107
H4    H     H_    0.908283 0.487969 0.670984 0.137704
H5    H     H_    0.898232 0.079985 0.805693 0.167788
H6    H     H_    0.826226 0.221321 0.687549 0.144400
H7    H     H_    0.575923 0.231853 0.809591 0.109310
H8    H     H_    0.615634 0.116228 0.694774 0.103451
H9    H     H_    0.276358 0.468975 0.832424 0.133559
H10   H     H_    0.257153 0.458101 0.698958 0.148995
H11   H     H_    0.057778 0.779974 0.804035 0.110002
H12   H     H_    0.536614 0.902708 0.800416 0.142833
H13   H     H_    0.799772 0.456286 0.171159 0.170164
H14   H     H_    0.728189 0.433443 0.291690 0.173915
H15   H     H_    0.544756 0.757171 0.184258 0.114704
H16   H     H_    0.613202 0.755962 0.300934 0.096670
H17   H     H_    0.603222 0.989383 0.198725 0.152589
H18   H     H_    0.506838 0.104618 0.319198 0.160837
H19   H     H_    0.652453 0.245575 0.193992 0.100761
H20   H     H_    0.951911 0.877276 0.213367 0.169698
H21   H     H_    0.487822 0.859498 0.687219 0.156533
H22   H     H_    0.227161 0.587227 0.201461 0.093823
H23   H     H_    0.082034 0.615978 0.332517 0.110889
H24   H     H_    0.631889 0.877129 0.656133 0.110397
H25   H     H_    0.920380 0.689054 0.766583 0.113755
H26   H     H_    0.879822 0.659982 0.650668 0.116834
H27   H     H_    0.733232 0.496714 0.825765 0.145540
H28   H     H_    0.564863 0.652046 0.831893 0.122479
H29   H     H_    0.527783 0.609992 0.714387 0.127605
O1    O     O_R   0.507110 0.256280 0.580300 -0.519804
O2    O     O_R   0.524640 0.695370 0.425100 -0.489115
O3    O     O_R   0.735890 0.504390 0.415980 -0.507702
O4    O     O_R   0.690560 0.277820 0.422350 -0.496354
O5    O     O_3   0.499990 0.499990 0.499980 -0.255521
O6    O     O_R   0.089190 0.825870 0.932320 -0.513276
O7    O     O_R   0.819070 0.053960 0.931440 -0.496563
O8    O     O_R   0.607070 0.076440 0.916460 -0.531242
O9    O     O_R   0.647110 0.806550 0.917690 -0.511005
O10   O     O_R   0.837080 0.593860 0.915300 -0.522400
O11   O     O_R   0.064770 0.636080 0.932550 -0.516224
O12   O     O_R   0.280830 0.527190 0.577940 -0.507500
O13   O     O_R   0.068250 0.829200 0.092940 -0.501381
O14   O     O_R   0.799650 0.057040 0.080330 -0.490129
O15   O     O_R   0.586130 0.079760 0.077080 -0.511062
O16   O     O_R   0.627700 0.809630 0.066580 -0.496743
O17   O     O_R   0.816140 0.597180 0.075920 -0.504154
O18   O     O_R   0.045360 0.639170 0.081440 -0.492599
O19   O     O_3   0.833980 0.833750 0.001700 -0.273635
O20   O     O_R   0.261360 0.738990 0.584270 -0.521485
O21   O     O_R   0.532590 0.694780 0.574370 -0.503857
O22   O     O_R   0.744470 0.503750 0.577000 -0.531119
O23   O     O_R   0.698520 0.277230 0.571620 -0.502693
O24   O     O_R   0.498530 0.256920 0.419280 -0.515136
O25   O     O_R   0.272880 0.527780 0.428680 -0.496124
O26   O     O_R   0.252780 0.739630 0.423250 -0.498472
C41   C     C_R   0.201489 0.804651 0.716770 0.038703
C42   C     C_R   0.112366 0.937114 0.685792 -0.072394
C43   C     C_R   0.114844 0.058210 0.709014 -0.125076
C44   C     C_R   0.195368 0.052353 0.767686 -0.119435
C45   C     C_R   0.278999 0.923949 0.801038 -0.116053
C46   C     C_R   0.287694 0.800521 0.773477 -0.097342
H30   H     H_    0.044316 0.945786 0.641978 0.124189
H31   H     H_    0.053421 0.157307 0.682021 0.100546
H32   H     H_    0.193011 0.147189 0.787217 0.109335
H33   H     H_    0.338853 0.919378 0.847754 0.120760
H34   H     H_    0.356264 0.701919 0.798967 0.108916
C47   C     C_1   0.802370 0.133449 0.302964 0.179049
N1    N     N_1   0.900288 0.130927 0.279374 -0.305971
C48   C     C_1   0.167562 0.874234 0.303923 0.302276
N2    N     N_1   0.220275 0.942817 0.307630 -0.274261

loop_
_geom_bond_atom_site_label_1
_geom_bond_atom_site_label_2
_ccdc_geom_bond_type
C1    O12   A    
C7    C10   D    
C44   H32   S    
Cr2   O5    S    
C40   H25   S    
C46   H34   S    
C1    C11   S    
Cr3   O23   S    
C23   O1    A    
C10   H6    S    
Cr1   O5    S    
C6    H29   S    
Cr5   O8    S    
Cr3   O3    S    
C37   O4    A    
C26   C27   D    
C6    H2    S    
Cr2   O21   S    
C8    C29   S    
C29   O8    A    
C5    H26   S    
Cr4   O7    S    
C36   O2    A    
C33   O16   A    
C20   C47   S    
C13   H11   S    
C45   C46   A    
Cr3   O4    S    
C40   H3    S    
C18   C19   S    
C17   H15   S    
C22   H17   S    
C38   H12   S    
C11   C15   D    
C32   O15   A    
C20   C24   D    
C3    C38   S    
C8    C9    D    
C9    H5    S    
C34   O25   A    
Cr1   O24   S    
C42   H30   S    
C13   C14   D    
C4    C12   S    
C9    C10   S    
C2    H28   S    
C25   C34   S    
Cr6   O10   S    
C14   H9    S    
C24   H18   S    
C31   O11   A    
C21   C22   D    
C2    C6    S    
C17   C33   S    
Cr5   O19   S    
C43   C44   A    
C45   H33   S    
C35   O18   A    
C38   C39   S    
Cr1   O12   S    
C21   C32   S    
C34   O26   A    
Cr2   O20   S    
C4    C6    S    
Cr4   O6    S    
C33   O17   A    
Cr3   O5    S    
C25   C28   D    
C3    C30   S    
C28   C48   S    
C35   O13   A    
C26   C35   S    
C32   O14   A    
Cr6   O19   S    
C4    C39   S    
C1    O20   A    
C17   C18   D    
C38   H1    S    
Cr1   O25   S    
C41   C46   A    
C30   O10   A    
Cr5   O15   S    
C12   O22   A    
C2    H27   S    
C3    C40   S    
C22   C24   S    
C5    H4    S    
Cr5   O9    S    
C25   H23   S    
Cr2   O26   S    
C37   O24   A    
C47   N1    T    
C21   H19   S    
C39   H21   S    
C13   C31   S    
Cr3   O22   S    
C4    C5    S    
C8    H7    S    
C19   H14   S    
C44   C45   A    
C31   O6    A    
C26   H22   S    
C15   H10   S    
C2    C3    S    
C29   O7    A    
C27   H20   S    
C36   O3    A    
C16   C36   S    
Cr1   O1    S    
C20   C37   S    
C43   H31   S    
Cr6   O18   S    
C16   C19   D    
C7    C23   S    
C39   H24   S    
C11   C41   S    
C30   O9    A    
C41   C42   A    
Cr5   O16   S    
Cr4   O19   S    
C18   H13   S    
C23   O23   A    
Cr6   O17   S    
Cr2   O2    S    
C5    C40   S    
C42   C43   A    
C14   C15   S    
C12   O21   A    
C7    H8    S    
Cr6   O11   S    
Cr4   O13   S    
C16   H16   S    
Cr4   O14   S    
C48   N2    T    
C27   C28   S    
