data_mof_unit_5884.cif
_audit_creation_date              2012-12-10T16:50:05-0500
_audit_creation_method            fapswitch 2.2
_symmetry_space_group_name_H-M    P1
_symmetry_Int_Tables_number       1
_space_group_crystal_system       triclinic
_cell_length_a                    7.786876
_cell_length_b                    8.567076
_cell_length_c                    10.607449
_cell_angle_alpha                 90.995194
_cell_angle_beta                  85.706083
_cell_angle_gamma                 93.730053
_cell_volume                      704.094357733

loop_
_atom_site_label
_atom_site_type_symbol
_atom_type_description
_atom_site_fract_x
_atom_site_fract_y
_atom_site_fract_z
_atom_type_partial_charge
C1    C     C_R   0.545788 0.794676 0.496849 0.917412
C2    C     C_R   0.457555 0.649362 0.938222 0.010414
C3    C     C_R   0.507849 0.513941 0.871335 -0.239204
C4    C     C_R   0.557782 0.382670 0.931205 0.606169
C5    C     C_R   0.552198 0.381584 0.060195 -0.302829
C6    C     C_R   0.497558 0.511477 0.128616 -0.178159
C7    C     C_2   0.569785 0.958258 0.495041 -0.351619
C8    C     C_2   0.430199 0.041707 0.505220 -0.386571
C9    C     C_R   0.502508 0.503967 0.739218 0.945542
C10   C     C_R   0.454222 0.205315 0.503289 0.988431
C11   C     C_R   0.498763 0.502859 0.260734 0.888307
C12   C     C_R   0.416604 0.786113 0.876819 -0.136180
C13   C     C_R   0.370344 0.918273 0.946744 -0.058262
C14   C     C_R   0.365800 0.917204 0.078131 -0.142622
C15   C     C_R   0.406852 0.783728 0.140022 -0.155895
C16   C     C_R   0.452289 0.648109 0.070478 0.101383
H1    H     H_    0.986700 0.617972 0.594587 0.196119
H2    H     H_    0.422207 0.793022 0.774901 0.141512
H3    H     H_    0.339218 0.022162 0.898792 0.173011
H4    H     H_    0.331487 0.020394 0.132232 0.135432
H5    H     H_    0.404321 0.788662 0.242003 0.146778
H6    H     H_    0.588732 0.278622 0.107265 0.171391
H7    H     H_    0.701562 0.009461 0.485308 0.187768
H8    H     H_    0.298423 0.990486 0.514955 0.180180
H9    H     H_    0.013317 0.382048 0.405407 0.193154
N1    N     N_2   0.950330 0.457950 0.466250 -0.167185
N2    N     N_2   0.049670 0.542050 0.533750 -0.166900
O1    O     O_R   0.389250 0.738570 0.508280 -0.628613
O2    O     O_R   0.678390 0.711630 0.486650 -0.630002
O3    O     O_R   0.355400 0.513470 0.694050 -0.622607
O4    O     O_R   0.644540 0.486530 0.672420 -0.587572
O5    O     O_R   0.321610 0.288370 0.513350 -0.628700
O6    O     O_R   0.610750 0.261430 0.491720 -0.602890
O7    O     O_R   0.355460 0.513470 0.327580 -0.631361
O8    O     O_R   0.644600 0.486530 0.305950 -0.611496
Zn1   Zn    Zn3+2 0.306930 0.517990 0.514440 0.948799
Zn2   Zn    Zn3+2 0.693070 0.482010 0.485560 0.972951
F1    F     F_    0.606998 0.254137 0.864442 -0.676089

loop_
_geom_bond_atom_site_label_1
_geom_bond_atom_site_label_2
_ccdc_geom_bond_type
C1    O1    A    
N1    Zn2   S    
C3    C9    S    
C10   O5    A    
N2    Zn1   S    
C2    C16   A    
O3    Zn1   S    
C2    C12   A    
C1    O2    A    
C2    C3    A    
C7    C8    D    
C13   C14   A    
N1    N2    D    
C9    O3    A    
C7    H7    S    
O5    Zn1   S    
C11   O8    A    
O8    Zn2   S    
C4    F1    S    
C10   O6    A    
O7    Zn1   S    
C5    C6    A    
C13   H3    S    
C12   H2    S    
C15   C16   A    
H1    N2    S    
C14   H4    S    
C15   H5    S    
C12   C13   A    
O1    Zn1   S    
C8    C10   S    
O2    Zn2   S    
C6    C11   S    
C9    O4    A    
C14   C15   A    
C8    H8    S    
H9    N1    S    
C1    C7    S    
C6    C16   A    
C11   O7    A    
O6    Zn2   S    
C5    H6    S    
C3    C4    A    
O4    Zn2   S    
C4    C5    A    
