data_mof_unit_50290.cif
_audit_creation_date              2012-12-10T18:22:26-0500
_audit_creation_method            fapswitch 2.2
_symmetry_space_group_name_H-M    P1
_symmetry_Int_Tables_number       1
_space_group_crystal_system       triclinic
_cell_length_a                    23.451678
_cell_length_b                    10.723743
_cell_length_c                    9.540935
_cell_angle_alpha                 89.647253
_cell_angle_beta                  91.55593
_cell_angle_gamma                 89.68472
_cell_volume                      2398.47880155

loop_
_atom_site_label
_atom_site_type_symbol
_atom_type_description
_atom_site_fract_x
_atom_site_fract_y
_atom_site_fract_z
_atom_type_partial_charge
C1    C     C_R   0.497129 0.260313 0.499958 0.825130
C2    C     C_R   0.502869 0.739688 0.500041 0.825089
C3    C     C_R   0.239763 0.594594 0.543097 0.416777
C4    C     C_R   0.760275 0.405610 0.457004 0.416910
C5    C     C_R   0.299020 0.594961 0.544377 -0.234599
C6    C     C_R   0.701015 0.405151 0.455688 -0.234620
C7    C     C_R   0.329265 0.492200 0.495355 -0.124471
C8    C     C_R   0.670733 0.507880 0.504659 -0.124460
C9    C     C_R   0.300096 0.384279 0.448931 0.082230
C10   C     C_R   0.699864 0.615854 0.551070 0.082301
C11   C     C_R   0.239807 0.384480 0.446978 0.406097
C12   C     C_R   0.760152 0.615748 0.553057 0.405985
C13   C     C_R   0.209978 0.489936 0.493748 0.128849
C14   C     C_R   0.790020 0.510328 0.506338 0.128781
C15   C     C_3   0.549258 0.047909 0.545055 0.025399
C16   C     C_3   0.450740 0.952095 0.454940 0.025396
C17   C     C_3   0.541709 0.964521 0.414785 0.363463
C18   C     C_3   0.458289 0.035484 0.585210 0.363472
C19   C     C_3   0.504005 0.876302 0.500329 -0.191273
C20   C     C_3   0.495993 0.123701 0.499667 -0.191254
C21   C     C_3   0.511735 0.959670 0.630563 0.080487
C22   C     C_3   0.488263 0.040334 0.369434 0.080501
C23   C     C_R   0.391519 0.498080 0.498515 0.835646
C24   C     C_R   0.608480 0.501916 0.501487 0.835662
C25   C     C_3   0.516053 0.605990 0.049681 -0.057568
C26   C     C_3   0.483947 0.394010 0.950318 -0.057568
C27   C     C_3   0.466071 0.584309 0.946359 0.390286
C28   C     C_3   0.533929 0.415691 0.053640 0.390281
C29   C     C_3   0.550150 0.521543 0.954382 0.393990
C30   C     C_3   0.449850 0.478457 0.045617 0.394002
C31   C     C_R   0.877737 0.550013 0.388875 0.672121
C32   C     C_R   0.122270 0.450408 0.611310 0.672164
C33   C     C_R   0.880855 0.468722 0.621893 0.687135
C34   C     C_R   0.119141 0.531764 0.378316 0.687064
C35   C     C_R   0.941201 0.463902 0.623789 -0.132654
C36   C     C_R   0.058798 0.536778 0.376515 -0.132697
C37   C     C_R   0.969817 0.503629 0.501900 -0.075881
C38   C     C_R   0.030187 0.497038 0.498416 -0.075833
C39   C     C_R   0.938042 0.552833 0.384856 -0.058029
C40   C     C_R   0.061962 0.447814 0.615462 -0.057989
C41   C     C_R   0.973418 0.417995 0.741492 0.422753
C42   C     C_R   0.026580 0.582920 0.258919 0.422680
C43   C     C_R   0.032755 0.399665 0.732866 0.054127
C44   C     C_R   0.967244 0.601218 0.267586 0.054324
Cu1   Cu    Cu3+1 0.500010 0.499990 0.643150 1.030709
Cu2   Cu    Cu3+1 0.499990 0.500010 0.356850 1.030717
H1    H     H_    0.321633 0.675827 0.583681 0.207464
H2    H     H_    0.678432 0.324236 0.416409 0.207437
N1    N     N_R   0.851272 0.510642 0.506180 -0.444847
N2    N     N_R   0.148727 0.489724 0.493969 -0.444812
N3    N     N_3   0.500040 0.499970 0.858290 -0.255435
N4    N     N_3   0.499960 0.500030 0.141710 -0.255434
O1    O     O_R   0.500030 0.316850 0.620870 -0.588579
O2    O     O_R   0.499970 0.683150 0.379130 -0.588575
O3    O     O_R   0.500000 0.316860 0.379090 -0.543885
O4    O     O_R   0.500000 0.683140 0.620910 -0.543883
O5    O     O_R   0.417890 0.499960 0.620920 -0.535609
O6    O     O_R   0.582110 0.500040 0.379080 -0.535603
O7    O     O_R   0.417870 0.499970 0.379140 -0.533726
O8    O     O_R   0.582130 0.500030 0.620860 -0.533727
O9    O     O_2   0.845065 0.582031 0.275746 -0.476840
O10   O     O_2   0.154964 0.418191 0.724331 -0.477097
O11   O     O_2   0.851092 0.428605 0.732099 -0.404642
O12   O     O_2   0.148904 0.571773 0.268061 -0.404735
Cl1   Cl    Cl    0.941841 0.391758 0.906628 -0.477146
Cl2   Cl    Cl    0.058146 0.609633 0.093867 -0.477054
Cl3   Cl    Cl    0.415236 0.692635 0.874167 -0.504326
Cl4   Cl    Cl    0.584764 0.307365 0.125833 -0.504301
C45   C     C_3   0.538403 0.728961 0.103772 -0.568272
H3    H     H_    0.557739 0.782045 0.017593 0.229492
H4    H     H_    0.503055 0.784966 0.146213 0.236378
H5    H     H_    0.572017 0.709568 0.184923 0.286103
C46   C     C_3   0.461597 0.271040 0.896227 -0.568278
H6    H     H_    0.442260 0.217955 0.982406 0.229492
H7    H     H_    0.427983 0.290434 0.815076 0.286107
H8    H     H_    0.496944 0.215034 0.853785 0.236375
Cl5   Cl    Cl    0.621260 0.549588 0.902205 -0.508719
Cl6   Cl    Cl    0.378740 0.450412 0.097793 -0.508763
C47   C     C_3   0.063567 0.322112 0.845712 -0.529729
H9    H     H_    0.034627 0.265115 0.909357 0.248445
H10   H     H_    0.091844 0.252435 0.796651 0.244279
H11   H     H_    0.088422 0.383284 0.917814 0.294651
C48   C     C_3   0.936434 0.679071 0.155001 -0.529742
H12   H     H_    0.965382 0.736496 0.091844 0.248396
H13   H     H_    0.911700 0.618078 0.082455 0.294691
H14   H     H_    0.908035 0.748389 0.204259 0.244188
Cl7   Cl    Cl    0.203345 0.726576 0.604070 -0.437616
Cl8   Cl    Cl    0.796743 0.273669 0.396104 -0.437609
C49   C     C_3   0.333727 0.269577 0.409251 -0.664837
H15   H     H_    0.357999 0.288029 0.313721 0.253532
H16   H     H_    0.364418 0.245248 0.495450 0.220318
H17   H     H_    0.306946 0.186551 0.389694 0.279178
C50   C     C_3   0.666193 0.730507 0.590726 -0.664812
H18   H     H_    0.641949 0.712045 0.686298 0.253537
H19   H     H_    0.692943 0.813595 0.610200 0.279138
H20   H     H_    0.635476 0.754743 0.504552 0.220237
Cl9   Cl    Cl    0.200177 0.254725 0.386704 -0.493955
Cl10  Cl    Cl    0.799732 0.745575 0.613329 -0.494051
Cl11  Cl    Cl    0.600070 0.932525 0.304845 -0.590119
Cl12  Cl    Cl    0.399927 0.067491 0.695139 -0.590118
C51   C     C_3   0.605651 0.102767 0.597307 -0.662808
H21   H     H_    0.598640 0.160570 0.691444 0.237178
H22   H     H_    0.636130 0.026394 0.624670 0.253943
H23   H     H_    0.623638 0.161683 0.513799 0.245107
C52   C     C_3   0.394345 0.897249 0.402684 -0.662801
H24   H     H_    0.363870 0.973629 0.375316 0.253958
H25   H     H_    0.401356 0.839441 0.308550 0.237180
H26   H     H_    0.376355 0.838343 0.486193 0.245103
C53   C     C_3   0.528107 0.920472 0.779561 -0.709405
H27   H     H_    0.537894 0.003901 0.843768 0.235315
H28   H     H_    0.492344 0.870667 0.826834 0.289205
H29   H     H_    0.566296 0.859063 0.778501 0.229352
C54   C     C_3   0.471889 0.079537 0.220438 -0.709408
H30   H     H_    0.462100 0.996111 0.156229 0.235316
H31   H     H_    0.433700 0.140948 0.221504 0.229362
H32   H     H_    0.507651 0.129342 0.173164 0.289204

loop_
_geom_bond_atom_site_label_1
_geom_bond_atom_site_label_2
_ccdc_geom_bond_type
Cu1   O8    S    
C50   H18   S    
Cu2   O7    S    
C18   C21   S    
C41   C43   A    
C46   H6    S    
C31   O9    S    
C36   C42   A    
C44   C48   S    
Cu1   Cu2   S    
C23   O7    A    
C52   H25   S    
Cu1   O5    S    
C51   H21   S    
C18   Cl12  S    
C28   C29   S    
C28   Cl4   S    
C53   H28   S    
C33   C35   A    
C14   N1    S    
Cu1   N3    S    
C33   N1    A    
Cu2   N4    S    
C26   C46   S    
C18   C20   S    
C23   O5    A    
C45   H4    S    
C1    O1    A    
C8    C24   S    
C22   C54   S    
Cu1   O4    S    
Cu2   O3    S    
C49   H16   S    
C12   Cl10  S    
C3    C13   A    
C33   O11   S    
C54   H32   S    
Cu1   O1    S    
C50   H19   S    
Cu2   O6    S    
C27   C30   S    
C46   H7    S    
C42   C44   A    
C31   N1    A    
C27   N3    S    
C40   C43   A    
C25   C29   S    
C15   C20   S    
C52   H26   S    
C34   N2    A    
C3    Cl7   S    
C4    C6    A    
C2    O2    A    
C53   H29   S    
C9    C49   S    
C47   H10   S    
C41   Cl1   S    
C10   C50   S    
C17   Cl11  S    
C47   H9    S    
C45   H5    S    
C37   C38   A    
C5    H1    S    
C21   C53   S    
C48   H12   S    
C24   O8    A    
Cu2   O2    S    
C34   O12   S    
C15   C51   S    
C49   H17   S    
C9    C11   A    
C32   N2    A    
C6    H2    S    
C10   C12   A    
C16   C52   S    
C24   O6    A    
C48   H13   S    
C12   C14   A    
C50   H20   S    
C26   C30   S    
C51   H23   S    
C28   N4    S    
C46   H8    S    
C25   C45   S    
C35   C37   A    
C5    C7    A    
C54   H30   S    
C29   N3    S    
C15   C17   S    
C30   N4    S    
C1    C20   S    
C16   C22   S    
C19   C21   S    
C2    C19   S    
C8    C10   A    
C20   C22   S    
C3    C5    A    
C47   H11   S    
C6    C8    A    
C39   C44   A    
C4    Cl8   S    
C25   C27   S    
C52   H24   S    
C26   C28   S    
C17   C22   S    
C51   H22   S    
C11   Cl9   S    
C36   C38   A    
C1    O3    A    
C25   N4    S    
C32   O10   S    
C37   C39   A    
C2    O4    A    
C26   N3    S    
C38   C40   A    
C11   C13   A    
C16   C19   S    
C7    C23   S    
C17   C19   S    
C31   C39   A    
C34   C36   A    
C32   C40   A    
C4    C14   A    
C45   H3    S    
C35   C41   A    
C27   Cl3   S    
C13   N2    S    
C30   Cl6   S    
C7    C9    A    
C15   C21   S    
C48   H14   S    
C29   Cl5   S    
C16   C18   S    
C42   Cl2   S    
C49   H15   S    
C53   H27   S    
C43   C47   S    
C54   H31   S    
