data_mof_unit_35334.cif
_audit_creation_date              2013-03-05T16:00:51-0500
_audit_creation_method            fapswitch 2.2
_symmetry_space_group_name_H-M    P1
_symmetry_Int_Tables_number       1
_space_group_crystal_system       triclinic
_cell_length_a                    8.24146
_cell_length_b                    12.712662
_cell_length_c                    18.780505
_cell_angle_alpha                 99.555313
_cell_angle_beta                  91.411864
_cell_angle_gamma                 98.346113
_cell_volume                      1917.40469909

loop_
_atom_site_label
_atom_site_type_symbol
_atom_site_description
_atom_site_fract_x
_atom_site_fract_y
_atom_site_fract_z
_atom_type_partial_charge
P1    P     P_3+3 0.041040 0.394770 0.336330 0.468587
O1    O     O_2   0.873090 0.425890 0.325140 -0.364282
O2    O     O_3   0.122420 0.434370 0.414380 -0.404941
O3    O     O_3   0.659500 0.627100 0.368810 -0.362484
O4    O     O_2   0.769064 0.544731 0.243171 -0.405523
O5    O     O_3   0.002855 0.254587 0.317443 -0.561923
O6    O     O_3   0.700002 0.740148 0.253599 -0.525929
H1    H     H_    0.704022 0.866302 0.338180 0.114456
C1    C     C_3   0.553916 0.887774 0.247294 -1.056007
H2    H     H_    0.486540 0.947242 0.279586 0.254441
H3    H     H_    0.657373 0.931588 0.222135 0.271859
P2    P     P_3+3 0.672880 0.754030 0.556100 0.440294
P3    P     P_3+3 0.127917 0.822794 0.403575 0.442410
O7    O     O_2   0.848200 0.768190 0.534530 -0.368386
O8    O     O_3   0.081160 0.685950 0.404810 -0.387044
O9    O     O_2   0.000645 0.878813 0.448836 -0.373558
O10   O     O_3   0.691916 0.793253 0.650227 -0.578219
O11   O     O_3   0.088832 0.844042 0.315756 -0.556826
C2    C     C_3   0.122964 0.755891 0.265912 0.478409
H4    H     H_    0.036734 0.681959 0.270365 0.161135
H5    H     H_    0.250684 0.741209 0.274328 0.021899
C3    C     C_3   0.101269 0.780681 0.190044 -0.999730
H6    H     H_    0.970936 0.787461 0.178198 0.287158
H7    H     H_    0.178827 0.857980 0.185190 0.263726
C4    C     C_3   0.246483 0.783296 0.617751 0.395549
H8    H     H_    0.374476 0.768535 0.614090 0.098958
H9    H     H_    0.173904 0.744498 0.567174 0.135938
C5    C     C_3   0.242657 0.903569 0.626476 -0.921298
H10   H     H_    0.285402 0.942043 0.681979 0.250758
H11   H     H_    0.323251 0.941028 0.588518 0.225117
H12   H     H_    0.115703 0.918074 0.616246 0.272205
Ba1   Ba    Ba6+2 0.852780 0.548340 0.465070 1.535620
C6    C     C_3   0.949030 0.212927 0.378263 0.412095
H13   H     H_    0.848701 0.254089 0.401762 0.070558
H14   H     H_    0.052029 0.223123 0.419060 0.115344
C7    C     C_3   0.885768 0.092947 0.354662 -0.655910
H15   H     H_    0.756374 0.083263 0.333679 0.224837
H16   H     H_    0.889482 0.049830 0.401368 0.204949
C8    C     C_3   0.726562 0.707212 0.682750 0.411780
H17   H     H_    0.842760 0.681767 0.663445 0.092115
H18   H     H_    0.625275 0.638108 0.671061 0.121434
C9    C     C_3   0.744687 0.744949 0.764178 -0.982348
H19   H     H_    0.851008 0.810410 0.777847 0.280095
H20   H     H_    0.764826 0.677396 0.792028 0.199989
H21   H     H_    0.631427 0.775482 0.783947 0.275711
P4    P     P_3+3 0.148670 0.605320 0.663680 0.468991
O12   O     O_2   0.316610 0.574140 0.674900 -0.368016
O13   O     O_3   0.067290 0.565720 0.585630 -0.405802
O14   O     O_3   0.530210 0.372990 0.631200 -0.394474
O15   O     O_3   0.183089 0.746385 0.679051 -0.576766
P5    P     P_3+3 0.064744 0.173152 0.592772 0.466594
O16   O     O_3   0.611340 0.366290 0.463630 -0.401574
O17   O     O_3   0.108550 0.314140 0.595200 -0.332942
O18   O     O_2   0.175515 0.121202 0.536690 -0.372512
O19   O     O_3   0.141902 0.138997 0.672496 -0.567344
Ba2   Ba    Ba6+2 0.337060 0.451750 0.534940 1.558620
P6    P     P_3+3 0.638332 0.612066 0.275248 0.440561
C10   C     C_3   0.616902 0.816014 0.295614 0.452800
H22   H     H_    0.510461 0.779891 0.323166 0.042381
H23   H     H_    0.469788 0.837571 0.203601 0.273139
O20   O     O_3   0.578370 0.633800 0.536380 -0.412992
C11   C     C_3   0.454596 0.274899 0.314331 0.433422
H24   H     H_    0.350096 0.307891 0.341362 0.105450
H25   H     H_    0.561334 0.340061 0.317455 0.114668
C12   C     C_3   0.402369 0.232696 0.235256 -1.016917
H26   H     H_    0.286491 0.174776 0.231227 0.277870
H27   H     H_    0.382279 0.300427 0.207349 0.223643
H28   H     H_    0.498980 0.190938 0.207852 0.264878
P7    P     P_3+3 0.520731 0.230148 0.439571 0.407048
O21   O     O_2   0.341510 0.231850 0.465510 -0.363982
O22   O     O_3   0.498293 0.189726 0.345735 -0.591834
H29   H     H_    0.137690 0.715540 0.149714 0.230979
C13   C     C_3   0.028275 0.145688 0.727235 0.913614
H30   H     H_    0.907680 0.161382 0.708431 -0.109287
C14   C     C_3   0.998043 0.037381 0.754041 -0.991446
H31   H     H_    0.115129 0.015022 0.772595 0.259632
H32   H     H_    0.915750 0.041601 0.799810 0.291915
H33   H     H_    0.938643 0.973178 0.710043 0.235046
P8    P     P_3+3 0.549815 0.393703 0.725811 0.505606
C15   C     C_3   0.545604 0.189042 0.713777 0.319683
H34   H     H_    0.674781 0.214477 0.701854 0.009059
O23   O     O_2   0.427176 0.468381 0.756058 -0.339163
O24   O     O_3   0.477175 0.272729 0.754856 -0.455026
H35   H     H_    0.473637 0.161493 0.661475 0.098940
C16   C     C_3   0.536450 0.094550 0.755234 -0.127908
H36   H     H_    0.576960 0.024405 0.720515 0.076661
H37   H     H_    0.406970 0.072250 0.768327 0.147898
C17   C     C_R   0.987743 0.461644 0.048508 0.047063
C18   C     C_R   0.898234 0.395683 0.091581 -0.210426
C19   C     C_R   0.756457 0.441316 0.957780 -0.160262
C20   C     C_R   0.923781 0.474182 0.979769 0.059081
C21   C     C_R   0.699880 0.440786 0.887351 -0.050074
C22   C     C_R   0.807982 0.472567 0.835754 -0.013813
C23   C     C_R   0.970563 0.520922 0.859026 0.051826
C24   C     C_R   0.028607 0.522515 0.931615 0.065277
C25   C     C_R   0.760481 0.454463 0.761355 0.098122
C26   C     C_R   0.877008 0.482297 0.711582 -0.298910
C27   C     C_R   0.026050 0.547318 0.734561 0.282054
C28   C     C_R   0.075360 0.566285 0.809426 -0.023971
C29   C     C_R   0.150040 0.508533 0.072445 0.038277
C30   C     C_R   0.209617 0.501727 0.143793 -0.027258
C31   C     C_R   0.107840 0.445967 0.190682 -0.046702
C32   C     C_R   0.957704 0.384266 0.159841 0.110072
H38   H     H_    0.571508 0.411081 0.873578 0.191401
C33   C     C_R   0.228248 0.624566 0.836045 -0.050651
C34   C     C_R   0.285941 0.625574 0.906718 -0.186898
C35   C     C_R   0.191638 0.570011 0.954882 0.053476
C36   C     C_R   0.253205 0.562131 0.025496 0.061561
C37   C     C_R   0.417247 0.601956 0.049843 -0.205541
C38   C     C_R   0.372359 0.549502 0.167526 -0.006683
C39   C     C_R   0.474959 0.595562 0.118826 -0.154968
C40   C     C_R   0.428325 0.550344 0.239297 0.170034
C41   C     C_R   0.321265 0.507543 0.287334 -0.541088
C42   C     C_R   0.163494 0.453529 0.264997 0.260398
H39   H     H_    0.308006 0.667340 0.802076 0.156663
H40   H     H_    0.602355 0.627503 0.133020 0.185241
H41   H     H_    0.364256 0.512885 0.342916 0.182944
H42   H     H_    0.665755 0.415677 0.994334 0.137057
H43   H     H_    0.783435 0.346040 0.071552 0.136242
H44   H     H_    0.406117 0.670889 0.921799 0.126644
H45   H     H_    0.506307 0.637575 0.016385 0.133119
C43   C     C_R   0.763876 0.179702 0.525413 -0.496300
C44   C     C_R   0.428943 0.807046 0.469687 -0.526561
C45   C     C_R   0.400867 0.983335 0.444249 -0.217445
C46   C     C_R   0.337474 0.875146 0.440684 0.217874
C47   C     C_R   0.577254 0.847959 0.509069 0.289284
C48   C     C_R   0.640166 0.959875 0.516624 -0.053441
C49   C     C_R   0.551642 0.027455 0.482092 -0.067163
C50   C     C_R   0.615676 0.137814 0.487241 0.272192
C51   C     C_R   0.852524 0.115379 0.558972 0.162600
C52   C     C_R   0.789593 0.006316 0.556114 -0.207144
H46   H     H_    0.328381 0.032154 0.418717 0.186313
H47   H     H_    0.861198 0.958790 0.582814 0.169230
H48   H     H_    0.817329 0.261876 0.523897 0.152139
H49   H     H_    0.379033 0.722567 0.465477 0.176868
N1    N     N_3   0.984089 0.046820 0.297367 -0.145151
H50   H     H_    0.926451 0.968951 0.276249 0.200953
H51   H     H_    0.099480 0.042355 0.320082 0.195961
N2    N     N_R   0.094713 0.233822 0.785578 0.258310
O25   O     O_R   0.123291 0.331449 0.771944 -0.369522
O26   O     O_R   0.130653 0.216697 0.850186 -0.356955
N3    N     N_R   0.636269 0.120455 0.823049 0.274776
O27   O     O_R   0.737477 0.210323 0.839970 -0.379306
O28   O     O_R   0.627410 0.050373 0.866530 -0.374542
N4    N     N_3   0.849901 0.440132 0.636467 -0.137226
H52   H     H_    0.767386 0.481137 0.613198 0.162828
H53   H     H_    0.812539 0.357254 0.630526 0.122444
N5    N     N_3   0.867669 0.303413 0.194134 -0.149792
H54   H     H_    0.864445 0.228541 0.160746 0.119232
H55   H     H_    0.746973 0.319174 0.198503 0.136104

loop_
_geom_bond_atom_site_label_1
_geom_bond_atom_site_label_2
_geom_bond_distance
_ccdc_geom_bond_type
C22   C23   1.416716 A    
C13   C14   1.532317 S    
C13   H30   1.102716 S    
C2    H4    1.109282 S    
C15   H35   1.111782 S    
C49   C50   1.411969 A    
C26   C27   1.392471 A    
O8    Ba1   2.773109 S    
C8    H18   1.109418 S    
C16   H36   1.111720 S    
C4    C5    1.515496 S    
C30   C31   1.432665 A    
P3    O11   1.744670 S    
C19   H42   1.079414 S    
C5    H10   1.101129 S    
C2    H5    1.107441 S    
N5    H55   1.045351 S    
Ba1   O20   2.909967 S    
O11   C2    1.402651 S    
C37   C39   1.388184 A    
C44   C46   1.392917 A    
P6    C40   1.854557 S    
P2    C47   1.848278 S    
C34   C35   1.417224 A    
C6    C7    1.525785 S    
C36   C37   1.409656 A    
C45   H46   1.079020 S    
O1    Ba1   2.845440 S    
P1    O1    1.512877 D    
O10   C8    1.398180 S    
P7    O22   1.749184 S    
C4    O15   1.398690 S    
C43   H48   1.078450 S    
C11   H25   1.110517 S    
O16   P7    1.762317 S    
H1    C10   1.109982 S    
C38   C39   1.402337 A    
Ba1   O16   2.820631 S    
C18   H43   1.079451 S    
C12   H27   1.109248 S    
O3    P6    1.737303 S    
C35   C36   1.432452 A    
C39   H40   1.079263 S    
C1    H2    1.110817 S    
C43   C50   1.389447 A    
P5    O19   1.756073 S    
C45   C49   1.409107 A    
P3    C46   1.834219 S    
P4    C27   1.874256 S    
P2    Ba1   3.424132 S    
Ba1   Ba2   4.567133 S    
Ba1   O13   2.797137 S    
C31   C32   1.419097 A    
C9    H20   1.106724 S    
C15   O24   1.402919 S    
C7    N1    1.459356 S    
C3    H29   1.106655 S    
C40   C41   1.396885 A    
N4    H53   1.040407 S    
P5    C51   1.849043 S    
C32   N5    1.429617 S    
N4    H52   1.043582 S    
C8    C9    1.521665 S    
C38   C40   1.411678 A    
C16   H37   1.108062 S    
C28   C33   1.400533 A    
P4    O13   1.568573 S    
C29   C36   1.425776 A    
P1    O5    1.738552 S    
C2    C3    1.521293 S    
N5    H54   1.045733 S    
N1    H51   1.045616 S    
C8    H17   1.105107 S    
N1    H50   1.042464 S    
C44   C47   1.398124 A    
C13   N2    1.463043 S    
C4    H8    1.099731 S    
P1    Ba1   3.400224 S    
O14   P8    1.752362 S    
C44   H49   1.082019 S    
P1    O2    1.568573 S    
C9    H21   1.110951 S    
P2    O10   1.751911 S    
C14   H31   1.108737 S    
C23   C24   1.429547 A    
C15   C16   1.530338 S    
C31   C42   1.441753 A    
C1    H3    1.108981 S    
O2    Ba2   2.797781 S    
C19   C21   1.390215 A    
C17   C20   1.424444 A    
C12   H28   1.110331 S    
C25   C26   1.405930 A    
C11   H24   1.109528 S    
C6    H13   1.104177 S    
O2    Ba1   2.919725 S    
Ba2   O20   2.820002 S    
C17   C29   1.412950 A    
C14   H32   1.107100 S    
O3    Ba1   2.780302 S    
C24   C35   1.417312 A    
C41   H41   1.082136 S    
P2    O7    1.503916 D    
C12   H26   1.110733 S    
C22   C25   1.413738 A    
Ba2   O21   2.887631 S    
P3    O8    1.730504 S    
C3    H7    1.110320 S    
C10   H22   1.110163 S    
P1    C42   1.884459 S    
C48   C49   1.426383 A    
C41   C42   1.398739 A    
O17   Ba2   2.773751 S    
O13   Ba2   2.920626 S    
P4    O12   1.513208 D    
C7    H15   1.110277 S    
O6    C10   1.409809 S    
C11   C12   1.521667 S    
C34   H44   1.076753 S    
N3    O27   1.300651 A    
C26   N4    1.423370 S    
C33   H39   1.080197 S    
C5    H12   1.106113 S    
O7    Ba1   2.887402 S    
C15   H34   1.106320 S    
C52   H47   1.074360 S    
C16   N3    1.462114 S    
P8    O23   1.540562 D    
N2    O25   1.298067 A    
C4    H9    1.110910 S    
O14   Ba2   2.779651 S    
C33   C34   1.396209 A    
P4    O15   1.748191 S    
O5    C6    1.392672 S    
O4    P6    1.544354 D    
C1    H23   1.109510 S    
P5    O18   1.539603 D    
C5    H11   1.104690 S    
C51   C52   1.399774 A    
C30   C38   1.417965 A    
P8    C25   1.854451 S    
P8    O24   1.745974 S    
P2    O20   1.591299 S    
N2    O26   1.302341 A    
C37   H45   1.076711 S    
C19   C20   1.412132 A    
C23   C28   1.421133 A    
C47   C48   1.424214 A    
C7    H16   1.110859 S    
C21   C22   1.401437 A    
C6    H14   1.107907 S    
O6    P6    1.750594 S    
C11   O22   1.401676 S    
N3    O28   1.300572 A    
P7    O21   1.568651 D    
C14   H33   1.108493 S    
C48   C52   1.419059 A    
C21   H38   1.080242 S    
C20   C24   1.417972 A    
O19   C13   1.408025 S    
C17   C18   1.405961 A    
C1    C10   1.521287 S    
P7    C50   1.836473 S    
C27   C28   1.425112 A    
C9    H19   1.110191 S    
P3    O9    1.545867 D    
P4    Ba2   3.400821 S    
C3    H6    1.110034 S    
C45   C46   1.388595 A    
C29   C30   1.436115 A    
P5    O17   1.768915 S    
C43   C51   1.386175 A    
C18   C32   1.398621 A    
O16   Ba2   2.909064 S    
O12   Ba2   2.845789 S    
