data_mof_unit_14925.cif
_audit_creation_date              2012-10-26T21:00:42-0400
_audit_creation_method            fapswitch 2.2
_symmetry_space_group_name_H-M    P1
_symmetry_Int_Tables_number       1
_space_group_crystal_system       triclinic
_cell_length_a                    10.824693
_cell_length_b                    9.656375
_cell_length_c                    10.737759
_cell_angle_alpha                 89.806241
_cell_angle_beta                  92.068807
_cell_angle_gamma                 90.002612
_cell_volume                      1121.65090584

loop_
_atom_site_label
_atom_site_type_symbol
_atom_type_description
_atom_site_fract_x
_atom_site_fract_y
_atom_site_fract_z
_atom_type_partial_charge
C1    C     C_R   0.262515 0.500076 0.500686 0.520908
C2    C     C_R   0.496810 0.499946 0.737020 0.531631
C3    C     C_R   0.291368 0.630861 0.122067 -0.121055
C4    C     C_R   0.291393 0.630165 0.862073 -0.105471
C5    C     C_R   0.195332 0.694110 0.053067 -0.128358
C6    C     C_R   0.195308 0.693697 0.923473 -0.124403
C7    C     C_R   0.390628 0.567044 0.930147 0.026751
C8    C     C_R   0.390566 0.567425 0.061775 0.022094
C9    C     C_R   0.488260 0.500503 0.128982 -0.000931
C10   C     C_R   0.488590 0.499980 0.870744 0.000853
C11   C     C_R   0.581204 0.431207 0.067979 -0.159560
C12   C     C_R   0.737503 0.500095 0.499275 0.540431
C13   C     C_R   0.581717 0.431666 0.939786 -0.167802
C14   C     C_R   0.063892 0.375023 0.502051 -0.142803
C15   C     C_R   0.936199 0.375047 0.498482 -0.147115
C16   C     C_R   0.871592 0.500573 0.498922 0.016777
C17   C     C_R   0.128497 0.500545 0.501351 0.014197
C18   C     C_3   0.395159 0.126194 0.276206 -0.225603
C19   C     C_3   0.269705 0.198093 0.280969 -0.384150
C20   C     C_3   0.608126 0.124113 0.722080 -0.228566
C21   C     C_3   0.736100 0.189228 0.713974 -0.399051
C22   C     C_R   0.936115 0.626447 0.499941 -0.140634
C23   C     C_R   0.064035 0.626434 0.500424 -0.149295
C24   C     C_R   0.445780 0.070090 0.401404 0.121425
C25   C     C_R   0.554357 0.069141 0.598359 0.124296
C26   C     C_R   0.441966 0.923131 0.407225 0.012421
C27   C     C_R   0.557865 0.922326 0.592746 0.013514
C28   C     C_R   0.496103 0.500259 0.262952 0.531202
Cu1   Cu    Cu3+1 0.500000 0.640660 0.500000 0.913252
Cu2   Cu    Cu3+1 0.500000 0.359340 0.500000 0.921677
H1    H     H_    0.655399 0.379249 0.120129 0.122072
H2    H     H_    0.112079 0.724819 0.500308 0.127037
H3    H     H_    0.395751 0.863400 0.334256 0.119409
H4    H     H_    0.604396 0.862018 0.665490 0.124372
H5    H     H_    0.215816 0.155775 0.358259 0.137139
H6    H     H_    0.279750 0.311525 0.288530 0.185169
H7    H     H_    0.215635 0.179503 0.192650 0.111219
H8    H     H_    0.464873 0.182712 0.223837 0.169714
H9    H     H_    0.378623 0.038926 0.210221 0.083869
H10   H     H_    0.787519 0.142056 0.637334 0.139484
H11   H     H_    0.729881 0.302564 0.702972 0.182449
H12   H     H_    0.656983 0.381207 0.894540 0.110397
H13   H     H_    0.790326 0.170725 0.802330 0.106477
H14   H     H_    0.541607 0.183896 0.775029 0.172043
H15   H     H_    0.622227 0.036863 0.789095 0.081436
H16   H     H_    0.285885 0.630519 0.222416 0.124097
H17   H     H_    0.285925 0.629463 0.761390 0.140020
H18   H     H_    0.119961 0.742359 0.100361 0.110948
H19   H     H_    0.119902 0.741616 0.870209 0.111645
H20   H     H_    0.111515 0.276666 0.505415 0.124655
H21   H     H_    0.888548 0.276735 0.495305 0.123712
H22   H     H_    0.888108 0.724851 0.500034 0.130102
N1    N     N_R   0.500000 0.852070 0.500000 -0.253726
N2    N     N_R   0.500000 0.147940 0.500000 -0.199857
O1    O     O_R   0.319640 0.618740 0.499990 -0.518882
O2    O     O_R   0.680360 0.618740 0.500010 -0.499977
O3    O     O_R   0.319620 0.381170 0.499990 -0.505733
O4    O     O_R   0.680380 0.381170 0.500010 -0.507104
O5    O     O_R   0.500000 0.618810 0.319650 -0.503798
O6    O     O_R   0.500000 0.618810 0.680350 -0.509381
O7    O     O_R   0.499970 0.381240 0.319640 -0.514813
O8    O     O_R   0.500030 0.381240 0.680360 -0.510825

loop_
_geom_bond_atom_site_label_1
_geom_bond_atom_site_label_2
_ccdc_geom_bond_type
C26   H3    S    
C7    C10   A    
C18   H9    S    
C27   N1    A    
Cu1   Cu2   S    
Cu1   O2    S    
C15   H21   S    
C25   C27   A    
C9    C11   A    
C3    H16   S    
C1    C17   S    
C20   H15   S    
Cu1   O6    S    
C12   O4    A    
C23   H2    S    
Cu2   N2    S    
C18   H8    S    
C11   H1    S    
C7    C8    A    
C27   H4    S    
C17   C23   A    
C28   O7    A    
C11   C13   A    
C14   C17   A    
C14   H20   S    
C21   H10   S    
Cu1   N1    S    
C25   N2    A    
C4    C7    A    
C18   C24   S    
Cu2   O4    S    
C4    C6    A    
C13   H12   S    
C12   O2    A    
C24   C26   A    
C3    C8    A    
C1    O3    A    
C19   H6    S    
Cu2   O8    S    
C6    H19   S    
C1    O1    A    
C5    C6    A    
C5    H18   S    
C2    O6    A    
Cu2   O7    S    
C20   C25   S    
C24   N2    A    
C15   C16   A    
C2    C10   S    
C26   N1    A    
C2    O8    A    
C20   C21   S    
C22   H22   S    
C18   C19   S    
C21   H11   S    
C28   O5    A    
C19   H5    S    
Cu1   O5    S    
C22   C23   A    
C8    C9    A    
C16   C22   A    
C19   H7    S    
C20   H14   S    
C14   C15   A    
Cu1   O1    S    
C10   C13   A    
C21   H13   S    
C12   C16   S    
C9    C28   S    
Cu2   O3    S    
C3    C5    A    
C4    H17   S    
