data_mof_unit_30165.cif
_audit_creation_date              2012-12-10T18:57:09-0500
_audit_creation_method            fapswitch 2.2
_symmetry_space_group_name_H-M    P1
_symmetry_Int_Tables_number       1
_space_group_crystal_system       triclinic
_cell_length_a                    10.781223
_cell_length_b                    9.833067
_cell_length_c                    10.683456
_cell_angle_alpha                 89.282119
_cell_angle_beta                  91.187632
_cell_angle_gamma                 89.562734
_cell_volume                      1132.21229758

loop_
_atom_site_label
_atom_site_type_symbol
_atom_type_description
_atom_site_fract_x
_atom_site_fract_y
_atom_site_fract_z
_atom_type_partial_charge
C1    C     C_R   0.261684 0.500049 0.516572 0.933358
C2    C     C_R   0.474308 0.610810 0.933325 0.114968
C3    C     C_R   0.524535 0.504499 0.128813 -0.157568
C4    C     C_R   0.525563 0.501845 0.871478 -0.153123
C5    C     C_R   0.600579 0.407793 0.069320 -0.080169
C6    C     C_R   0.602439 0.407863 0.937826 -0.066360
C7    C     C_3   0.348665 0.674158 0.919894 -0.427822
C8    C     C_3   0.349513 0.679190 0.061544 -0.463884
C9    C     C_R   0.066901 0.374714 0.545165 -0.108902
C10   C     C_R   0.940727 0.372850 0.518271 -0.108890
C11   C     C_R   0.875558 0.497912 0.500465 -0.258869
C12   C     C_R   0.740979 0.499453 0.495439 0.924790
C13   C     C_R   0.129995 0.499427 0.539287 -0.267333
C14   C     C_R   0.939801 0.622897 0.504220 0.347578
C15   C     C_R   0.064108 0.622978 0.537019 0.352400
C16   C     C_1   0.674731 0.309610 0.141199 0.219444
C17   C     C_1   0.684532 0.316196 0.873324 0.200940
C18   C     C_1   0.129268 0.248430 0.583639 0.271102
C19   C     C_1   0.884018 0.240639 0.499655 0.295962
C20   C     C_1   0.658609 0.855012 0.666212 0.307135
C21   C     C_1   0.322291 0.863817 0.354783 0.285615
C22   C     C_R   0.577504 0.070639 0.578514 -0.074559
C23   C     C_R   0.419871 0.074441 0.423991 -0.072452
C24   C     C_R   0.578093 0.926863 0.578695 0.053704
C25   C     C_R   0.418310 0.930672 0.425131 0.045742
C26   C     C_R   0.504608 0.500820 0.260042 0.889355
C27   C     C_R   0.507201 0.499445 0.739704 0.879848
C28   C     C_R   0.475078 0.613602 0.060194 0.122365
Cl1   Cl    Cl    0.874137 0.781201 0.454065 -0.532237
Cl2   Cl    Cl    0.131545 0.778159 0.586311 -0.551951
H1    H     H_    0.351519 0.776333 0.874323 0.230118
H2    H     H_    0.278181 0.613722 0.105107 0.211587
H3    H     H_    0.278366 0.603594 0.880235 0.209275
H4    H     H_    0.354612 0.785180 0.095541 0.217178
H5    H     H_    0.638748 0.124817 0.641075 0.152145
H6    H     H_    0.355076 0.131689 0.364687 0.138369
N1    N     N_R   0.500000 0.857200 0.500000 -0.119336
N2    N     N_R   0.500000 0.142810 0.500000 -0.094102
N3    N     N_1   0.733908 0.231272 0.198463 -0.163654
N4    N     N_1   0.751589 0.243698 0.822954 -0.208384
N5    N     N_1   0.178323 0.148006 0.614497 -0.136803
N6    N     N_1   0.840868 0.134676 0.484007 -0.121136
N7    N     N_1   0.723492 0.797853 0.737086 -0.166301
N8    N     N_1   0.242612 0.811577 0.299947 -0.172901
O1    O     O_R   0.316770 0.614620 0.499990 -0.573139
O2    O     O_R   0.683230 0.614620 0.500010 -0.571550
O3    O     O_R   0.316800 0.385290 0.500000 -0.630346
O4    O     O_R   0.683200 0.385290 0.500000 -0.629407
O5    O     O_R   0.500000 0.614690 0.316780 -0.614373
O6    O     O_R   0.500000 0.614690 0.683220 -0.624780
O7    O     O_R   0.500020 0.385360 0.316780 -0.619789
O8    O     O_R   0.499980 0.385360 0.683220 -0.623830
Zn1   Zn    Zn3+2 0.500000 0.653120 0.500000 1.017097
Zn2   Zn    Zn3+2 0.500000 0.346880 0.500000 0.973874

loop_
_geom_bond_atom_site_label_1
_geom_bond_atom_site_label_2
_ccdc_geom_bond_type
C2    C4    A    
C11   C12   S    
C19   N6    T    
C21   N8    T    
C2    C28   A    
C9    C10   A    
C2    C7    S    
N2    Zn2   S    
C27   O6    A    
C10   C19   S    
C12   O4    A    
O7    Zn2   S    
N1    Zn1   S    
C4    C27   S    
C23   C25   A    
C24   N1    A    
O1    Zn1   S    
C7    C8    S    
C8    H4    S    
C26   O7    A    
O4    Zn2   S    
C22   H5    S    
C7    H3    S    
C1    O1    A    
C8    H2    S    
O3    Zn2   S    
O5    Zn1   S    
O2    Zn1   S    
C4    C6    A    
C3    C28   A    
O8    Zn2   S    
C13   C15   A    
C5    C6    A    
C8    C28   S    
C11   C14   A    
C22   C24   A    
C18   N5    T    
O6    Zn1   S    
C7    H1    S    
C10   C11   A    
C16   N3    T    
C23   N2    A    
C9    C18   S    
C20   N7    T    
C1    C13   S    
C27   O8    A    
C15   Cl2   S    
C12   O2    A    
C23   H6    S    
C26   O5    A    
C6    C17   S    
C9    C13   A    
C14   C15   A    
C1    O3    A    
C5    C16   S    
C21   C25   S    
C14   Cl1   S    
C25   N1    A    
C3    C26   S    
C20   C24   S    
C3    C5    A    
C17   N4    T    
C22   N2    A    
