data_mof_unit_15356.cif
_audit_creation_date              2012-12-11T15:19:40-0500
_audit_creation_method            fapswitch 2.2
_symmetry_space_group_name_H-M    P1
_symmetry_Int_Tables_number       1
_space_group_crystal_system       triclinic
_cell_length_a                    20.161047
_cell_length_b                    6.874246
_cell_length_c                    17.991598
_cell_angle_alpha                 89.910683
_cell_angle_beta                  104.253515
_cell_angle_gamma                 90.192717
_cell_volume                      2416.71700912

loop_
_atom_site_label
_atom_site_type_symbol
_atom_type_description
_atom_site_fract_x
_atom_site_fract_y
_atom_site_fract_z
_atom_type_partial_charge
O1    O     O_R   0.312200 0.620210 0.189560 -0.536242
O2    O     O_R   0.687800 0.379790 0.810440 -0.545390
O3    O     O_R   0.187800 0.120210 0.310440 -0.536404
O4    O     O_R   0.812200 0.879790 0.689560 -0.546510
O5    O     O_R   0.171590 0.286140 0.165000 -0.537901
O6    O     O_R   0.828410 0.713860 0.835000 -0.531703
O7    O     O_R   0.328410 0.786140 0.335000 -0.533650
O8    O     O_R   0.671590 0.213860 0.665000 -0.534369
C1    C     C_R   0.144149 0.458999 0.145969 0.703242
C2    C     C_R   0.854180 0.540626 0.856431 0.713708
C3    C     C_R   0.354316 0.959568 0.356210 0.713344
C4    C     C_R   0.645679 0.040406 0.643795 0.715736
O9    O     O_R   0.310670 0.290220 0.180540 -0.541704
O10   O     O_R   0.689330 0.709780 0.819460 -0.537454
O11   O     O_R   0.189330 0.790220 0.319460 -0.548209
O12   O     O_R   0.810670 0.209780 0.680540 -0.534354
O13   O     O_R   0.327870 0.124170 0.326080 -0.530146
O14   O     O_R   0.672130 0.875830 0.673920 -0.532109
O15   O     O_R   0.172130 0.624170 0.173920 -0.531413
O16   O     O_R   0.827870 0.375830 0.826080 -0.534641
C5    C     C_R   0.330156 0.460224 0.162402 0.738557
C6    C     C_R   0.669376 0.540401 0.836045 0.726846
C7    C     C_R   0.167762 0.958726 0.334391 0.728853
C8    C     C_R   0.831588 0.041339 0.664304 0.705946
O17   O     O_3   0.255480 0.455050 0.297740 -0.365061
O18   O     O_3   0.744520 0.544950 0.702260 -0.364823
O19   O     O_3   0.244520 0.955050 0.202260 -0.363155
O20   O     O_3   0.755480 0.044950 0.797740 -0.363963
V1    V     V_3+5 0.248980 0.178550 0.241140 1.399854
V2    V     V_3+5 0.751020 0.821450 0.758860 1.400400
V3    V     V_3+5 0.251020 0.678550 0.258860 1.396325
V4    V     V_3+5 0.748980 0.321450 0.741140 1.398246
C9    C     C_R   0.944238 0.127841 0.634753 0.038964
C10   C     C_R   0.050845 0.907438 0.355886 0.047755
C11   C     C_R   0.550420 0.529797 0.852138 0.037341
C12   C     C_R   0.447061 0.531303 0.143018 0.020166
C13   C     C_R   0.879866 0.031197 0.613138 -0.132269
C14   C     C_R   0.119792 0.965876 0.385223 -0.113155
C15   C     C_R   0.621347 0.528049 0.886239 -0.107181
C16   C     C_R   0.378148 0.472353 0.110469 -0.092760
C17   C     C_R   0.863125 0.919532 0.544438 0.076056
C18   C     C_R   0.142908 0.026076 0.462701 0.063344
C19   C     C_R   0.645620 0.505900 0.966779 0.069146
C20   C     C_R   0.357918 0.424235 0.030315 0.076316
C21   C     C_R   0.913124 0.896370 0.501025 0.051750
C22   C     C_R   0.095121 0.035010 0.509407 0.051332
C23   C     C_R   0.597174 0.496643 0.012755 0.050281
C24   C     C_R   0.408725 0.423066 0.987125 0.021487
C25   C     C_R   0.979115 0.979348 0.526985 -0.017897
C26   C     C_R   0.027465 0.964934 0.481077 -0.018720
C27   C     C_R   0.526645 0.477035 0.977137 -0.013409
C28   C     C_R   0.477857 0.465238 0.022494 -0.003034
C29   C     C_R   0.997153 0.075773 0.598714 0.029035
C30   C     C_R   0.008198 0.877949 0.407441 0.027239
C31   C     C_R   0.504635 0.467859 0.896039 0.029582
C32   C     C_R   0.498470 0.495596 0.102624 0.032359
C33   C     C_R   0.900766 0.778007 0.435214 -0.199187
C34   C     C_R   0.114630 0.098165 0.586062 -0.194014
C35   C     C_R   0.617456 0.492220 0.093358 -0.195722
C36   C     C_R   0.392370 0.369732 0.908834 -0.203861
C37   C     C_R   0.947987 0.761085 0.390008 0.135065
C38   C     C_R   0.067883 0.111039 0.631989 0.131662
C39   C     C_R   0.569827 0.485770 0.138641 0.131685
C40   C     C_R   0.438722 0.390310 0.863008 0.143503
H1    H     H_    0.855449 0.688543 0.419866 0.148578
H2    H     H_    0.167396 0.130798 0.612890 0.146178
H3    H     H_    0.670938 0.488112 0.122711 0.146995
H4    H     H_    0.343588 0.304504 0.882077 0.130775
C41   C     C_1   0.583171 0.027289 0.581610 -0.199813
C42   C     C_1   0.416807 0.972578 0.418421 -0.204756
C43   C     C_1   0.916212 0.527777 0.919307 -0.201658
C44   C     C_1   0.081463 0.471752 0.083932 -0.193063
C45   C     C_1   0.530835 0.010719 0.530210 0.000591
C46   C     C_1   0.469133 0.989061 0.469842 0.001725
C47   C     C_1   0.968090 0.510872 0.971315 0.000579
C48   C     C_1   0.029337 0.488576 0.032271 0.001335
C49   C     C_3   0.950293 0.313439 0.682527 -0.355242
C50   C     C_3   0.913831 0.482790 0.634185 -0.685675
H5    H     H_    0.940276 0.518840 0.588529 0.214491
H6    H     H_    0.859679 0.448243 0.606451 0.231990
H7    H     H_    0.915418 0.612673 0.671179 0.204754
H8    H     H_    0.930959 0.290952 0.734533 0.175084
H9    H     H_    0.003091 0.364125 0.703721 0.197075
C51   C     C_3   0.020988 0.914590 0.269194 -0.367891
C52   C     C_3   0.013881 0.124282 0.239720 -0.754443
H10   H     H_    0.978937 0.205953 0.267290 0.227005
H11   H     H_    0.063830 0.200415 0.251572 0.230581
H12   H     H_    0.991900 0.124655 0.176728 0.216469
H13   H     H_    0.052878 0.828925 0.238881 0.173476
H14   H     H_    0.968991 0.854435 0.251766 0.209050
C53   C     C_3   0.524745 0.636789 0.776110 -0.354170
C54   C     C_3   0.531298 0.857107 0.787675 -0.739637
H15   H     H_    0.501586 0.904061 0.828870 0.220255
H16   H     H_    0.585161 0.903057 0.810207 0.240878
H17   H     H_    0.510760 0.932133 0.732083 0.201992
H18   H     H_    0.552684 0.589046 0.733306 0.168334
H19   H     H_    0.470239 0.611009 0.750190 0.203968
C55   C     C_3   0.460939 0.675186 0.209816 -0.362633
C56   C     C_3   0.436654 0.879674 0.182035 -0.681165
H20   H     H_    0.467622 0.936500 0.143452 0.212340
H21   H     H_    0.382067 0.880796 0.150238 0.239425
H22   H     H_    0.443265 0.979110 0.231943 0.191406
H23   H     H_    0.436951 0.626205 0.255923 0.172832
H24   H     H_    0.515436 0.692521 0.237582 0.199665
C57   C     C_3   0.790129 0.842163 0.513640 -0.350560
C58   C     C_3   0.751152 0.960670 0.444726 -0.768901
H25   H     H_    0.748020 0.115135 0.461603 0.223991
H26   H     H_    0.776220 0.954098 0.396423 0.235518
H27   H     H_    0.698348 0.902298 0.424484 0.216588
H28   H     H_    0.790550 0.685631 0.498953 0.163078
H29   H     H_    0.758956 0.847876 0.556158 0.186081
C59   C     C_3   0.217708 0.085744 0.493879 -0.355558
C60   C     C_3   0.226023 0.306924 0.495275 -0.715997
H30   H     H_    0.207877 0.367112 0.436482 0.240758
H31   H     H_    0.196620 0.375471 0.532851 0.217816
H32   H     H_    0.280897 0.345222 0.517317 0.204621
H33   H     H_    0.238961 0.023164 0.551664 0.163745
H34   H     H_    0.251227 0.024752 0.459306 0.160288
C61   C     C_3   0.722527 0.500608 0.002586 -0.360455
C62   C     C_3   0.749943 0.701616 0.030863 -0.748932
H35   H     H_    0.741402 0.805383 0.982056 0.231508
H36   H     H_    0.724308 0.757753 0.074414 0.225873
H37   H     H_    0.805773 0.692503 0.057219 0.214322
H38   H     H_    0.735248 0.392643 0.049802 0.169779
H39   H     H_    0.751209 0.448514 0.961235 0.164489
C63   C     C_3   0.283708 0.392565 0.983832 -0.396708
C64   C     C_3   0.224979 0.440407 0.018759 -0.755764
H40   H     H_    0.220288 0.321199 0.057995 0.242262
H41   H     H_    0.231749 0.585578 0.046502 0.225839
H42   H     H_    0.176528 0.442867 0.973060 0.207461
H43   H     H_    0.274953 0.487670 0.932232 0.193892
H44   H     H_    0.277532 0.238566 0.964415 0.182547
C65   C     C_3   0.939392 0.586611 0.336437 -0.365199
C66   C     C_3   0.872835 0.593228 0.273016 -0.786017
H45   H     H_    0.828538 0.554487 0.296521 0.221473
H46   H     H_    0.863732 0.739645 0.246505 0.228643
H47   H     H_    0.875374 0.485761 0.227790 0.222170
H48   H     H_    0.983831 0.567714 0.311100 0.174453
H49   H     H_    0.938567 0.452505 0.370876 0.187736
C67   C     C_3   0.098156 0.117621 0.718296 -0.362406
C68   C     C_3   0.139775 0.303152 0.744406 -0.784374
H50   H     H_    0.189839 0.295649 0.729465 0.216664
H51   H     H_    0.112792 0.435166 0.717152 0.227699
H52   H     H_    0.149679 0.317516 0.807669 0.221024
H53   H     H_    0.058692 0.097715 0.751090 0.172647
H54   H     H_    0.132883 0.990967 0.734651 0.179268
C69   C     C_3   0.597339 0.424998 0.221915 -0.362494
C70   C     C_3   0.647957 0.573184 0.268377 -0.778159
H55   H     H_    0.697977 0.564157 0.253216 0.220404
H56   H     H_    0.628783 0.724307 0.257782 0.226469
H57   H     H_    0.656655 0.540706 0.330508 0.221316
H58   H     H_    0.555791 0.393975 0.250801 0.172880
H59   H     H_    0.624522 0.284122 0.223018 0.180338
C71   C     C_3   0.420125 0.290727 0.785065 -0.370333
C72   C     C_3   0.356925 0.379854 0.730569 -0.777706
H60   H     H_    0.309964 0.336031 0.747925 0.217195
H61   H     H_    0.359445 0.541046 0.730327 0.226658
H62   H     H_    0.352601 0.325862 0.671420 0.221801
H63   H     H_    0.463562 0.287928 0.757415 0.175882
H64   H     H_    0.408557 0.135351 0.793695 0.181988

loop_
_geom_bond_atom_site_label_1
_geom_bond_atom_site_label_2
_ccdc_geom_bond_type
C34   C38   A    
C43   C47   T    
C4    C41   S    
O1    C5    A    
C63   C64   S    
O19   V1    S    
O13   V1    S    
C45   C46   S    
O3    C7    A    
C69   C70   S    
C1    C44   S    
C44   C48   T    
O15   V3    S    
C66   H47   S    
C3    C42   S    
C37   C65   S    
C49   C50   S    
O7    C3    A    
C21   C33   A    
C26   C30   A    
C10   C51   S    
C63   H43   S    
O9    V1    S    
C57   H28   S    
C70   H56   S    
C14   C18   A    
C68   H51   S    
C52   H10   S    
C59   H33   S    
O4    C8    A    
C50   H6    S    
C72   H61   S    
C58   H25   S    
C49   H9    S    
C55   H23   S    
C55   C56   S    
C40   C71   S    
O1    V3    S    
O2    V4    S    
C18   C22   A    
O3    V1    S    
C18   C59   S    
C42   C46   T    
C12   C16   A    
C35   H3    S    
C53   H18   S    
C51   C52   S    
C1    O15   A    
C2    O16   A    
O2    C6    A    
C70   H57   S    
C41   C45   T    
O14   V2    S    
C21   C25   A    
C16   C20   A    
C62   H37   S    
C60   H32   S    
C2    C43   S    
O11   C7    A    
C57   H29   S    
C65   H48   S    
O12   C8    A    
O18   V2    S    
C22   C34   A    
C72   H62   S    
O17   V1    S    
C51   H14   S    
O10   V2    S    
C39   C69   S    
C59   C60   S    
C62   H36   S    
C24   C36   A    
O5    V1    S    
C52   H11   S    
C9    C29   A    
O7    V3    S    
C71   H64   S    
C11   C31   A    
C27   C28   A    
O8    V4    S    
O20   V4    S    
C67   C68   S    
C68   H52   S    
C67   H54   S    
C53   C54   S    
C50   H5    S    
C23   C27   A    
C61   H38   S    
O19   V3    S    
C54   H17   S    
C9    C13   A    
C11   C15   A    
C47   C48   S    
C64   H41   S    
O5    C1    A    
C12   C32   A    
C29   C38   A    
C56   H20   S    
C63   H44   S    
O8    C4    A    
C20   C63   S    
C31   C40   A    
C54   H16   S    
C8    C13   S    
C32   C39   A    
O9    C5    A    
C53   H19   S    
C33   C37   A    
C65   H49   S    
C36   H4    S    
C71   C72   S    
C17   C57   S    
C61   H39   S    
C56   H21   S    
C10   C30   A    
C65   C66   S    
C51   H13   S    
C64   H40   S    
C62   H35   S    
C34   H2    S    
C60   H30   S    
O16   V4    S    
C52   H12   S    
C3    O13   A    
O6    V2    S    
C10   C14   A    
O17   V3    S    
C33   H1    S    
C67   H53   S    
O6    C2    A    
C66   H46   S    
C61   C62   S    
O11   V3    S    
C66   H45   S    
O18   V4    S    
C30   C37   A    
O12   V4    S    
C7    C14   S    
C57   C58   S    
C22   C26   A    
C35   C39   A    
C36   C40   A    
O10   C6    A    
O20   V2    S    
C69   H58   S    
C64   H42   S    
C71   H63   S    
C68   H50   S    
C59   H34   S    
C50   H7    S    
C9    C49   S    
C5    C16   S    
C58   H26   S    
C49   H8    S    
C25   C29   A    
C6    C15   S    
C54   H15   S    
C27   C31   A    
C70   H55   S    
C13   C17   A    
C69   H59   S    
C23   C35   A    
C28   C32   A    
C24   C28   A    
C56   H22   S    
C15   C19   A    
C25   C26   A    
C4    O14   A    
C72   H60   S    
C17   C21   A    
C12   C55   S    
C38   C67   S    
C19   C23   A    
C55   H24   S    
O4    V2    S    
C20   C24   A    
C19   C61   S    
C60   H31   S    
C58   H27   S    
C11   C53   S    
