data_mof_unit_62421.cif
_audit_creation_date              2012-12-10T19:19:28-0500
_audit_creation_method            fapswitch 2.2
_symmetry_space_group_name_H-M    P1
_symmetry_Int_Tables_number       1
_space_group_crystal_system       triclinic
_cell_length_a                    24.44877
_cell_length_b                    24.44877
_cell_length_c                    39.749966
_cell_angle_alpha                 89.999983
_cell_angle_beta                  89.999984
_cell_angle_gamma                 90.000021
_cell_volume                      23760.2382686

loop_
_atom_site_label
_atom_site_type_symbol
_atom_type_description
_atom_site_fract_x
_atom_site_fract_y
_atom_site_fract_z
_atom_type_partial_charge
C1    C     C_R   0.271331 0.228669 0.250000 0.033140
C2    C     C_R   0.728672 0.228672 0.250000 0.033575
C3    C     C_R   0.500000 1.000000 0.621945 -0.002282
C4    C     C_R   0.500000 1.000000 0.878054 -0.002282
C5    C     C_R   0.500000 0.000000 0.121945 -0.002282
C6    C     C_R   1.000000 0.500000 0.878054 -0.002282
C7    C     C_R   1.000000 0.500000 0.121945 -0.002282
C8    C     C_R   0.500000 0.000000 0.340953 0.505830
C9    C     C_R   0.500000 0.000000 0.659047 0.505829
C10   C     C_R   0.000000 0.500000 0.340953 0.505830
C11   C     C_R   0.000000 0.500000 0.659047 0.505830
C12   C     C_R   0.000000 0.500000 0.840953 0.505830
C13   C     C_R   0.771328 0.728672 0.750000 0.033574
C14   C     C_R   0.000000 0.500000 0.159047 0.505830
C15   C     C_R   0.500000 1.000000 0.840953 0.505829
C16   C     C_R   0.500000 0.000000 0.159047 0.505829
C17   C     C_R   0.605181 0.105180 0.250000 0.504003
C18   C     C_R   0.394819 0.894819 0.750000 0.504001
C19   C     C_R   0.894819 0.605181 0.250000 0.504002
C20   C     C_R   0.105181 0.394819 0.750000 0.504002
C21   C     C_R   0.394819 0.894819 0.250000 0.504002
C22   C     C_R   0.605181 0.105181 0.750000 0.504002
C23   C     C_R   0.105181 0.394819 0.250000 0.504003
C24   C     C_R   0.228672 0.271328 0.250000 0.033575
C25   C     C_R   0.894819 0.605181 0.750000 0.504004
C26   C     C_R   0.605180 0.894820 0.750000 0.503040
C27   C     C_R   0.394820 0.105180 0.250000 0.503042
C28   C     C_R   0.894820 0.394820 0.750000 0.503042
C29   C     C_R   0.105180 0.605180 0.250000 0.503043
C30   C     C_R   0.394820 0.105180 0.750000 0.503042
C31   C     C_R   0.605180 0.894820 0.250000 0.503041
C32   C     C_R   0.105180 0.605180 0.750000 0.503043
C33   C     C_R   0.894820 0.394820 0.250000 0.503042
C34   C     C_R   0.000000 0.500000 0.448744 0.032685
C35   C     C_R   0.728672 0.228672 0.750000 0.033573
C36   C     C_R   0.000000 0.500000 0.551256 0.032685
C37   C     C_R   0.500000 0.000000 0.448744 0.032685
C38   C     C_R   0.500000 0.000000 0.551256 0.032685
C39   C     C_R   0.500000 0.000000 0.948743 0.032685
C40   C     C_R   0.500000 0.000000 0.051256 0.032685
C41   C     C_R   0.000000 0.500000 0.948743 0.032685
C42   C     C_R   1.000000 0.500000 0.051256 0.032685
C43   C     C_1   0.000000 0.500000 0.484885 0.016850
C44   C     C_1   0.000000 0.500000 0.515115 0.016850
C45   C     C_1   0.500000 0.000000 0.484885 0.016850
C46   C     C_R   0.271328 0.771328 0.250000 0.033575
C47   C     C_1   0.500000 1.000000 0.515115 0.016850
C48   C     C_1   0.500000 0.000000 0.984885 0.016850
C49   C     C_1   0.500000 0.000000 0.015115 0.016850
C50   C     C_1   0.000000 0.500000 0.984885 0.016850
C51   C     C_1   0.000000 0.500000 0.015115 0.016850
C52   C     C_R   0.276374 0.192684 0.277374 -0.120700
C53   C     C_R   0.723619 0.807309 0.722623 -0.120700
C54   C     C_R   0.807318 0.276371 0.277373 -0.120701
C55   C     C_R   0.192683 0.723628 0.722627 -0.120701
C56   C     C_R   0.723630 0.807318 0.277373 -0.120701
C57   C     C_R   0.228672 0.271328 0.750000 0.033575
C58   C     C_R   0.276372 0.192683 0.722626 -0.120701
C59   C     C_R   0.192682 0.723629 0.277373 -0.120701
C60   C     C_R   0.807317 0.276372 0.722627 -0.120701
C61   C     C_R   0.260267 0.823417 0.736730 -0.120241
C62   C     C_R   0.739733 0.176583 0.263271 -0.120241
C63   C     C_R   0.823412 0.739728 0.736721 -0.120242
C64   C     C_R   0.176585 0.260269 0.263274 -0.120241
C65   C     C_R   0.739733 0.176583 0.736730 -0.120241
C66   C     C_R   0.260267 0.823416 0.263271 -0.120241
C67   C     C_R   0.176584 0.260268 0.736728 -0.120241
C68   C     C_R   0.771328 0.728672 0.250000 0.033573
C69   C     C_R   0.823418 0.739734 0.263269 -0.120241
C70   C     C_R   0.760271 0.676588 0.763279 -0.120242
C71   C     C_R   0.239731 0.323415 0.236726 -0.120241
C72   C     C_R   0.323417 0.760267 0.763270 -0.120241
C73   C     C_R   0.676583 0.239732 0.236729 -0.120241
C74   C     C_R   0.239732 0.323416 0.763272 -0.120241
C75   C     C_R   0.760266 0.676582 0.236731 -0.120241
C76   C     C_R   0.676583 0.239733 0.763270 -0.120241
C77   C     C_R   0.323416 0.760267 0.236729 -0.120241
C78   C     C_R   0.776371 0.307318 0.222627 -0.120701
C79   C     C_R   0.316361 0.152170 0.277253 -0.123776
C80   C     C_R   0.223628 0.692683 0.777373 -0.120701
C81   C     C_R   0.307316 0.223626 0.222626 -0.120700
C82   C     C_R   0.692691 0.776381 0.777377 -0.120700
C83   C     C_R   0.223629 0.692682 0.222627 -0.120701
C84   C     C_R   0.776372 0.307317 0.777373 -0.120700
C85   C     C_R   0.692681 0.776370 0.222627 -0.120701
C86   C     C_R   0.307317 0.223628 0.777374 -0.120701
C87   C     C_R   0.683632 0.847823 0.722745 -0.123776
C88   C     C_R   0.847832 0.316359 0.277252 -0.123777
C89   C     C_R   0.728669 0.771331 0.750000 0.033138
C90   C     C_R   0.152169 0.683640 0.722748 -0.123777
C91   C     C_R   0.683642 0.847832 0.277251 -0.123777
C92   C     C_R   0.316360 0.152169 0.722748 -0.123777
C93   C     C_R   0.152168 0.683641 0.277252 -0.123777
C94   C     C_R   0.847831 0.316360 0.722748 -0.123777
C95   C     C_R   0.300656 0.863529 0.736500 -0.122826
C96   C     C_R   0.699344 0.136471 0.263501 -0.122826
C97   C     C_R   0.863525 0.699340 0.736492 -0.122827
C98   C     C_R   0.136472 0.300658 0.263504 -0.122826
C99   C     C_R   0.699344 0.136470 0.736500 -0.122826
C100  C     C_R   0.771331 0.271330 0.250000 0.033140
C101  C     C_R   0.300656 0.863529 0.263501 -0.122826
C102  C     C_R   0.136471 0.300656 0.736498 -0.122826
C103  C     C_R   0.863530 0.699345 0.263498 -0.122826
C104  C     C_R   0.800660 0.636475 0.763508 -0.122827
C105  C     C_R   0.199342 0.363527 0.236496 -0.122826
C106  C     C_R   0.363529 0.800656 0.763500 -0.122826
C107  C     C_R   0.636471 0.199344 0.236499 -0.122826
C108  C     C_R   0.199343 0.363529 0.763502 -0.122826
C109  C     C_R   0.800655 0.636469 0.236501 -0.122826
C110  C     C_R   0.636470 0.199344 0.763500 -0.122826
C111  C     C_R   0.228669 0.728669 0.750000 0.033137
C112  C     C_R   0.363529 0.800656 0.236499 -0.122826
C113  C     C_R   0.816359 0.347832 0.222748 -0.123777
C114  C     C_R   0.183640 0.652169 0.777252 -0.123777
C115  C     C_R   0.347830 0.183639 0.222747 -0.123776
C116  C     C_R   0.652177 0.816368 0.777255 -0.123776
C117  C     C_R   0.183641 0.652168 0.222748 -0.123777
C118  C     C_R   0.816360 0.347831 0.777252 -0.123777
C119  C     C_R   0.652168 0.816358 0.222749 -0.123777
C120  C     C_R   0.347831 0.183640 0.777252 -0.123777
C121  C     C_R   0.352469 0.147531 0.250000 0.037256
C122  C     C_R   0.728670 0.771330 0.250000 0.033138
C123  C     C_R   0.647531 0.852469 0.750000 0.037258
C124  C     C_R   0.852469 0.352469 0.250000 0.037255
C125  C     C_R   0.147531 0.647531 0.750000 0.037255
C126  C     C_R   0.647531 0.852469 0.250000 0.037254
C127  C     C_R   0.352469 0.147531 0.750000 0.037255
C128  C     C_R   0.147531 0.647531 0.250000 0.037256
C129  C     C_R   0.852469 0.352469 0.750000 0.037254
C130  C     C_R   0.352467 0.852467 0.750000 0.037888
C131  C     C_R   0.647533 0.147533 0.250000 0.037889
C132  C     C_R   0.852467 0.647533 0.750000 0.037885
C133  C     C_R   0.271330 0.228669 0.750000 0.033139
C134  C     C_R   0.147533 0.352467 0.250000 0.037887
C135  C     C_R   0.647533 0.147533 0.750000 0.037888
C136  C     C_R   0.352467 0.852467 0.250000 0.037888
C137  C     C_R   0.147533 0.352467 0.750000 0.037888
C138  C     C_R   0.852467 0.647533 0.250000 0.037889
C139  C     C_R   0.000141 0.549761 0.431037 0.021353
C140  C     C_R   0.999859 0.450239 0.568963 0.021353
C141  C     C_R   0.450239 0.000141 0.431037 0.021353
C142  C     C_R   0.549761 0.999859 0.568963 0.021353
C143  C     C_R   0.999859 0.450239 0.431037 0.021353
C144  C     C_R   0.228669 0.728669 0.250000 0.033140
C145  C     C_R   0.000141 0.549761 0.568963 0.021353
C146  C     C_R   0.549761 0.999859 0.431037 0.021353
C147  C     C_R   0.450239 0.000141 0.568963 0.021353
C148  C     C_R   0.499859 0.049761 0.931037 0.021353
C149  C     C_R   0.500141 0.950239 0.068962 0.021353
C150  C     C_R   0.950239 0.499859 0.931037 0.021353
C151  C     C_R   0.049761 0.500141 0.068962 0.021353
C152  C     C_R   0.500141 0.950239 0.931037 0.021353
C153  C     C_R   0.499859 0.049761 0.068962 0.021353
C154  C     C_R   0.049761 0.500141 0.931037 0.021353
C155  C     C_R   0.771331 0.271330 0.750000 0.033137
C156  C     C_R   0.950239 0.499859 0.068962 0.021353
C157  C     C_R   0.000139 0.549561 0.395910 -0.124259
C158  C     C_R   0.999861 0.450439 0.604090 -0.124259
C159  C     C_R   0.450439 0.000139 0.395910 -0.124259
C160  C     C_R   0.549561 0.999861 0.604090 -0.124259
C161  C     C_R   0.999861 0.450439 0.395910 -0.124259
C162  C     C_R   0.000139 0.549561 0.604090 -0.124259
C163  C     C_R   0.549561 0.999861 0.395910 -0.124259
C164  C     C_R   0.450439 0.000139 0.604090 -0.124259
C165  C     C_R   0.499861 0.049561 0.895910 -0.124259
C166  C     C_R   0.271328 0.771328 0.750000 0.033573
C167  C     C_R   0.500139 0.950439 0.104090 -0.124259
C168  C     C_R   0.950439 0.499861 0.895910 -0.124259
C169  C     C_R   0.049561 0.500139 0.104090 -0.124259
C170  C     C_R   0.500139 0.950439 0.895910 -0.124259
C171  C     C_R   0.499861 0.049561 0.104090 -0.124259
C172  C     C_R   0.049561 0.500139 0.895910 -0.124259
C173  C     C_R   0.950439 0.499861 0.104090 -0.124259
C174  C     C_R   0.000000 0.500000 0.378055 -0.002282
C175  C     C_R   0.000000 0.500000 0.621945 -0.002282
C176  C     C_R   0.500000 0.000000 0.378055 -0.002282
Cl1   Cl    Cl    0.000323 0.613146 0.452116 -0.080734
Cl2   Cl    Cl    0.500323 0.886854 0.047884 -0.080734
Cl3   Cl    Cl    0.886854 0.499677 0.952116 -0.080735
Cl4   Cl    Cl    0.113146 0.500323 0.047884 -0.080735
Cl5   Cl    Cl    0.500323 0.886854 0.952116 -0.080735
Cl6   Cl    Cl    0.499677 0.113146 0.047884 -0.080735
Cl7   Cl    Cl    0.113146 0.500323 0.952116 -0.080734
Cl8   Cl    Cl    0.886854 0.499677 0.047884 -0.080734
Cl9   Cl    Cl    0.999677 0.386854 0.547884 -0.080734
Cl10  Cl    Cl    0.386854 0.000323 0.452116 -0.080735
Cl11  Cl    Cl    0.613146 0.999677 0.547884 -0.080735
Cl12  Cl    Cl    0.999677 0.386854 0.452116 -0.080735
Cl13  Cl    Cl    0.000323 0.613146 0.547884 -0.080735
Cl14  Cl    Cl    0.613146 0.999677 0.452116 -0.080734
Cl15  Cl    Cl    0.386854 0.000323 0.547884 -0.080734
Cl16  Cl    Cl    0.499677 0.113146 0.952116 -0.080734
H1    H     H_    0.000252 0.588252 0.382635 0.144807
H2    H     H_    0.500252 0.911748 0.117365 0.144807
H3    H     H_    0.911748 0.499748 0.882635 0.144806
H4    H     H_    0.088252 0.500251 0.117365 0.144806
H5    H     H_    0.500252 0.911748 0.882635 0.144807
H6    H     H_    0.499748 0.088252 0.117365 0.144807
H7    H     H_    0.088252 0.500251 0.882635 0.144807
H8    H     H_    0.911748 0.499748 0.117365 0.144807
H9    H     H_    0.249878 0.196243 0.299089 0.109450
H10   H     H_    0.750110 0.803744 0.700906 0.109452
H11   H     H_    0.803760 0.249873 0.299087 0.109451
H12   H     H_    0.999749 0.411748 0.617365 0.144807
H13   H     H_    0.196241 0.750125 0.700913 0.109453
H14   H     H_    0.750128 0.803762 0.299086 0.109453
H15   H     H_    0.249876 0.196241 0.700912 0.109452
H16   H     H_    0.196239 0.750126 0.299087 0.109451
H17   H     H_    0.803759 0.249875 0.700913 0.109453
H18   H     H_    0.220199 0.833430 0.726902 0.108331
H19   H     H_    0.779801 0.166570 0.273100 0.108330
H20   H     H_    0.833422 0.779793 0.726886 0.108331
H21   H     H_    0.166573 0.220202 0.273106 0.108329
H22   H     H_    0.779802 0.166570 0.726902 0.108332
H23   H     H_    0.411748 0.000251 0.382635 0.144807
H24   H     H_    0.220199 0.833430 0.273100 0.108330
H25   H     H_    0.166571 0.220200 0.726899 0.108330
H26   H     H_    0.833432 0.779803 0.273095 0.108331
H27   H     H_    0.720206 0.666578 0.773114 0.108331
H28   H     H_    0.279798 0.333427 0.226894 0.108329
H29   H     H_    0.333430 0.720198 0.773098 0.108332
H30   H     H_    0.666570 0.279801 0.226900 0.108330
H31   H     H_    0.279800 0.333429 0.773101 0.108330
H32   H     H_    0.720197 0.666568 0.226904 0.108331
H33   H     H_    0.666570 0.279801 0.773098 0.108331
H34   H     H_    0.588252 0.999748 0.617365 0.144807
H35   H     H_    0.333430 0.720199 0.226900 0.108330
H36   H     H_    0.749874 0.303761 0.200913 0.109451
H37   H     H_    0.250125 0.696241 0.799087 0.109453
H38   H     H_    0.303757 0.250122 0.200911 0.109450
H39   H     H_    0.696256 0.749890 0.799094 0.109452
H40   H     H_    0.250126 0.696239 0.200913 0.109451
H41   H     H_    0.749875 0.303759 0.799087 0.109453
H42   H     H_    0.696238 0.749872 0.200914 0.109453
H43   H     H_    0.303759 0.250124 0.799087 0.109452
H44   H     H_    0.319521 0.124992 0.298686 0.132718
H45   H     H_    0.999748 0.411748 0.382635 0.144806
H46   H     H_    0.680467 0.874996 0.701309 0.132715
H47   H     H_    0.875011 0.319517 0.298684 0.132719
H48   H     H_    0.124990 0.680481 0.701315 0.132719
H49   H     H_    0.680484 0.875012 0.298683 0.132720
H50   H     H_    0.319519 0.124990 0.701315 0.132719
H51   H     H_    0.124989 0.680483 0.298684 0.132720
H52   H     H_    0.875009 0.319519 0.701315 0.132720
H53   H     H_    0.291102 0.903419 0.726200 0.132720
H54   H     H_    0.708897 0.096581 0.273802 0.132720
H55   H     H_    0.903411 0.708890 0.726185 0.132725
H56   H     H_    0.000251 0.588252 0.617365 0.144806
H57   H     H_    0.096584 0.291106 0.273807 0.132722
H58   H     H_    0.708898 0.096581 0.726200 0.132720
H59   H     H_    0.291103 0.903419 0.273802 0.132720
H60   H     H_    0.096582 0.291103 0.726197 0.132720
H61   H     H_    0.903421 0.708899 0.273797 0.132718
H62   H     H_    0.791110 0.596589 0.773815 0.132725
H63   H     H_    0.208894 0.403416 0.226192 0.132722
H64   H     H_    0.403419 0.791102 0.773800 0.132720
H65   H     H_    0.596581 0.208897 0.226198 0.132720
H66   H     H_    0.208897 0.403418 0.773803 0.132720
H67   H     H_    0.588252 0.999748 0.382635 0.144807
H68   H     H_    0.791100 0.596579 0.226203 0.132718
H69   H     H_    0.596581 0.208898 0.773800 0.132720
H70   H     H_    0.403419 0.791103 0.226198 0.132720
H71   H     H_    0.819517 0.375011 0.201315 0.132720
H72   H     H_    0.180481 0.624990 0.798685 0.132720
H73   H     H_    0.375007 0.180479 0.201314 0.132718
H74   H     H_    0.625004 0.819533 0.798691 0.132715
H75   H     H_    0.180483 0.624989 0.201315 0.132719
H76   H     H_    0.819519 0.375009 0.798685 0.132719
H77   H     H_    0.624988 0.819516 0.201316 0.132720
H78   H     H_    0.411748 0.000252 0.617365 0.144807
H79   H     H_    0.375009 0.180481 0.798685 0.132719
H80   H     H_    0.499748 0.088252 0.882635 0.144807
O1    O     O_3   0.500000 0.000000 0.250000 -0.431999
O2    O     O_R   0.454490 0.000000 0.675180 -0.544882
O3    O     O_R   0.000000 0.545510 0.324820 -0.544882
O4    O     O_R   0.000000 0.454490 0.675180 -0.544882
O5    O     O_R   0.954490 0.500000 0.824820 -0.544883
O6    O     O_R   0.045510 0.500000 0.175180 -0.544883
O7    O     O_R   0.500000 0.954490 0.824820 -0.544883
O8    O     O_R   0.500000 0.045510 0.175180 -0.544883
O9    O     O_R   0.045510 0.500000 0.824820 -0.544883
O10   O     O_R   0.954490 0.500000 0.175180 -0.544882
O11   O     O_R   0.500000 0.045510 0.824820 -0.544883
O12   O     O_3   0.500000 0.000000 0.750000 -0.431999
O13   O     O_R   0.500000 0.954490 0.175180 -0.544882
O14   O     O_R   0.609450 0.064000 0.269610 -0.545318
O15   O     O_R   0.390550 0.936000 0.730390 -0.545317
O16   O     O_R   0.936000 0.609450 0.269610 -0.545317
O17   O     O_R   0.064000 0.390550 0.730390 -0.545318
O18   O     O_R   0.390550 0.936000 0.269610 -0.545318
O19   O     O_R   0.609450 0.064000 0.730390 -0.545317
O20   O     O_R   0.064000 0.390550 0.269610 -0.545319
O21   O     O_R   0.936000 0.609450 0.730390 -0.545319
O22   O     O_R   0.609450 0.936000 0.730390 -0.546725
O23   O     O_3   0.000000 0.500000 0.250000 -0.431999
O24   O     O_R   0.390550 0.064000 0.269610 -0.546727
O25   O     O_R   0.936000 0.390550 0.730390 -0.546727
O26   O     O_R   0.064000 0.609450 0.269610 -0.546727
O27   O     O_R   0.390550 0.064000 0.730390 -0.546727
O28   O     O_R   0.609450 0.936000 0.269610 -0.546727
O29   O     O_R   0.064000 0.609450 0.730390 -0.546727
O30   O     O_R   0.936000 0.390550 0.269610 -0.546727
O31   O     O_R   0.109450 0.564000 0.769610 -0.546727
O32   O     O_R   0.890550 0.436000 0.230390 -0.546727
O33   O     O_R   0.436000 0.109450 0.769610 -0.546727
O34   O     O_3   0.000000 0.500000 0.750000 -0.431999
O35   O     O_R   0.564000 0.890550 0.230390 -0.546727
O36   O     O_R   0.890550 0.436000 0.769610 -0.546727
O37   O     O_R   0.109450 0.564000 0.230390 -0.546727
O38   O     O_R   0.564000 0.890550 0.769610 -0.546725
O39   O     O_R   0.436000 0.109450 0.230390 -0.546727
O40   O     O_R   0.109450 0.436000 0.230390 -0.545318
O41   O     O_R   0.890550 0.564000 0.769610 -0.545320
O42   O     O_R   0.436000 0.890550 0.230390 -0.545318
O43   O     O_R   0.564000 0.109450 0.769610 -0.545317
O44   O     O_R   0.890550 0.564000 0.230390 -0.545317
O45   O     O_R   0.454490 0.000000 0.324820 -0.544883
O46   O     O_R   0.109450 0.436000 0.769610 -0.545318
O47   O     O_R   0.564000 0.109450 0.230390 -0.545318
O48   O     O_R   0.436000 0.890550 0.769610 -0.545317
O49   O     O_R   0.545510 0.000000 0.675180 -0.544883
O50   O     O_R   1.000000 0.454490 0.324820 -0.544883
O51   O     O_R   0.000000 0.545510 0.675180 -0.544883
O52   O     O_R   0.545510 0.000000 0.324820 -0.544883
Zn1   Zn    Zn3+2 0.500000 0.064990 0.221970 0.937092
Zn2   Zn    Zn3+2 1.000000 0.435010 0.278030 0.937092
Zn3   Zn    Zn3+2 0.435010 0.000000 0.721970 0.937092
Zn4   Zn    Zn3+2 0.564990 0.000000 0.278030 0.937092
Zn5   Zn    Zn3+2 0.000000 0.435010 0.721970 0.937092
Zn6   Zn    Zn3+2 0.000000 0.564990 0.278030 0.937092
Zn7   Zn    Zn3+2 0.564990 0.000000 0.721970 0.937093
Zn8   Zn    Zn3+2 0.435010 0.000000 0.278030 0.937092
Zn9   Zn    Zn3+2 0.500000 0.935010 0.778030 0.937093
Zn10  Zn    Zn3+2 0.935010 0.500000 0.221970 0.937092
Zn11  Zn    Zn3+2 0.064990 0.500000 0.778030 0.937092
Zn12  Zn    Zn3+2 0.500000 0.935010 0.221970 0.937092
Zn13  Zn    Zn3+2 0.500000 0.064990 0.778030 0.937092
Zn14  Zn    Zn3+2 0.064990 0.500000 0.221970 0.937092
Zn15  Zn    Zn3+2 0.935010 0.500000 0.778030 0.937092
Zn16  Zn    Zn3+2 0.000000 0.564990 0.721970 0.937092

loop_
_geom_bond_atom_site_label_1
_geom_bond_atom_site_label_2
_ccdc_geom_bond_type
C59   H16   S    
C10   C174  S    
C82   H39   S    
C17   C131  S    
O31   Zn11  S    
C10   O3    A    
C27   C121  S    
O34   Zn16  S    
C68   C75   A    
C79   C121  A    
C157  H1    S    
C140  Cl9   S    
C97   C132  A    
C79   H44   S    
C147  C164  A    
C83   H40   S    
C172  H7    S    
C61   C166  A    
C113  H71   S    
O32   Zn10  S    
C114  H72   S    
C91   H49   S    
C31   O35   A    
O21   Zn16  S    
C63   H20   S    
O42   Zn12  S    
C25   O21   A    
C14   O6    A    
C21   O42   A    
C87   H46   S    
C173  H8    S    
C148  C165  A    
C57   C133  S    
O22   Zn7   S    
C45   C47   T    
C34   C143  A    
O26   Zn6   S    
C69   H26   S    
O46   Zn11  S    
C65   C99   A    
C33   O32   A    
C88   H47   S    
C74   H31   S    
C71   H28   S    
C20   C137  S    
O36   Zn15  S    
C42   C156  A    
C43   C44   T    
C46   C77   A    
C152  C170  A    
C13   C63   A    
C150  C168  A    
C3    C164  A    
C72   C106  A    
C53   C89   A    
C18   C130  S    
C78   C113  A    
C26   C123  S    
C105  H63   S    
C37   C45   S    
C106  C130  A    
C30   C127  S    
C55   C111  A    
C72   C166  A    
O3    Zn6   S    
O43   Zn13  S    
C97   H55   S    
C98   H57   S    
C22   C135  S    
O49   Zn7   S    
C8    O45   A    
C83   C117  A    
C60   C155  A    
C16   O8    A    
C118  C129  A    
C6    C12   S    
C161  C174  A    
C113  C124  A    
O23   Zn2   S    
C11   O51   A    
C61   H18   S    
C117  C128  A    
C119  C126  A    
C153  Cl6   S    
C139  C157  A    
C13   C70   A    
C22   O43   A    
C21   O18   A    
C16   O13   A    
C143  C161  A    
C150  Cl3   S    
C57   C74   A    
C54   C88   A    
C115  C121  A    
C116  C123  A    
O48   Zn9   S    
C88   C124  A    
C120  C127  A    
C6    C172  A    
C142  Cl11  S    
O19   Zn7   S    
C82   C89   A    
C4    C170  A    
C3    C9    S    
O6    Zn14  S    
C35   C155  S    
C8    O52   A    
C55   C90   A    
C116  H74   S    
C108  C137  A    
C40   C49   S    
C163  H67   S    
O23   Zn6   S    
C85   C119  A    
C140  C158  A    
C141  C159  A    
O5    Zn15  S    
C147  Cl15  S    
C95   C130  A    
O41   Zn15  S    
C22   O19   A    
C19   O44   A    
C52   C79   A    
C157  C174  A    
O51   Zn16  S    
C28   O36   A    
C66   C101  A    
C153  C171  A    
C112  C136  A    
O8    Zn1   S    
C69   C103  A    
C20   O46   A    
C119  H77   S    
C6    C168  A    
C35   C76   A    
C159  H23   S    
C106  H64   S    
C64   H21   S    
O11   Zn13  S    
O34   Zn5   S    
C46   C144  S    
C162  C175  A    
O25   Zn5   S    
O24   Zn8   S    
C109  C138  A    
C102  C137  A    
C56   C122  A    
C139  Cl1   S    
C33   C124  S    
C154  Cl7   S    
C23   O40   A    
C53   C87   A    
O7    Zn9   S    
C42   C151  A    
C2    C73   A    
C96   C131  A    
C75   H32   S    
C159  C176  A    
C52   H9    S    
C27   O39   A    
C40   C153  A    
O29   Zn16  S    
C92   C127  A    
C23   C134  S    
C76   H33   S    
O9    Zn11  S    
C34   C43   S    
C8    C176  S    
C70   H27   S    
C151  C169  A    
C107  H65   S    
C15   O7    A    
C152  Cl5   S    
C93   C128  A    
C63   C97   A    
C95   H53   S    
C87   C123  A    
C17   O14   A    
O50   Zn2   S    
O13   Zn12  S    
C72   H29   S    
O15   Zn3   S    
C149  Cl2   S    
C160  H34   S    
O4    Zn5   S    
C66   H24   S    
C11   O4    A    
O30   Zn2   S    
C31   O28   A    
C158  C175  A    
C56   H14   S    
C1    C24   S    
C84   C118  A    
C105  C134  A    
C86   C120  A    
C141  Cl10  S    
C25   C132  S    
C58   C92   A    
C12   O5    A    
C170  H5    S    
C60   C94   A    
C148  Cl16  S    
C62   C96   A    
C143  Cl12  S    
C149  C167  A    
O34   Zn11  S    
C156  Cl8   S    
C37   C141  A    
C165  H80   S    
C46   C66   A    
C171  H6    S    
O16   Zn6   S    
C70   C104  A    
C73   C107  A    
C161  H45   S    
C35   C65   A    
C1    C81   A    
C4    C165  A    
O35   Zn12  S    
C110  H69   S    
C15   O11   A    
C56   C91   A    
O47   Zn1   S    
C68   C69   A    
C168  H3    S    
C39   C148  A    
O1    Zn8   S    
C37   C146  A    
C60   H17   S    
C27   O24   A    
C12   O9    A    
O38   Zn9   S    
C64   C98   A    
O12   Zn13  S    
C24   C64   A    
C17   O47   A    
C18   O48   A    
C101  H59   S    
C29   O37   A    
C96   H54   S    
O34   Zn15  S    
C58   C133  A    
C55   H13   S    
C9    O49   A    
C85   H42   S    
O23   Zn10  S    
C67   H25   S    
C93   H51   S    
C103  C138  A    
C68   C122  S    
C41   C150  A    
C156  C173  A    
O37   Zn14  S    
C29   O26   A    
C32   O29   A    
C86   C133  A    
O52   Zn4   S    
C50   C51   T    
C99   C135  A    
C85   C122  A    
O39   Zn1   S    
C118  H76   S    
O17   Zn5   S    
C48   C49   T    
C77   H35   S    
C81   H38   S    
C71   C105  A    
C78   C100  A    
C103  H61   S    
O12   Zn3   S    
C41   C50   S    
O2    Zn3   S    
C164  H78   S    
O27   Zn3   S    
C145  Cl13  S    
C54   H11   S    
O23   Zn14  S    
O14   Zn4   S    
C61   C95   A    
O40   Zn14  S    
C18   O15   A    
C11   C175  S    
C53   H10   S    
C109  H68   S    
C82   C116  A    
C65   H22   S    
C151  Cl4   S    
C25   O41   A    
C26   O38   A    
C80   C111  A    
C32   O31   A    
C90   C125  A    
C40   C149  A    
O28   Zn4   S    
C10   O50   A    
C162  H56   S    
C1    C52   A    
C38   C147  A    
C74   C108  A    
C76   C110  A    
C104  C132  A    
O12   Zn7   S    
C115  H73   S    
C39   C48   S    
O1    Zn1   S    
C91   C126  A    
C77   C112  A    
C158  H12   S    
C108  H66   S    
C80   H37   S    
C14   O10   A    
O44   Zn10  S    
O10   Zn10  S    
C120  H79   S    
C73   H30   S    
C102  H60   S    
C20   O17   A    
C30   O33   A    
C83   C144  A    
C84   C155  A    
C30   O27   A    
C145  C162  A    
C19   O16   A    
C34   C139  A    
C104  H62   S    
C28   C129  S    
O33   Zn13  S    
C94   H52   S    
C5    C16   S    
C92   H50   S    
C7    C14   S    
C62   H19   S    
C21   C136  S    
C42   C51   S    
C2    C100  S    
C38   C142  A    
C54   C100  A    
C110  C135  A    
C57   C67   A    
C99   H58   S    
C163  C176  A    
O20   Zn2   S    
C169  H4    S    
O45   Zn8   S    
C78   H36   S    
C75   C109  A    
C94   C129  A    
C9    O2    A    
C107  C131  A    
C23   O20   A    
C114  C125  A    
C39   C152  A    
O1    Zn12  S    
C32   C125  S    
C36   C145  A    
C81   C115  A    
C5    C171  A    
C154  C172  A    
C111  C166  S    
C117  H75   S    
O12   Zn9   S    
C36   C140  A    
C38   C47   S    
O1    Zn4   S    
C80   C114  A    
C59   C144  A    
C3    C160  A    
C167  H2    S    
C28   O25   A    
C41   C154  A    
C101  C136  A    
C13   C89   S    
C26   O22   A    
C142  C160  A    
C146  C163  A    
C98   C134  A    
C86   H43   S    
C90   H48   S    
C4    C15   S    
C7    C169  A    
C84   H41   S    
C33   O30   A    
C58   H15   S    
C19   C138  S    
C7    C173  A    
C5    C167  A    
C36   C44   S    
C24   C71   A    
C29   C128  S    
O18   Zn8   S    
C146  Cl14  S    
C59   C93   A    
C31   C126  S    
C2    C62   A    
C67   C102  A    
C112  H70   S    
