data_mof_unit_27447.cif
_audit_creation_date              2012-12-11T15:31:38-0500
_audit_creation_method            fapswitch 2.2
_symmetry_space_group_name_H-M    P1
_symmetry_Int_Tables_number       1
_space_group_crystal_system       triclinic
_cell_length_a                    6.954538
_cell_length_b                    14.776662
_cell_length_c                    21.383427
_cell_angle_alpha                 74.52457
_cell_angle_beta                  90.726716
_cell_angle_gamma                 89.843078
_cell_volume                      2117.5825667

loop_
_atom_site_label
_atom_site_type_symbol
_atom_type_description
_atom_site_fract_x
_atom_site_fract_y
_atom_site_fract_z
_atom_type_partial_charge
O1    O     O_R   0.648150 0.130050 0.214300 -0.537551
O2    O     O_R   0.351850 0.869950 0.785700 -0.537518
O3    O     O_R   0.320490 0.006660 0.340150 -0.549274
O4    O     O_R   0.679510 0.993340 0.659850 -0.549268
O5    O     O_R   0.146100 0.869940 0.285700 -0.549565
O6    O     O_R   0.853900 0.130060 0.714300 -0.549562
C1    C     C_R   0.489758 0.002723 0.366802 0.705959
C2    C     C_R   0.510242 0.997275 0.633198 0.705948
O7    O     O_R   0.318690 0.137980 0.218120 -0.516617
O8    O     O_R   0.681310 0.862020 0.781880 -0.516604
O9    O     O_R   0.144280 0.002190 0.162800 -0.537782
O10   O     O_R   0.855720 0.997810 0.837200 -0.537814
C3    C     C_R   0.487343 0.175975 0.205820 0.758788
C4    C     C_R   0.512660 0.824024 0.794178 0.758681
O11   O     O_R   0.649960 0.997790 0.337200 -0.535240
O12   O     O_R   0.350040 0.002210 0.662800 -0.535241
O13   O     O_3   0.479300 0.955290 0.231990 -0.388925
O14   O     O_3   0.520700 0.044710 0.768010 -0.388952
V1    V     V_3+5 0.206040 0.008290 0.253340 1.495430
V2    V     V_3+5 0.793960 0.991710 0.746660 1.495439
O15   O     O_R   0.814320 0.993320 0.159850 -0.535531
O16   O     O_R   0.185680 0.006680 0.840150 -0.535539
C5    C     C_R   0.980544 0.004483 0.131931 0.842906
C6    C     C_R   0.019453 0.995522 0.868067 0.842896
O17   O     O_R   0.816120 0.862000 0.281880 -0.549824
O18   O     O_R   0.183880 0.138000 0.718120 -0.549840
C7    C     C_R   0.986330 0.824067 0.293335 0.775096
C8    C     C_R   0.013669 0.175933 0.706667 0.775087
V3    V     V_3+5 0.705540 0.991700 0.246660 1.483372
V4    V     V_3+5 0.294460 0.008300 0.753340 1.483337
O19   O     O_3   0.982150 0.044700 0.268010 -0.368079
O20   O     O_3   0.017850 0.955300 0.731990 -0.368045
C9    C     C_R   0.000985 0.721886 0.320655 -0.180204
C10   C     C_R   0.999011 0.278114 0.679349 -0.180216
C11   C     C_R   0.073558 0.565836 0.310049 0.171549
C12   C     C_R   0.926404 0.434162 0.689955 0.171513
C13   C     C_R   0.063644 0.663470 0.282885 0.408745
C14   C     C_R   0.936288 0.336526 0.717115 0.408799
C15   C     C_R   0.968582 0.684348 0.386768 -0.305332
C16   C     C_R   0.031470 0.315659 0.613240 -0.305344
C17   C     C_R   0.999993 0.587877 0.417322 0.054361
C18   C     C_R   0.000052 0.412128 0.582686 0.054359
C19   C     C_R   0.045140 0.527898 0.377357 0.017197
C20   C     C_R   0.954875 0.472104 0.622651 0.017196
C21   C     C_R   0.987718 0.549359 0.486167 0.094204
C22   C     C_R   0.012340 0.450648 0.513842 0.094207
C23   C     C_R   0.044623 0.393391 0.471641 -0.208930
C24   C     C_R   0.955430 0.606614 0.528368 -0.208916
C25   C     C_R   0.062739 0.431254 0.405381 -0.147800
C26   C     C_R   0.937290 0.568750 0.594627 -0.147801
H1    H     H_    0.091437 0.382981 0.376462 0.177801
H2    H     H_    0.908578 0.617022 0.623546 0.177802
H3    H     H_    0.078054 0.266793 0.587028 0.129948
H4    H     H_    0.922045 0.733218 0.412983 0.129945
H5    H     H_    0.056274 0.318098 0.487995 0.133723
H6    H     H_    0.943778 0.681907 0.512015 0.133731
C27   C     C_3   0.841800 0.955541 0.983988 -0.399200
C28   C     C_3   0.158189 0.044467 0.016010 -0.399178
C29   C     C_3   0.987915 0.914641 0.039931 0.381112
C30   C     C_3   0.012066 0.085365 0.960069 0.381045
H7    H     H_    0.719672 0.919076 0.967866 0.201571
H8    H     H_    0.280308 0.080946 0.032123 0.201803
C31   C     C_3   0.985367 0.006569 0.060938 -0.220449
C32   C     C_3   0.014622 0.993438 0.939061 -0.220421
C33   C     C_3   0.841603 0.048443 0.004431 0.422509
C34   C     C_3   0.158383 0.951558 0.995570 0.422538
C35   C     C_3   0.610510 0.068706 0.467851 0.538391
C36   C     C_3   0.389491 0.931288 0.532150 0.538388
C37   C     C_3   0.434166 0.082857 0.507658 -0.290034
C38   C     C_3   0.565835 0.917138 0.492343 -0.290020
H9    H     H_    0.378370 0.150079 0.514319 0.125723
H10   H     H_    0.621629 0.849915 0.485681 0.125726
C39   C     C_3   0.502114 0.997914 0.562817 -0.134537
C40   C     C_3   0.497887 0.002080 0.437184 -0.134529
C41   C     C_3   0.681273 0.984990 0.523254 -0.202735
C42   C     C_3   0.318728 0.015004 0.476747 -0.202735
H11   H     H_    0.831704 0.974044 0.541878 0.162525
H12   H     H_    0.168296 0.025950 0.458123 0.162526
C43   C     C_R   0.501286 0.278173 0.178304 -0.070581
C44   C     C_R   0.498731 0.721820 0.821673 -0.070623
C45   C     C_R   0.632544 0.426845 0.185011 -0.063824
C46   C     C_R   0.367386 0.573160 0.814967 -0.063840
C47   C     C_R   0.607204 0.330972 0.211912 -0.165779
C48   C     C_R   0.392619 0.669049 0.788091 -0.165687
C49   C     C_R   0.429569 0.321335 0.115625 0.193972
C50   C     C_R   0.570724 0.678609 0.884306 0.193896
C51   C     C_R   0.494386 0.412642 0.082483 0.045705
C52   C     C_R   0.505953 0.587302 0.917450 0.045792
C53   C     C_R   0.577533 0.468084 0.120426 0.122782
C54   C     C_R   0.422659 0.531883 0.879521 0.122872
C55   C     C_R   0.480423 0.451443 0.013783 0.088624
C56   C     C_R   0.520030 0.548494 0.986146 0.088621
C57   C     C_R   0.559492 0.604631 0.028440 -0.156084
C58   C     C_R   0.441015 0.395312 0.971480 -0.156170
C59   C     C_R   0.600198 0.564414 0.093798 -0.173461
C60   C     C_R   0.400112 0.435543 0.906136 -0.173411
H13   H     H_    0.645527 0.609118 0.123956 0.126140
H14   H     H_    0.354701 0.390849 0.875981 0.126222
H15   H     H_    0.335417 0.701561 0.740106 0.119842
H16   H     H_    0.664193 0.298492 0.259931 0.119771
H17   H     H_    0.701708 0.468014 0.213781 0.160017
H18   H     H_    0.298092 0.532011 0.786210 0.160043
H19   H     H_    0.557943 0.680075 0.011449 0.159445
H20   H     H_    0.442712 0.319868 0.988457 0.159614
O21   O     O_3   0.741561 0.137181 0.434921 -0.558109
C61   C     C_3   0.641033 0.219102 0.401865 -0.241844
H21   H     H_    0.576694 0.254295 0.436582 0.144493
H22   H     H_    0.528880 0.204141 0.368437 0.116629
H23   H     H_    0.745078 0.268983 0.372459 0.170409
O22   O     O_3   0.258445 0.862810 0.565078 -0.558114
C62   C     C_3   0.358987 0.780906 0.598160 -0.241785
H24   H     H_    0.471058 0.795892 0.631606 0.116619
H25   H     H_    0.423430 0.745710 0.563463 0.144481
H26   H     H_    0.254931 0.731016 0.627552 0.170390
Br1   Br    Br    0.796544 0.733004 0.912483 -0.620175
Br2   Br    Br    0.204084 0.266804 0.087348 -0.620611
O23   O     O_3   0.893102 0.298649 0.781686 -0.534858
C63   C     C_3   0.691119 0.291179 0.788105 -0.142465
H27   H     H_    0.644391 0.220621 0.785305 0.137663
H28   H     H_    0.607667 0.345786 0.751681 0.129300
H29   H     H_    0.652695 0.299664 0.836380 0.154386
O24   O     O_3   0.106749 0.701340 0.218306 -0.534868
C64   C     C_3   0.308720 0.708826 0.211855 -0.142227
H30   H     H_    0.392250 0.654305 0.248319 0.129163
H31   H     H_    0.355404 0.779433 0.214561 0.137615
H32   H     H_    0.347098 0.700218 0.163607 0.154503
Br3   Br    Br    0.131936 0.487527 0.253211 -0.603381
Br4   Br    Br    0.867984 0.512468 0.746792 -0.603362
O25   O     O_3   0.978900 0.828543 0.088330 -0.555761
C65   C     C_3   0.971899 0.753692 0.059566 -0.144250
H33   H     H_    0.992631 0.686999 0.097910 0.202076
H34   H     H_    0.086693 0.757390 0.023275 0.187265
H35   H     H_    0.828400 0.751513 0.037651 0.151072
O26   O     O_3   0.020970 0.171476 0.911680 -0.555756
C66   C     C_3   0.027995 0.246326 0.940447 -0.143894
H36   H     H_    0.914206 0.242276 0.977124 0.187222
H37   H     H_    0.005709 0.312971 0.902183 0.202171
H38   H     H_    0.172003 0.248940 0.961902 0.151019
O27   O     O_3   0.678173 0.102639 0.009309 -0.557542
C67   C     C_3   0.575834 0.123758 0.949644 -0.249224
H39   H     H_    0.499191 0.061047 0.943344 0.184468
H40   H     H_    0.668978 0.150657 0.907272 0.167587
H41   H     H_    0.468764 0.179428 0.949027 0.152022
O28   O     O_3   0.321801 0.897362 0.990678 -0.557564
C68   C     C_3   0.424140 0.876206 0.050342 -0.249507
H42   H     H_    0.330990 0.849263 0.092707 0.167552
H43   H     H_    0.500754 0.938910 0.056669 0.184527
H44   H     H_    0.531233 0.820551 0.050937 0.152040

loop_
_geom_bond_atom_site_label_1
_geom_bond_atom_site_label_2
_ccdc_geom_bond_type
C28   H8    S    
C66   H38   S    
V4    O20   S    
C3    C43   S    
C51   C55   A    
O13   V3    S    
C62   H24   S    
C67   H41   S    
C43   C49   A    
O4    C2    A    
V1    O19   S    
C57   H19   S    
C31   C33   S    
C68   H42   S    
C64   H30   S    
C23   C25   A    
C45   H17   S    
C21   C22   A    
C7    C9    S    
O9    V1    S    
C9    C15   A    
C40   C42   S    
C10   C16   A    
C11   C13   A    
C42   H12   S    
O3    C1    A    
C29   C34   S    
C50   C52   A    
C5    C31   S    
C27   C29   S    
C15   H4    S    
C34   O28   S    
C61   H21   S    
C28   C30   S    
C37   C42   S    
C24   H6    S    
C18   C22   A    
C37   H9    S    
O7    C3    A    
C63   H27   S    
C56   C57   A    
C44   C50   A    
C68   H43   S    
O5    C7    A    
C14   O23   S    
O7    V1    S    
O6    C8    A    
C52   C56   A    
O8    V2    S    
C25   H1    S    
C60   H14   S    
C38   C40   S    
C26   H2    S    
C37   C39   S    
O14   V4    S    
C4    C44   S    
C11   C19   A    
C44   C48   A    
C58   C60   A    
C45   C53   A    
C1    O11   A    
C58   H20   S    
C2    O12   A    
C17   C19   A    
C12   Br4   S    
C18   C20   A    
C45   C47   A    
C28   C34   S    
C30   C32   S    
O11   V3    S    
C1    C40   S    
C49   C51   A    
O17   V3    S    
C66   H36   S    
C67   H39   S    
C15   C17   A    
O8    C4    A    
C55   C56   A    
C35   O21   S    
C64   H32   S    
C36   C39   S    
O15   V3    S    
C54   C60   A    
C9    C13   A    
O22   C62   S    
C50   Br1   S    
C35   C37   S    
C63   H29   S    
O4    V2    S    
C53   C59   A    
C65   H34   S    
O10   V2    S    
O1    V3    S    
C46   H18   S    
C62   H25   S    
C35   C40   S    
C36   O22   S    
C36   C42   S    
O3    V1    S    
C24   C26   A    
C41   H11   S    
O5    V1    S    
C36   C38   S    
C52   C54   A    
C30   C33   S    
O18   V4    S    
C46   C48   A    
C47   H16   S    
O15   C5    A    
O16   C6    A    
C12   C20   A    
C65   H35   S    
C35   C41   S    
C39   C41   S    
C30   O26   S    
C11   Br3   S    
C68   H44   S    
C27   C32   S    
C23   H5    S    
O25   C65   S    
V2    O20   S    
C21   C24   A    
C20   C26   A    
C28   C31   S    
C66   H37   S    
C22   C23   A    
C29   O25   S    
O16   V4    S    
C10   C14   A    
C48   H15   S    
O18   C8    A    
C49   Br2   S    
C19   C25   A    
C27   C33   S    
C16   C18   A    
O27   C67   S    
C59   H13   S    
C27   H7    S    
O26   C66   S    
C67   H40   S    
O17   C7    A    
O6    V2    S    
O21   C61   S    
O10   C6    A    
C29   C31   S    
C46   C54   A    
O2    V4    S    
O28   C68   S    
C12   C14   A    
C65   H33   S    
V3    O19   S    
O23   C63   S    
C55   C58   A    
C43   C47   A    
C61   H22   S    
O9    C5    A    
C2    C39   S    
O13   V1    S    
C6    C32   S    
C62   H26   S    
O14   V2    S    
O2    C4    A    
C63   H28   S    
C64   H31   S    
C8    C10   S    
C13   O24   S    
C33   O27   S    
O1    C3    A    
C57   C59   A    
C16   H3    S    
C38   C41   S    
C51   C53   A    
C17   C21   A    
C38   H10   S    
O24   C64   S    
O12   V4    S    
C32   C34   S    
C61   H23   S    
