data_mof_unit_44632.cif
_audit_creation_date              2012-12-10T18:38:07-0500
_audit_creation_method            fapswitch 2.2
_symmetry_space_group_name_H-M    P1
_symmetry_Int_Tables_number       1
_space_group_crystal_system       triclinic
_cell_length_a                    15.205496
_cell_length_b                    14.020674
_cell_length_c                    10.655549
_cell_angle_alpha                 90.388531
_cell_angle_beta                  96.431989
_cell_angle_gamma                 90.552875
_cell_volume                      2257.19565642

loop_
_atom_site_label
_atom_site_type_symbol
_atom_type_description
_atom_site_fract_x
_atom_site_fract_y
_atom_site_fract_z
_atom_type_partial_charge
C1    C     C_R   0.329937 0.499672 0.504901 0.796927
C2    C     C_R   0.669325 0.500818 0.492102 0.799528
C3    C     C_R   0.558712 0.106722 0.579439 -0.267905
C4    C     C_R   0.452401 0.893916 0.405688 -0.258050
C5    C     C_R   0.427131 0.107184 0.437650 -0.257503
C6    C     C_R   0.534563 0.894361 0.607030 -0.258409
C7    C     C_R   0.562229 0.207214 0.578052 0.505730
C8    C     C_R   0.452028 0.793074 0.403621 0.518263
C9    C     C_R   0.434958 0.207071 0.424512 0.506942
C10   C     C_R   0.543775 0.794478 0.600172 0.497626
C11   C     C_R   0.490768 0.054732 0.511246 0.029276
C12   C     C_R   0.491319 0.946462 0.508696 0.020356
C13   C     C_R   0.502583 0.499629 0.260111 0.863823
C14   C     C_R   0.498960 0.500111 0.740328 0.842415
C15   C     C_3   0.421018 0.516015 0.032683 -0.140540
C16   C     C_3   0.584022 0.482065 0.968231 -0.238629
C17   C     C_3   0.474909 0.585087 0.956855 -0.105105
C18   C     C_3   0.530267 0.413167 0.044503 -0.151469
C19   C     C_3   0.446983 0.431583 0.951980 0.009096
C20   C     C_3   0.558519 0.566605 0.049330 0.024278
C21   C     C_3   0.500012 0.499797 0.877339 -0.094525
C22   C     C_3   0.504970 0.498695 0.123892 -0.044133
C23   C     C_R   0.090271 0.575211 0.449101 -0.134202
C24   C     C_R   0.893770 0.422269 0.406939 -0.095713
C25   C     C_R   0.912525 0.567767 0.529413 -0.132311
C26   C     C_R   0.092937 0.408508 0.503179 -0.095603
C27   C     C_R   0.181860 0.582366 0.474634 -0.026444
C28   C     C_R   0.801506 0.427604 0.406112 0.000345
C29   C     C_R   0.821560 0.577396 0.526723 -0.046265
C30   C     C_R   0.185572 0.411245 0.523738 -0.004422
C31   C     C_R   0.231954 0.498420 0.505060 -0.202543
C32   C     C_R   0.764648 0.502781 0.473637 -0.183799
C33   C     C_R   0.045447 0.490131 0.467460 0.023791
C34   C     C_R   0.949013 0.491889 0.468929 0.025052
Cu1   Cu    Cu3+1 0.500000 0.596430 0.500000 1.090957
Cu2   Cu    Cu3+1 0.500000 0.403570 0.500000 1.070202
H1    H     H_    0.353851 0.528768 0.060114 0.171271
H2    H     H_    0.651294 0.469348 0.941121 0.172019
H3    H     H_    0.448087 0.653969 0.920492 0.217543
H4    H     H_    0.554601 0.343246 0.081099 0.206188
H5    H     H_    0.052516 0.638669 0.422902 0.180371
H6    H     H_    0.922755 0.365952 0.355378 0.187307
H7    H     H_    0.955824 0.622341 0.575875 0.177447
H8    H     H_    0.057186 0.343934 0.522527 0.187218
H9    H     H_    0.612597 0.068483 0.630309 0.213372
H10   H     H_    0.422573 0.931777 0.324112 0.212686
H11   H     H_    0.373858 0.069247 0.382617 0.211624
H12   H     H_    0.562841 0.931852 0.691284 0.212164
N1    N     N_R   0.500000 0.258690 0.500000 -0.304108
N2    N     N_R   0.500000 0.741310 0.500000 -0.300840
O1    O     O_R   0.371460 0.581430 0.500010 -0.571649
O2    O     O_R   0.628540 0.418570 0.499990 -0.534044
O3    O     O_R   0.628540 0.581430 0.499990 -0.549719
O4    O     O_R   0.371460 0.418570 0.500010 -0.561613
O5    O     O_R   0.499980 0.581420 0.316850 -0.478796
O6    O     O_R   0.500020 0.418580 0.683150 -0.567484
O7    O     O_R   0.500020 0.581420 0.683150 -0.530687
O8    O     O_R   0.499980 0.418580 0.316850 -0.554567
C35   C     C_2   0.385316 0.354739 0.896392 0.410188
H13   H     H_    0.410276 0.297594 0.841579 0.097053
O9    O     O_2   0.307184 0.355787 0.912695 -0.527979
C36   C     C_2   0.625997 0.640092 0.099779 0.450108
H14   H     H_    0.657852 0.684294 0.034845 0.135415
O10   O     O_2   0.647078 0.649482 0.213054 -0.551029
C37   C     C_2   0.220072 0.680495 0.479131 0.481579
H15   H     H_    0.274335 0.700387 0.549447 0.082027
O11   O     O_2   0.188597 0.741824 0.407095 -0.481400
C38   C     C_2   0.745078 0.359307 0.324634 0.476668
H16   H     H_    0.676189 0.374708 0.295249 0.051371
O12   O     O_2   0.775488 0.285474 0.286967 -0.485127
C39   C     C_2   0.790786 0.670011 0.572208 0.507075
H17   H     H_    0.733264 0.704487 0.524266 0.137310
O13   O     O_2   0.832585 0.711728 0.661045 -0.482214
C40   C     C_2   0.230344 0.323927 0.575650 0.494437
H18   H     H_    0.291587 0.328935 0.638012 0.062257
O14   O     O_2   0.197967 0.244960 0.551450 -0.490741
S1    S     S_3+6 0.661024 0.254535 0.664757 0.053764
O15   O     O_2   0.691912 0.186646 0.768826 -0.259433
O16   O     O_2   0.731039 0.259206 0.576055 -0.267410
O17   O     O_3   0.653701 0.361668 0.732961 -0.522333
H19   H     H_    0.715701 0.382611 0.757443 0.359338
S2    S     S_3+6 0.391259 0.745274 0.263308 0.051893
O18   O     O_2   0.321107 0.815339 0.215759 -0.258426
O19   O     O_2   0.453972 0.736276 0.164844 -0.279363
O20   O     O_3   0.339916 0.640186 0.277866 -0.529891
H20   H     H_    0.291184 0.637673 0.207950 0.364699
S3    S     S_3+6 0.375147 0.249815 0.281610 0.067472
O21   O     O_2   0.437066 0.244941 0.181513 -0.306091
O22   O     O_2   0.298282 0.183711 0.242708 -0.239100
O23   O     O_3   0.333909 0.360163 0.282882 -0.504859
H21   H     H_    0.311184 0.373159 0.193933 0.377404
S4    S     S_3+6 0.612823 0.751107 0.733878 0.011174
O24   O     O_2   0.690429 0.818591 0.758393 -0.245642
O25   O     O_2   0.560297 0.758205 0.844492 -0.337634
O26   O     O_3   0.653918 0.640871 0.727805 -0.535176
H22   H     H_    0.687663 0.630978 0.811638 0.349874

loop_
_geom_bond_atom_site_label_1
_geom_bond_atom_site_label_2
_ccdc_geom_bond_type
C14   O6    A    
S3    O21   D    
C16   C21   S    
Cu1   O3    S    
C24   H6    S    
O26   H22   S    
C3    C11   A    
C4    C8    A    
C25   H7    S    
C26   H8    S    
C4    H10   S    
O20   H20   S    
C15   C19   S    
C5    H11   S    
Cu2   O6    S    
C40   O14   D    
C8    S2    S    
C14   C21   S    
C19   C21   S    
C5    C11   A    
C29   C32   A    
Cu2   O8    S    
C6    C12   A    
C30   C31   A    
C30   C40   S    
C37   O11   D    
C1    C31   S    
C17   C20   S    
C2    C32   S    
C18   C19   S    
C17   H3    S    
C18   H4    S    
C15   H1    S    
C36   O10   D    
C15   C22   S    
Cu1   Cu2   S    
C38   H16   S    
C23   C33   A    
C23   C27   A    
C4    C12   A    
Cu2   O2    S    
C25   C34   A    
C7    S1    S    
C10   S4    S    
C35   H13   S    
S1    O16   D    
C25   C29   A    
C35   O9    D    
C40   H18   S    
Cu1   O5    S    
C28   C32   A    
C9    N1    A    
C7    N1    A    
C39   O13   D    
C13   O8    A    
C19   C35   S    
S1    O15   D    
C27   C31   A    
C3    H9    S    
S4    O26   S    
C24   C34   A    
C1    O4    A    
C5    C9    A    
C36   H14   S    
C27   C37   S    
C26   C33   A    
C16   C20   S    
Cu1   N2    S    
S4    O25   D    
C33   C34   S    
C1    O1    A    
C6    H12   S    
C2    O2    A    
C38   O12   D    
C20   C22   S    
C26   C30   A    
S2    O19   D    
S3    O22   D    
Cu1   O1    S    
C10   N2    A    
C8    N2    A    
S1    O17   S    
C15   C17   S    
C14   O7    A    
C28   C38   S    
C18   C22   S    
C24   C28   A    
C29   C39   S    
O17   H19   S    
C2    O3    A    
C6    C10   A    
C11   C12   S    
S2    O20   S    
C3    C7    A    
C23   H5    S    
Cu1   O7    S    
C39   H17   S    
C9    S3    S    
O23   H21   S    
S4    O24   D    
C13   C22   S    
C20   C36   S    
C17   C21   S    
Cu2   O4    S    
C16   C18   S    
C37   H15   S    
S3    O23   S    
S2    O18   D    
Cu2   N1    S    
C16   H2    S    
C13   O5    A    
