data_mof_unit_65519.cif
_audit_creation_date              2012-10-26T17:28:02-0400
_audit_creation_method            fapswitch 2.2
_symmetry_space_group_name_H-M    P1
_symmetry_Int_Tables_number       1
_space_group_crystal_system       triclinic
_cell_length_a                    18.750749
_cell_length_b                    18.746165
_cell_length_c                    18.807993
_cell_angle_alpha                 109.218131
_cell_angle_beta                  109.8224
_cell_angle_gamma                 109.149111
_cell_volume                      5103.08594932

loop_
_atom_site_label
_atom_site_type_symbol
_atom_type_description
_atom_site_fract_x
_atom_site_fract_y
_atom_site_fract_z
_atom_type_partial_charge
C1    C     C_R   0.618248 0.618873 0.499555 0.534871
C2    C     C_R   0.827497 0.751293 0.515451 0.037408
C3    C     C_3   0.848639 0.688850 0.466032 -0.273830
C4    C     C_R   0.380583 0.500002 0.380620 0.579946
C5    C     C_3   0.777460 0.617615 0.463398 -0.262149
C6    C     C_R   0.690256 0.426622 0.678735 0.012752
C7    C     C_R   0.687736 0.501952 0.687218 0.019557
C8    C     C_R   0.753724 0.580375 0.765080 -0.140003
C9    C     C_R   0.819547 0.580433 0.830055 -0.141041
C10   C     C_R   0.818209 0.501718 0.818857 0.028426
C11   C     C_R   0.751431 0.426297 0.742190 0.011736
C12   C     C_3   0.184514 0.486484 0.265305 0.406816
C13   C     C_3   0.716133 0.330932 0.692003 -0.262587
C14   C     C_3   0.645529 0.331056 0.619931 -0.243822
C15   C     C_R   0.250764 0.237676 0.426916 -0.008531
C16   C     C_R   0.381485 0.381389 0.500234 0.564941
C17   C     C_R   0.316143 0.315605 0.501916 -0.041122
C18   C     C_R   0.315616 0.328907 0.580124 -0.104638
C19   C     C_R   0.251097 0.264017 0.580512 0.363917
C20   C     C_R   0.184991 0.186415 0.502019 0.027681
C21   C     C_R   0.187202 0.176879 0.426724 -0.059251
C22   C     C_3   0.143091 0.116502 0.331601 0.285322
C23   C     C_3   0.277614 0.564044 0.331112 -0.140563
C24   C     C_3   0.214981 0.186326 0.331514 0.325839
C25   C     C_R   0.002906 0.618625 0.121423 0.561988
C26   C     C_R   0.123270 0.500262 0.123515 0.619738
C27   C     C_R   0.004696 0.381331 0.885806 0.559226
C28   C     C_R   0.619831 0.500321 0.619685 0.537633
C29   C     C_R   0.884472 0.500079 0.884330 0.527718
C30   C     C_R   0.999196 0.118629 0.617716 0.553898
C31   C     C_R   0.881301 0.881283 0.500192 0.525142
C32   C     C_R   0.001113 0.881585 0.382229 0.529878
C33   C     C_R   0.118544 0.118787 0.500258 0.579769
C34   C     C_3   0.312965 0.500413 0.313036 -0.073655
C35   C     C_R   0.011694 0.686486 0.262769 -0.016264
C36   C     C_R   0.001483 0.685114 0.185815 0.016953
C37   C     C_R   0.991066 0.752050 0.173416 -0.141503
C38   C     C_R   0.989914 0.816548 0.237527 -0.138922
C39   C     C_R   0.002068 0.816176 0.315754 0.006319
C40   C     C_3   0.320878 0.514808 0.239325 -0.176019
C41   C     C_R   0.013839 0.749993 0.325563 -0.005672
C42   C     C_3   0.028888 0.713642 0.385265 0.322475
C43   C     C_3   0.027353 0.641726 0.313832 0.336900
C44   C     C_R   0.930020 0.235710 0.756920 0.004067
C45   C     C_R   0.762965 0.686505 0.513217 0.016483
C46   C     C_R   0.004769 0.315491 0.818715 0.019863
C47   C     C_R   0.080661 0.330801 0.812101 -0.117356
C48   C     C_R   0.079237 0.265994 0.745843 -0.122734
C49   C     C_R   0.001252 0.186536 0.683965 0.016695
C50   C     C_R   0.927942 0.174985 0.691566 0.002276
C51   C     C_3   0.835089 0.111124 0.654774 0.275472
C52   C     C_3   0.284369 0.578214 0.256255 -0.231994
C53   C     C_3   0.836931 0.180678 0.728607 0.296527
C54   C     C_3   0.191102 0.500585 0.191577 -0.007254
C55   C     C_3   0.226921 0.438016 0.174910 0.379631
C56   C     C_R   0.685557 0.686768 0.501489 0.018053
C57   C     C_3   0.220248 0.423704 0.248590 0.439045
C58   C     C_R   0.677875 0.758862 0.501246 -0.138297
C59   C     C_R   0.742056 0.823168 0.500780 -0.141987
C60   C     C_R   0.815589 0.817092 0.503600 0.016844
Cu1   Cu    Cu3+1 0.500490 0.438210 0.438660 1.059313
Cu2   Cu    Cu3+1 0.499510 0.561790 0.561340 1.010581
Cu3   Cu    Cu3+1 0.942090 0.438240 0.003860 1.114482
Cu4   Cu    Cu3+1 0.065700 0.561800 0.003830 1.008538
Cu5   Cu    Cu3+1 0.937720 0.000020 0.437750 1.085712
Cu6   Cu    Cu3+1 0.062280 0.000080 0.562350 1.096085
F1    F     F_    0.252318 0.277694 0.656525 -0.620612
F2    F     F_    0.113464 0.471346 0.277551 -0.529127
F3    F     F_    0.061723 0.107086 0.287575 -0.593622
F4    F     F_    0.270382 0.159434 0.313643 -0.606449
F5    F     F_    0.110290 0.768521 0.459510 -0.532668
F6    F     F_    0.107883 0.646450 0.337244 -0.523238
F7    F     F_    0.199340 0.372945 0.093723 -0.568727
F8    F     F_    0.782501 0.096840 0.573521 -0.626897
F9    F     F_    0.829140 0.156268 0.788666 -0.599157
F10   F     F_    0.188038 0.344305 0.245412 -0.562196
H1    H     H_    0.309767 0.641872 0.258534 0.176645
H2    H     H_    0.974146 0.690588 0.397664 0.039680
H3    H     H_    0.971989 0.575391 0.283605 0.094139
H4    H     H_    0.794780 0.207943 0.707153 0.134686
H5    H     H_    0.298721 0.615749 0.396164 0.197503
H6    H     H_    0.620576 0.763234 0.497242 0.143481
H7    H     H_    0.833395 0.682293 0.400912 0.124030
H8    H     H_    0.802958 0.588900 0.501976 0.153891
H9    H     H_    0.755189 0.641253 0.775082 0.145257
H10   H     H_    0.761754 0.315436 0.673524 0.143405
H11   H     H_    0.649952 0.314671 0.559712 0.168636
H12   H     H_    0.915139 0.701251 0.506264 0.166681
H13   H     H_    0.579046 0.296972 0.609856 0.157900
H14   H     H_    0.192104 0.217741 0.294991 0.222762
H15   H     H_    0.980962 0.866994 0.226599 0.161188
H16   H     H_    0.140995 0.391738 0.858589 0.161764
H17   H     H_    0.138363 0.278016 0.742653 0.186231
H18   H     H_    0.825930 0.051008 0.658408 0.148866
H19   H     H_    0.733615 0.876430 0.496701 0.161640
H20   H     H_    0.720785 0.569772 0.396721 0.159517
H21   H     H_    0.870309 0.641194 0.888958 0.131144
H22   H     H_    0.690411 0.296099 0.723047 0.165530
H23   H     H_    0.365366 0.388512 0.640661 0.163465
H24   H     H_    0.377729 0.525945 0.229277 0.159222
H25   H     H_    0.143966 0.054292 0.315660 0.146357
H26   H     H_    0.982766 0.753799 0.114249 0.134887
O1    O     O_R   0.590590 0.537990 0.448210 -0.520885
O2    O     O_R   0.051820 0.090220 0.642110 -0.501946
O3    O     O_R   0.857230 0.909860 0.447430 -0.511002
O4    O     O_R   0.589760 0.642350 0.551800 -0.509715
O5    O     O_R   0.962420 0.909900 0.552660 -0.507443
O6    O     O_R   0.948170 0.909880 0.357990 -0.520041
O7    O     O_R   0.053360 0.909920 0.463210 -0.468486
O8    O     O_R   0.037580 0.090200 0.447440 -0.475474
O9    O     O_R   0.142770 0.090240 0.552670 -0.474259
O10   O     O_R   0.409550 0.447830 0.357350 -0.474772
O11   O     O_R   0.408710 0.552190 0.460940 -0.508199
O12   O     O_R   0.055390 0.642370 0.093330 -0.505209
O13   O     O_R   0.410240 0.357650 0.448200 -0.454668
O14   O     O_R   0.409410 0.462010 0.551790 -0.511610
O15   O     O_R   0.591290 0.447810 0.539060 -0.513877
O16   O     O_R   0.590450 0.552170 0.642650 -0.514784
O17   O     O_R   0.951010 0.538020 0.093350 -0.514627
O18   O     O_R   0.042570 0.447840 0.094710 -0.441551
O19   O     O_R   0.146960 0.552180 0.094690 -0.515458
O20   O     O_R   0.952400 0.357670 0.914360 -0.458325
O21   O     O_R   0.056780 0.462020 0.914330 -0.523854
O22   O     O_R   0.860840 0.447860 0.913000 -0.517068
O23   O     O_R   0.965220 0.552200 0.912980 -0.517600
O24   O     O_R   0.946640 0.090180 0.536890 -0.472277

loop_
_geom_bond_atom_site_label_1
_geom_bond_atom_site_label_2
_ccdc_geom_bond_type
C30   O24   A    
C43   F6    S    
C29   O23   A    
C47   H16   S    
C35   C36   A    
C51   F8    S    
Cu6   O5    S    
C5    H20   S    
Cu3   O22   S    
C24   F4    S    
C7    C8    A    
C39   C41   A    
C12   F2    S    
C12   C23   S    
C22   H25   S    
C34   C40   S    
C57   F10   S    
C36   C37   A    
Cu1   O1    S    
C1    C56   S    
C26   O18   A    
C14   H11   S    
C18   C19   A    
C28   O15   A    
C58   H6    S    
C37   H26   S    
C2    C60   A    
C43   H3    S    
Cu4   O19   S    
C29   O22   A    
C16   O14   A    
C8    H9    S    
C41   C42   S    
C32   C39   S    
C13   H22   S    
C46   C47   A    
C44   C53   S    
C19   C20   A    
C45   C56   A    
C52   C54   S    
C8    C9    A    
C13   H10   S    
Cu1   O13   S    
C34   C57   S    
C19   F1    S    
C33   O9    A    
C26   O19   A    
Cu6   O9    S    
C35   C43   S    
C9    C10   A    
C1    O1    A    
C22   F3    S    
C1    O4    A    
C23   C34   S    
C4    O10   A    
C59   C60   A    
C21   C22   S    
C31   O3    A    
C53   F9    S    
C59   H19   S    
C26   C54   S    
Cu5   O3    S    
C27   O20   A    
C44   C46   A    
C50   C51   S    
C2    C45   A    
C4    C34   S    
Cu4   O12   S    
C48   H17   S    
Cu1   O15   S    
Cu6   O2    S    
C4    O11   A    
C53   H4    S    
Cu2   O11   S    
C32   O7    A    
C6    C11   A    
C5    H8    S    
C27   O21   A    
C16   C17   S    
C51   H18   S    
C58   C59   A    
C40   C52   S    
C5    C45   S    
C38   H15   S    
C7    C28   S    
C51   C53   S    
C31   C60   S    
C14   H13   S    
Cu2   O14   S    
C37   C38   A    
C6    C14   S    
Cu3   O17   S    
C47   C48   A    
C40   C55   S    
C17   C18   A    
C32   O6    A    
C20   C33   S    
C27   C46   S    
C48   C49   A    
C30   C49   S    
C49   C50   A    
C55   C57   S    
C3    H7    S    
C22   C24   S    
C42   C43   S    
C12   C57   S    
C52   H1    S    
C16   O13   A    
Cu3   O20   S    
C44   C50   A    
C15   C17   A    
C54   C55   S    
C15   C24   S    
C9    H21   S    
Cu5   O6    S    
C3    H12   S    
C31   O5    A    
C23   H5    S    
C3    C5    S    
C24   H14   S    
C40   H24   S    
C42   H2    S    
C6    C7    A    
Cu2   O4    S    
Cu4   O21   S    
C25   O17   A    
Cu5   O24   S    
C2    C3    S    
C28   O16   A    
C25   O12   A    
Cu3   O18   S    
C11   C13   S    
C10   C29   S    
C23   C52   S    
C38   C39   A    
C42   F5    S    
C56   C58   A    
Cu5   Cu6   S    
Cu6   O7    S    
Cu1   Cu2   S    
C35   C41   A    
Cu5   O8    S    
Cu2   O16   S    
C10   C11   A    
C25   C36   S    
Cu3   Cu4   S    
C55   F7    S    
C15   C21   A    
C20   C21   A    
Cu4   O23   S    
C18   H23   S    
C30   O2    A    
C33   O8    A    
C13   C14   S    
Cu1   O10   S    
C12   C54   S    
