data_mof_unit_34661.cif
_audit_creation_date              2012-10-26T20:03:44-0400
_audit_creation_method            fapswitch 2.2
_symmetry_space_group_name_H-M    P1
_symmetry_Int_Tables_number       1
_space_group_crystal_system       triclinic
_cell_length_a                    12.377879
_cell_length_b                    13.002764
_cell_length_c                    15.873955
_cell_angle_alpha                 78.551332
_cell_angle_beta                  100.651474
_cell_angle_gamma                 116.715984
_cell_volume                      2223.33536337

loop_
_atom_site_label
_atom_site_type_symbol
_atom_type_description
_atom_site_fract_x
_atom_site_fract_y
_atom_site_fract_z
_atom_type_partial_charge
C1    C     C_R   0.854822 0.285245 0.507356 0.550463
C2    C     C_R   0.227197 0.837189 0.466517 0.004878
C3    C     C_R   0.813454 0.076287 0.554561 0.221521
C4    C     C_R   0.999658 0.500668 0.659562 0.552716
C5    C     C_R   0.731908 0.959718 0.566772 -0.113867
C6    C     C_R   0.607706 0.922612 0.537479 0.271999
C7    C     C_R   0.565743 0.005833 0.491045 0.008708
C8    C     C_R   0.653167 0.119144 0.462930 -0.077486
C9    C     C_R   0.439935 0.977140 0.465629 0.020151
C10   C     C_R   0.405478 0.047607 0.396169 0.009876
C11   C     C_R   0.494770 0.149256 0.357127 0.138222
C12   C     C_3   0.999023 0.501410 0.915593 0.004375
C13   C     C_R   0.618221 0.184360 0.388719 0.123479
C14   C     C_R   0.345962 0.881081 0.507980 0.320686
C15   C     C_R   0.194364 0.905113 0.396407 -0.206476
C16   C     C_R   0.145034 0.714288 0.487690 0.575928
C17   C     C_R   0.773544 0.159125 0.506638 -0.019466
C18   C     C_R   0.381251 0.390938 0.664815 0.104747
C19   C     C_R   0.728853 0.593482 0.364081 0.290977
C20   C     C_R   0.608222 0.557212 0.326208 0.107952
C21   C     C_R   0.515013 0.505666 0.379255 -0.142994
C22   C     C_R   0.542197 0.505821 0.468640 -0.061927
C23   C     C_3   0.041246 0.612986 0.015007 0.275430
C24   C     C_R   0.665171 0.531989 0.504342 0.134202
C25   C     C_R   0.450526 0.477031 0.523675 -0.086149
C26   C     C_R   0.477377 0.446209 0.612797 0.000100
C27   C     C_R   0.600617 0.478455 0.647920 0.255111
C28   C     C_R   0.001292 0.500694 0.340358 0.529013
C29   C     C_R   0.693420 0.540559 0.592983 0.128412
C30   C     C_R   0.337277 0.486331 0.496005 0.226316
C31   C     C_R   0.263852 0.379544 0.629745 0.211137
C32   C     C_3   0.074277 0.457518 0.044555 0.096584
C33   C     C_3   0.960161 0.390744 0.983766 -0.122892
C34   C     C_3   0.003155 0.504115 0.083806 0.073244
C35   C     C_1   0.999065 0.501846 0.748728 -0.016092
C36   C     C_1   0.003366 0.501658 0.251076 -0.014887
C37   C     C_3   0.113020 0.565562 0.976805 0.102775
C38   C     C_3   0.371054 0.902046 0.649699 -0.144086
C39   C     C_3   0.996769 0.085719 0.539888 -0.113914
C40   C     C_3   0.545652 0.739817 0.618810 -0.049066
C41   C     C_3   0.669005 0.377594 0.760142 -0.078871
C42   C     C_3   0.091309 0.807021 0.964889 -0.120142
C43   C     C_3   0.926850 0.548129 0.954469 0.107888
C44   C     C_3   0.889942 0.440179 0.022558 0.089931
C45   C     C_1   0.998805 0.501958 0.824054 -0.038612
C46   C     C_1   0.003828 0.502857 0.175573 0.013218
C47   C     C_R   0.281761 0.011896 0.363998 -0.132390
Cu1   Cu    Cu3+1 0.098270 0.475420 0.519690 1.005667
Cu2   Cu    Cu3+1 0.901730 0.524580 0.480310 0.930721
H1    H     H_    0.926711 0.299760 0.971343 0.119377
H2    H     H_    0.962454 0.990809 0.538897 0.111069
H3    H     H_    0.093676 0.118857 0.567282 0.127201
H4    H     H_    0.562724 0.787401 0.674594 0.125788
H5    H     H_    0.619211 0.713014 0.620201 0.095444
H6    H     H_    0.459962 0.659803 0.626834 0.184261
H7    H     H_    0.789334 0.268986 0.345566 0.231279
H8    H     H_    0.713227 0.353526 0.341219 0.270520
H9    H     H_    0.083923 0.298026 0.649104 0.316590
H10   H     H_    0.163831 0.231063 0.702216 0.202672
H11   H     H_    0.697832 0.371194 0.830645 0.159777
H12   H     H_    0.766964 0.898022 0.599885 0.110330
H13   H     H_    0.747663 0.394220 0.726696 0.123421
H14   H     H_    0.592739 0.292684 0.746574 0.114466
H15   H     H_    0.353463 0.256084 0.761745 0.206624
H16   H     H_    0.371429 0.381508 0.792752 0.264879
H17   H     H_    0.291478 0.523089 0.367143 0.215434
H18   H     H_    0.410755 0.636372 0.412553 0.251215
H19   H     H_    0.906161 0.708462 0.348519 0.263508
H20   H     H_    0.827751 0.633927 0.263064 0.249685
H21   H     H_    0.195128 0.389746 0.050996 0.252212
H22   H     H_    0.225738 0.474572 0.127422 0.231662
H23   H     H_    0.422412 0.468682 0.349877 0.106937
H24   H     H_    0.604669 0.521449 0.207684 0.229173
H25   H     H_    0.488957 0.551050 0.216533 0.223599
H26   H     H_    0.810736 0.635226 0.688927 0.250645
H27   H     H_    0.809619 0.710753 0.590468 0.200710
H28   H     H_    0.710601 0.336721 0.995056 0.236164
H29   H     H_    0.769542 0.304991 0.095236 0.233293
H30   H     H_    0.815497 0.627370 0.945879 0.252026
H31   H     H_    0.886969 0.658000 0.857184 0.211993
H32   H     H_    0.002069 0.811011 0.948451 0.125538
H33   H     H_    0.117955 0.789614 0.907874 0.092537
H34   H     H_    0.102213 0.874176 0.364779 0.133623
H35   H     H_    0.159923 0.894025 0.980296 0.148285
H36   H     H_    0.290117 0.677112 0.002725 0.246698
H37   H     H_    0.234219 0.691148 0.898408 0.222290
H38   H     H_    0.501947 0.219042 0.230764 0.263568
H39   H     H_    0.490979 0.300691 0.297094 0.232776
H40   H     H_    0.252743 0.062720 0.310136 0.172942
H41   H     H_    0.284675 0.911618 0.642252 0.102558
H42   H     H_    0.449828 0.988783 0.642308 0.106616
H43   H     H_    0.383018 0.859819 0.716449 0.139104
H44   H     H_    0.993434 0.131192 0.472805 0.133835
N1    N     N_R   0.246280 0.438200 0.549540 -0.212568
N2    N     N_3   0.806344 0.631405 0.623195 -0.567557
N3    N     N_3   0.767816 0.373630 0.048719 -0.604743
N4    N     N_3   0.841087 0.591253 0.904274 -0.589557
N5    N     N_3   0.236127 0.630495 0.952051 -0.617995
N6    N     N_3   0.459883 0.216063 0.283146 -0.642177
N7    N     N_R   0.754330 0.561180 0.450980 -0.234434
N8    N     N_3   0.705103 0.272307 0.333866 -0.630053
N9    N     N_3   0.167396 0.314194 0.683966 -0.592104
N10   N     N_3   0.402065 0.346424 0.753598 -0.571624
N11   N     N_3   0.326511 0.565890 0.421837 -0.533627
N12   N     N_3   0.822496 0.674748 0.311631 -0.583666
N13   N     N_3   0.155558 0.409024 0.094805 -0.619907
N14   N     N_3   0.582191 0.576096 0.233891 -0.605158
O1    O     O_R   0.972510 0.318130 0.524770 -0.485232
O2    O     O_3   0.931956 0.108721 0.592495 -0.575345
O3    O     O_3   0.531589 0.804574 0.538111 -0.528847
O4    O     O_3   0.631708 0.468185 0.736461 -0.530633
O5    O     O_3   0.087712 0.725449 0.038722 -0.562248
O6    O     O_R   0.806530 0.359650 0.491510 -0.509834
O7    O     O_R   0.082970 0.479240 0.637550 -0.484643
O8    O     O_R   0.916990 0.520750 0.604290 -0.461286
O9    O     O_R   0.193470 0.640350 0.508490 -0.414371
O10   O     O_R   0.027490 0.681870 0.475230 -0.525698
O11   O     O_R   0.083010 0.479250 0.395710 -0.485447
O12   O     O_R   0.917030 0.520760 0.362450 -0.538576
O13   O     O_3   0.366624 0.831352 0.591151 -0.532099

loop_
_geom_bond_atom_site_label_1
_geom_bond_atom_site_label_2
_ccdc_geom_bond_type
H15   N10   S    
C39   H2    S    
C8    C13   A    
H31   N4    S    
C27   C29   A    
C47   H40   S    
C4    O8    A    
Cu2   O6    S    
C19   C20   A    
C18   C26   A    
C15   C47   A    
C43   C44   S    
H26   N2    S    
C7    C8    A    
Cu1   O1    S    
C23   O5    S    
C26   C27   A    
Cu1   N1    S    
C4    O7    A    
H7    N8    S    
C12   C43   S    
H27   N2    S    
C5    C6    A    
C14   O13   S    
H24   N14   S    
C38   H43   S    
C23   C43   S    
C11   N6    S    
C12   C37   S    
C42   O5    S    
C24   C29   A    
C39   H44   S    
H36   N5    S    
H25   N14   S    
Cu2   O10   S    
H29   N3    S    
C22   C25   A    
C42   H33   S    
C36   C46   T    
C34   C46   S    
C2    C16   S    
C9    C10   A    
Cu1   O9    S    
C20   N14   S    
C38   O13   S    
C23   C34   S    
C39   H3    S    
C4    C35   S    
C27   O4    S    
C32   N13   S    
C21   C22   A    
C6    O3    S    
C42   H32   S    
C1    O6    A    
C41   H13   S    
C2    C14   A    
C16   O9    A    
C37   N5    S    
H18   N11   S    
H38   N6    S    
C21   H23   S    
C5    H12   S    
C31   N9    S    
H17   N11   S    
C42   H35   S    
H21   N13   S    
C29   N2    S    
H20   N12   S    
Cu1   O11   S    
C25   C26   A    
C23   C37   S    
C38   H42   S    
C32   C34   S    
C9    C14   A    
C44   N3    S    
C40   H6    S    
C34   C44   S    
C32   C37   S    
C2    C15   A    
H10   N9    S    
H9    N9    S    
C19   N12   S    
Cu1   Cu2   S    
Cu2   O8    S    
C40   H5    S    
C22   C24   A    
H19   N12   S    
C41   H14   S    
C13   N8    S    
C35   C45   T    
Cu1   O7    S    
C25   C30   A    
C7    C9    A    
C24   N7    A    
C33   C44   S    
H30   N4    S    
C43   N4    S    
C41   H11   S    
C12   C45   S    
C3    C5    A    
C28   O12   A    
C40   O3    S    
C19   N7    A    
C6    C7    A    
C31   N1    A    
H8    N8    S    
C38   H41   S    
H28   N3    S    
C1    C17   S    
C8    C17   A    
C32   C33   S    
C33   H1    S    
C30   N1    A    
C28   O11   A    
C16   O10   A    
Cu2   N7    S    
C11   C13   A    
Cu2   O12   S    
C3    O2    S    
C15   H34   S    
C3    C17   A    
C18   N10   S    
H37   N5    S    
H39   N6    S    
C10   C11   A    
C1    O1    A    
C39   O2    S    
C20   C21   A    
C28   C36   S    
C40   H4    S    
C41   O4    S    
H22   N13   S    
C30   N11   S    
C10   C47   A    
H16   N10   S    
C18   C31   A    
C12   C33   S    
