data_mof_unit_38963.cif
_audit_creation_date              2012-12-11T20:51:03-0500
_audit_creation_method            fapswitch 2.2
_symmetry_space_group_name_H-M    P1
_symmetry_Int_Tables_number       1
_space_group_crystal_system       triclinic
_cell_length_a                    30.378706
_cell_length_b                    34.157474
_cell_length_c                    8.424239
_cell_angle_alpha                 89.945397
_cell_angle_beta                  90.157072
_cell_angle_gamma                 90.023658
_cell_volume                      8741.45711103

loop_
_atom_site_label
_atom_site_type_symbol
_atom_type_description
_atom_site_fract_x
_atom_site_fract_y
_atom_site_fract_z
_atom_type_partial_charge
Ba1   Ba    Ba6+2 0.999930 0.472870 0.844940 1.670210
Ba2   Ba    Ba6+2 0.999930 0.527130 0.344940 1.672701
Ba3   Ba    Ba6+2 0.499930 0.972870 0.844940 1.670210
Ba4   Ba    Ba6+2 0.499930 0.027130 0.344940 1.672701
C1    C     C_3   0.021143 0.281989 0.599205 -0.351841
C2    C     C_R   0.210581 0.331368 0.535040 0.582317
C3    C     C_R   0.403853 0.088126 0.689873 0.034624
C4    C     C_R   0.871156 0.384107 0.149047 -0.100477
C5    C     C_R   0.871382 0.616239 0.649154 -0.102902
C6    C     C_R   0.371155 0.884107 0.149047 -0.100477
C7    C     C_R   0.371382 0.116239 0.649154 -0.102902
C8    C     C_R   0.861564 0.351288 0.247458 0.215950
C9    C     C_R   0.862136 0.649192 0.747367 0.213214
C10   C     C_R   0.361563 0.851288 0.247458 0.215950
C11   C     C_R   0.362136 0.149192 0.747367 0.213213
C12   C     C_2   0.076268 0.591815 0.858663 -0.249629
C13   C     C_R   0.707999 0.169515 0.054922 0.568302
C14   C     C_2   0.067781 0.403724 0.379624 -0.256459
C15   C     C_2   0.576268 0.091815 0.858663 -0.249629
C16   C     C_2   0.567781 0.903724 0.379624 -0.256459
C17   C     C_3   0.130269 0.474120 0.131670 0.317466
C18   C     C_3   0.134016 0.524635 0.632220 0.288746
C19   C     C_3   0.630269 0.974120 0.131670 0.317467
C20   C     C_3   0.634016 0.024635 0.632220 0.288747
C21   C     C_3   0.171131 0.452220 0.068614 -0.208983
C22   C     C_3   0.172557 0.544398 0.545459 -0.198997
C23   C     C_3   0.671131 0.952220 0.068614 -0.208983
C24   C     C_R   0.710581 0.831368 0.535040 0.582318
C25   C     C_3   0.672557 0.044398 0.545458 -0.198997
C26   C     C_3   0.866761 0.520927 0.988021 0.663696
C27   C     C_3   0.866584 0.479283 0.487005 0.662762
C28   C     C_3   0.366761 0.020927 0.988021 0.663696
C29   C     C_3   0.366584 0.979283 0.487005 0.662762
C30   C     C_3   0.821924 0.531126 0.918095 -0.209426
C31   C     C_3   0.821665 0.469294 0.417276 -0.208546
C32   C     C_3   0.321924 0.031126 0.918095 -0.209425
C33   C     C_3   0.321665 0.969294 0.417276 -0.208546
C34   C     C_3   0.002628 0.322439 0.565604 0.341545
C35   C     C_R   0.156989 0.720913 0.992363 0.583713
C36   C     C_3   0.005989 0.675980 0.058390 0.378264
C37   C     C_3   0.502628 0.822440 0.565604 0.341545
C38   C     C_3   0.505989 0.175980 0.058390 0.378265
C39   C     C_R   0.928343 0.406963 0.320308 -0.252029
C40   C     C_R   0.928214 0.592914 0.821003 -0.251742
C41   C     C_R   0.428343 0.906963 0.320308 -0.252029
C42   C     C_R   0.428214 0.092913 0.821003 -0.251742
C43   C     C_3   0.194604 0.427576 0.195325 -0.226367
C44   C     C_3   0.219417 0.453068 0.314352 -0.365749
C45   C     C_3   0.183181 0.585657 0.605059 -0.283784
C46   C     C_R   0.157659 0.280094 0.496663 0.578337
C47   C     C_3   0.212434 0.585158 0.752388 -0.375978
C48   C     C_3   0.694604 0.927576 0.195325 -0.226367
C49   C     C_3   0.719417 0.953068 0.314352 -0.365749
C50   C     C_3   0.683181 0.085657 0.605059 -0.283784
C51   C     C_3   0.712434 0.085158 0.752388 -0.375978
C52   C     C_3   0.987267 0.252714 0.202459 -0.227958
C53   C     C_3   0.959123 0.229930 0.082736 -0.351752
C54   C     C_3   0.954943 0.731414 0.460834 -0.164156
C55   C     C_3   0.930904 0.770797 0.457931 -0.416803
C56   C     C_3   0.487267 0.752714 0.202459 -0.227958
C57   C     C_R   0.656989 0.220913 0.992363 0.583713
C58   C     C_3   0.459123 0.729930 0.082736 -0.351752
C59   C     C_3   0.454943 0.231414 0.460833 -0.164156
C60   C     C_3   0.430904 0.270797 0.457930 -0.416803
C61   C     C_3   0.055776 0.253457 0.019497 -0.153677
C62   C     C_3   0.078621 0.219614 0.105404 -0.432372
C63   C     C_3   0.034710 0.754340 0.495456 -0.214430
C64   C     C_3   0.070846 0.764247 0.615392 -0.400122
C65   C     C_3   0.555776 0.753457 0.019497 -0.153676
C66   C     C_3   0.578621 0.719614 0.105404 -0.432371
C67   C     C_3   0.534710 0.254340 0.495459 -0.214431
C68   C     C_R   0.657659 0.780094 0.496663 0.578337
C69   C     C_3   0.570846 0.264247 0.615395 -0.400122
C70   C     C_R   0.188843 0.749555 0.032492 -0.019923
C71   C     C_R   0.189548 0.251466 0.535986 -0.019170
C72   C     C_R   0.688843 0.249555 0.032492 -0.019922
C73   C     C_3   0.010469 0.719918 0.032697 -0.385329
C74   C     C_R   0.689548 0.751466 0.535986 -0.019170
C75   C     C_R   0.231158 0.737686 0.081111 -0.053090
C76   C     C_R   0.232542 0.263230 0.576285 -0.053051
C77   C     C_R   0.731159 0.237686 0.081111 -0.053090
C78   C     C_R   0.732542 0.763230 0.576285 -0.053051
C79   C     C_R   0.283470 0.686009 0.139504 -0.083080
C80   C     C_R   0.286283 0.314696 0.617944 -0.080913
C81   C     C_R   0.783471 0.186009 0.139504 -0.083080
C82   C     C_R   0.786283 0.814696 0.617944 -0.080913
C83   C     C_R   0.815709 0.213925 0.174727 -0.083272
C84   C     C_3   0.521143 0.781989 0.599205 -0.351841
C85   C     C_R   0.818023 0.786736 0.658778 -0.087374
C86   C     C_R   0.315709 0.713925 0.174728 -0.083272
C87   C     C_R   0.318023 0.286736 0.658778 -0.087374
C88   C     C_R   0.806282 0.254240 0.166241 -0.018628
C89   C     C_R   0.807857 0.746483 0.658974 -0.018450
C90   C     C_R   0.306282 0.754240 0.166241 -0.018628
C91   C     C_R   0.307857 0.246483 0.658974 -0.018451
C92   C     C_R   0.763753 0.266160 0.120374 -0.054163
C93   C     C_R   0.764936 0.734702 0.617472 -0.053061
C94   C     C_R   0.263753 0.766160 0.120374 -0.054164
C95   C     C_3   0.510469 0.219918 0.032698 -0.385329
C96   C     C_R   0.264936 0.234702 0.617472 -0.053061
C97   C     C_R   0.179282 0.789879 0.025656 -0.083915
C98   C     C_R   0.179261 0.211245 0.536957 -0.087037
C99   C     C_R   0.679282 0.289879 0.025656 -0.083915
C100  C     C_R   0.679261 0.711245 0.536957 -0.087037
C101  C     C_3   0.006712 0.314387 0.045141 0.294831
C102  C     C_3   0.009150 0.689438 0.618634 0.329702
C103  C     C_3   0.506712 0.814388 0.045141 0.294831
C104  C     C_3   0.509150 0.189438 0.618634 0.329703
C105  C     C_R   0.711053 0.317810 0.066678 -0.076386
C106  C     C_R   0.240902 0.697444 0.092028 -0.019898
C107  C     C_R   0.711008 0.683280 0.577403 -0.076463
C108  C     C_R   0.211053 0.817810 0.066678 -0.076385
C109  C     C_R   0.211008 0.183280 0.577403 -0.076463
C110  C     C_R   0.753638 0.306408 0.114302 -0.024909
C111  C     C_R   0.754163 0.694542 0.618265 -0.025716
C112  C     C_R   0.253638 0.806408 0.114302 -0.024909
C113  C     C_R   0.254163 0.194542 0.618265 -0.025716
C114  C     C_R   0.786108 0.334288 0.157644 0.590928
C115  C     C_R   0.786564 0.666586 0.661356 0.591386
C116  C     C_R   0.286108 0.834288 0.157644 0.590928
C117  C     C_R   0.243187 0.303412 0.576429 -0.022630
C118  C     C_R   0.286564 0.166586 0.661356 0.591387
C119  C     C_R   0.838443 0.282794 0.203089 0.582244
C120  C     C_R   0.839597 0.717857 0.700430 0.574921
C121  C     C_R   0.338443 0.782794 0.203089 0.582243
C122  C     C_R   0.339597 0.217857 0.700430 0.574921
C123  C     C_2   0.110599 0.654148 0.809739 -0.122336
C124  C     C_2   0.108698 0.344859 0.314091 -0.104208
C125  C     C_2   0.610599 0.154148 0.809739 -0.122336
C126  C     C_2   0.608698 0.844859 0.314091 -0.104208
C127  C     C_3   0.073086 0.629154 0.782119 -0.081400
C128  C     C_R   0.740902 0.197444 0.092028 -0.019899
C129  C     C_3   0.069469 0.367922 0.290168 -0.092938
C130  C     C_3   0.573086 0.129154 0.782119 -0.081400
C131  C     C_3   0.569469 0.867922 0.290168 -0.092938
C132  C     C_1   0.096734 0.588046 0.004465 0.042669
C133  C     C_1   0.094851 0.410913 0.508669 0.048518
C134  C     C_1   0.596734 0.088046 0.004465 0.042669
C135  C     C_1   0.594850 0.910913 0.508669 0.048518
C136  C     C_2   0.123113 0.618015 0.061480 -0.103090
C137  C     C_2   0.125438 0.383259 0.556522 -0.101042
C138  C     C_2   0.623113 0.118015 0.061480 -0.103090
C139  C     C_R   0.743187 0.803412 0.576429 -0.022630
C140  C     C_2   0.625438 0.883259 0.556522 -0.101042
C141  C     C_2   0.133611 0.652057 0.956223 0.216752
C142  C     C_2   0.134619 0.348771 0.452937 0.212882
C143  C     C_2   0.633611 0.152056 0.956223 0.216751
C144  C     C_2   0.634619 0.848771 0.452937 0.212882
C145  C     C_R   0.883457 0.347112 0.386821 -0.083701
C146  C     C_R   0.883959 0.653157 0.886840 -0.087265
C147  C     C_R   0.383457 0.847112 0.386821 -0.083701
C148  C     C_R   0.383959 0.153157 0.886840 -0.087265
C149  C     C_3   0.024971 0.277460 0.128876 -0.080849
C150  C     C_R   0.207999 0.669515 0.054922 0.568302
C151  C     C_3   0.995822 0.731507 0.570432 -0.029131
C152  C     C_3   0.524971 0.777460 0.128876 -0.080849
C153  C     C_3   0.495822 0.231507 0.570433 -0.029131
C154  C     C_R   0.918353 0.375110 0.431149 -0.007279
C155  C     C_R   0.918304 0.624732 0.931970 -0.001196
C156  C     C_R   0.418353 0.875110 0.431149 -0.007279
C157  C     C_R   0.418303 0.124732 0.931970 -0.001196
C158  C     C_R   0.903851 0.411946 0.189643 0.034581
C159  C     C_R   0.903853 0.588126 0.689873 0.034624
C160  C     C_R   0.403851 0.911946 0.189642 0.034581
H1    H     H_    0.029833 0.344054 0.574728 0.043599
H2    H     H_    0.164418 0.545947 0.416994 0.128427
H3    H     H_    0.635379 0.031233 0.761032 -0.007324
H4    H     H_    0.101209 0.464812 0.062015 0.088465
H5    H     H_    0.102627 0.535809 0.581956 0.063315
H6    H     H_    0.601209 0.964812 0.062015 0.088465
H7    H     H_    0.602627 0.035809 0.581956 0.063314
H8    H     H_    0.243490 0.472150 0.252344 0.121359
H9    H     H_    0.196032 0.471518 0.381271 0.150583
H10   H     H_    0.237570 0.434292 0.399693 0.176713
H11   H     H_    0.170484 0.408850 0.258328 0.126422
H12   H     H_    0.218648 0.407969 0.135939 0.131670
H13   H     H_    0.661518 0.932791 0.969160 0.122819
H14   H     H_    0.194454 0.572661 0.855225 0.158615
H15   H     H_    0.242764 0.567841 0.730836 0.131284
H16   H     H_    0.222373 0.615622 0.780202 0.166067
H17   H     H_    0.200748 0.601820 0.509697 0.146709
H18   H     H_    0.152638 0.601708 0.631655 0.138901
H19   H     H_    0.743490 0.972150 0.252344 0.121359
H20   H     H_    0.696032 0.971518 0.381271 0.150583
H21   H     H_    0.737570 0.934292 0.399693 0.176713
H22   H     H_    0.670484 0.908850 0.258328 0.126422
H23   H     H_    0.718648 0.907969 0.135939 0.131670
H24   H     H_    0.664418 0.045947 0.416994 0.128427
H25   H     H_    0.694454 0.072661 0.855225 0.158615
H26   H     H_    0.742764 0.067841 0.730835 0.131285
H27   H     H_    0.722373 0.115622 0.780201 0.166067
H28   H     H_    0.700748 0.101820 0.509697 0.146709
H29   H     H_    0.652638 0.101708 0.631655 0.138901
H30   H     H_    0.911791 0.546768 0.107470 0.313350
H31   H     H_    0.911566 0.453346 0.606251 0.314292
H32   H     H_    0.411791 0.046768 0.107470 0.313350
H33   H     H_    0.411566 0.953346 0.606251 0.314292
H34   H     H_    0.943352 0.249802 0.995412 0.140570
H35   H     H_    0.890061 0.516994 0.888099 -0.024268
H36   H     H_    0.978950 0.207620 0.019636 0.112815
H37   H     H_    0.932677 0.214180 0.147272 0.151592
H38   H     H_    0.001345 0.231533 0.288832 0.119728
H39   H     H_    0.965211 0.272175 0.271509 0.146493
H40   H     H_    0.924978 0.781614 0.580160 0.165786
H41   H     H_    0.950121 0.793011 0.391526 0.116521
H42   H     H_    0.898627 0.767264 0.397366 0.137337
H43   H     H_    0.964701 0.724374 0.338440 0.167836
H44   H     H_    0.931206 0.708670 0.500493 0.149003
H45   H     H_    0.443352 0.749802 0.995412 0.140571
H46   H     H_    0.889811 0.483397 0.386955 -0.021942
H47   H     H_    0.478950 0.707620 0.019636 0.112815
H48   H     H_    0.432677 0.714180 0.147272 0.151592
H49   H     H_    0.501344 0.731533 0.288833 0.119728
H50   H     H_    0.465211 0.772175 0.271509 0.146493
H51   H     H_    0.424978 0.281614 0.580159 0.165786
H52   H     H_    0.450121 0.293011 0.391526 0.116520
H53   H     H_    0.398627 0.267264 0.397364 0.137337
H54   H     H_    0.464701 0.224374 0.338439 0.167835
H55   H     H_    0.431206 0.208670 0.500491 0.149003
H56   H     H_    0.096200 0.230380 0.212325 0.178938
H57   H     H_    0.390061 0.016994 0.888099 -0.024268
H58   H     H_    0.054544 0.196784 0.140431 0.136227
H59   H     H_    0.103037 0.205952 0.024754 0.126673
H60   H     H_    0.037297 0.241777 0.916207 0.108760
H61   H     H_    0.082121 0.272833 0.972658 0.137507
H62   H     H_    0.056839 0.779397 0.720332 0.143538
H63   H     H_    0.088167 0.737361 0.653936 0.164314
H64   H     H_    0.095403 0.783892 0.559040 0.128457
H65   H     H_    0.049447 0.737301 0.396912 0.150998
H66   H     H_    0.022822 0.782428 0.444964 0.112541
H67   H     H_    0.596200 0.730380 0.212325 0.178937
H68   H     H_    0.389811 0.983397 0.386955 -0.021942
H69   H     H_    0.554544 0.696784 0.140431 0.136227
H70   H     H_    0.603037 0.705952 0.024754 0.126672
H71   H     H_    0.537297 0.741777 0.916207 0.108760
H72   H     H_    0.582121 0.772833 0.972658 0.137507
H73   H     H_    0.556838 0.279396 0.720335 0.143537
H74   H     H_    0.588167 0.237361 0.653940 0.164314
H75   H     H_    0.595403 0.283892 0.559044 0.128458
H76   H     H_    0.549448 0.237301 0.396914 0.150997
H77   H     H_    0.522821 0.282428 0.444966 0.112542
H78   H     H_    0.810067 0.506804 0.841722 0.090854
H79   H     H_    0.809824 0.493791 0.341641 0.089987
H80   H     H_    0.310067 0.006804 0.841722 0.090854
H81   H     H_    0.037500 0.664222 0.105623 0.062209
H82   H     H_    0.309824 0.993791 0.341641 0.089987
H83   H     H_    0.824212 0.558178 0.845517 0.080576
H84   H     H_    0.823828 0.442390 0.343959 0.080895
H85   H     H_    0.324212 0.058178 0.845517 0.080575
H86   H     H_    0.323828 0.942390 0.343959 0.080895
H87   H     H_    0.797686 0.535972 0.014627 0.109909
H88   H     H_    0.797486 0.464284 0.513918 0.109914
H89   H     H_    0.297686 0.035972 0.014627 0.109909
H90   H     H_    0.297486 0.964284 0.513918 0.109914
H91   H     H_    0.988771 0.322631 0.443356 -0.082934
H92   H     H_    0.529833 0.844053 0.574728 0.043599
H93   H     H_    0.999327 0.662383 0.941047 -0.120402
H94   H     H_    0.488771 0.822631 0.443356 -0.082933
H95   H     H_    0.499327 0.162384 0.941047 -0.120402
H96   H     H_    0.039248 0.271122 0.494726 0.129150
H97   H     H_    0.036916 0.726207 0.946535 0.134406
H98   H     H_    0.539248 0.771122 0.494726 0.129150
H99   H     H_    0.536916 0.226207 0.946536 0.134407
H100  H     H_    0.044223 0.283535 0.700964 0.136365
H101  H     H_    0.018960 0.734786 0.145272 0.114516
H102  H     H_    0.544223 0.783535 0.700964 0.136365
H103  H     H_    0.537500 0.164221 0.105622 0.062208
H104  H     H_    0.518961 0.234786 0.145274 0.114516
H105  H     H_    0.045326 0.288146 0.229118 0.083947
H106  H     H_    0.986188 0.746674 0.681972 0.082066
H107  H     H_    0.545326 0.788146 0.229118 0.083947
H108  H     H_    0.486188 0.246674 0.681972 0.082067
H109  H     H_    0.702134 0.348474 0.060462 0.121712
H110  H     H_    0.701554 0.652701 0.576772 0.121549
H111  H     H_    0.202134 0.848474 0.060461 0.121712
H112  H     H_    0.201554 0.152701 0.576773 0.121549
H113  H     H_    0.147032 0.800028 0.989043 0.115197
H114  H     H_    0.195118 0.473128 0.015824 0.130272
H115  H     H_    0.146484 0.201195 0.506497 0.112187
H116  H     H_    0.647032 0.300028 0.989043 0.115197
H117  H     H_    0.646484 0.701195 0.506497 0.112187
H118  H     H_    0.848051 0.203753 0.210063 0.107469
H119  H     H_    0.850629 0.796853 0.690866 0.108065
H120  H     H_    0.348051 0.703753 0.210063 0.107469
H121  H     H_    0.350629 0.296853 0.690866 0.108064
H122  H     H_    0.875664 0.323345 0.467083 0.097811
H123  H     H_    0.876429 0.677015 0.966783 0.097335
H124  H     H_    0.375664 0.823345 0.467083 0.097811
H125  H     H_    0.202677 0.526052 0.555781 0.120940
H126  H     H_    0.376429 0.177015 0.966783 0.097335
H127  H     H_    0.292143 0.655331 0.148668 0.117446
H128  H     H_    0.295638 0.345298 0.619499 0.115572
H129  H     H_    0.792143 0.155331 0.148668 0.117446
H130  H     H_    0.795638 0.845298 0.619499 0.115572
H131  H     H_    0.137694 0.616012 0.178887 0.130022
H132  H     H_    0.142444 0.386411 0.669263 0.115833
H133  H     H_    0.637694 0.116012 0.178887 0.130022
H134  H     H_    0.642444 0.886411 0.669263 0.115833
H135  H     H_    0.119377 0.676241 0.722943 0.085681
H136  H     H_    0.695118 0.973128 0.015824 0.130272
H137  H     H_    0.115497 0.320953 0.232993 0.093857
H138  H     H_    0.619377 0.176241 0.722943 0.085681
H139  H     H_    0.615497 0.820953 0.232993 0.093857
H140  H     H_    0.852677 0.388302 0.040341 0.127511
H141  H     H_    0.852829 0.612201 0.540536 0.125123
H142  H     H_    0.352677 0.888302 0.040341 0.127511
H143  H     H_    0.352829 0.112201 0.540536 0.125123
H144  H     H_    0.953075 0.428295 0.352995 0.062439
H145  H     H_    0.952895 0.571528 0.853694 0.065843
H146  H     H_    0.453074 0.928295 0.352995 0.062439
H147  H     H_    0.702677 0.026052 0.555780 0.120940
H148  H     H_    0.452895 0.071528 0.853694 0.065844
H149  H     H_    0.994194 0.261024 0.625955 0.109811
H150  H     H_    0.979027 0.732030 0.986406 0.113829
H151  H     H_    0.494194 0.761024 0.625955 0.109811
H152  H     H_    0.479027 0.232031 0.986409 0.113829
H153  H     H_    0.062291 0.566164 0.801713 0.051917
H154  H     H_    0.039408 0.422482 0.361025 0.070424
H155  H     H_    0.562291 0.066164 0.801713 0.051917
H156  H     H_    0.539408 0.922482 0.361025 0.070424
H157  H     H_    0.982634 0.305167 0.953938 0.103777
H158  H     H_    0.161518 0.432791 0.969160 0.122819
H159  H     H_    0.979898 0.673307 0.663770 -0.018002
H160  H     H_    0.482634 0.805167 0.953938 0.103776
H161  H     H_    0.479897 0.173307 0.663769 -0.018001
H162  H     H_    0.987782 0.332644 0.130817 -0.052452
H163  H     H_    0.032834 0.692749 0.717210 -0.038554
H164  H     H_    0.487782 0.832644 0.130817 -0.052452
H165  H     H_    0.532833 0.192749 0.717211 -0.038555
H166  H     H_    0.123736 0.467129 0.258110 -0.029510
H167  H     H_    0.135380 0.531233 0.761032 -0.007323
H168  H     H_    0.623736 0.967129 0.258110 -0.029511
N1    N     N_R   0.166790 0.681237 0.001082 -0.419812
N2    N     N_R   0.168212 0.319679 0.494998 -0.418958
N3    N     N_R   0.666790 0.181237 0.001082 -0.419812
N4    N     N_R   0.668212 0.819679 0.494998 -0.418958
N5    N     N_R   0.828245 0.322471 0.200816 -0.422974
N6    N     N_R   0.829020 0.678222 0.700859 -0.422946
N7    N     N_R   0.328245 0.822471 0.200816 -0.422974
N8    N     N_R   0.329020 0.178223 0.700859 -0.422946
O1    O     O_2   0.914200 0.445720 0.903420 -0.440834
O2    O     O_3   0.028311 0.668572 0.492079 -0.570808
O3    O     O_3   0.540436 0.835169 0.966232 -0.585466
O4    O     O_3   0.528311 0.168572 0.492079 -0.570808
O5    O     O_3   0.049930 0.518940 0.045960 -0.498075
O6    O     O_3   0.049930 0.481060 0.545960 -0.496154
O7    O     O_3   0.549930 0.018940 0.045960 -0.498075
O8    O     O_3   0.549930 0.981060 0.545960 -0.496154
O9    O     O_2   0.216274 0.634721 0.069866 -0.622214
O10   O     O_2   0.220137 0.366090 0.533240 -0.620725
O11   O     O_2   0.716274 0.134721 0.069866 -0.622213
O12   O     O_2   0.914200 0.554280 0.403420 -0.442122
O13   O     O_2   0.720137 0.866089 0.533240 -0.620725
O14   O     O_2   0.120226 0.731403 0.952100 -0.635510
O15   O     O_2   0.120208 0.269675 0.465906 -0.643474
O16   O     O_2   0.620226 0.231403 0.952101 -0.635510
O17   O     O_2   0.620208 0.769675 0.465906 -0.643474
O18   O     O_2   0.776571 0.369033 0.159272 -0.599147
O19   O     O_2   0.776679 0.631926 0.666281 -0.598962
O20   O     O_2   0.276571 0.869033 0.159272 -0.599147
O21   O     O_2   0.276679 0.131926 0.666281 -0.598962
O22   O     O_2   0.875732 0.272262 0.236655 -0.626761
O23   O     O_2   0.414200 0.945720 0.903420 -0.440834
O24   O     O_2   0.876784 0.728299 0.736102 -0.628174
O25   O     O_2   0.375732 0.772262 0.236655 -0.626761
O26   O     O_2   0.376784 0.228299 0.736101 -0.628174
O27   O     O_3   0.950020 0.480960 0.143730 -0.507325
O28   O     O_3   0.950020 0.519040 0.643730 -0.506248
O29   O     O_3   0.450020 0.980960 0.143730 -0.507325
O30   O     O_3   0.450020 0.019040 0.643730 -0.506248
O31   O     O_3   0.985090 0.412220 0.642040 -0.487979
O32   O     O_3   0.985090 0.587780 0.142040 -0.482826
O33   O     O_3   0.485090 0.912220 0.642040 -0.487979
O34   O     O_2   0.414200 0.054280 0.403420 -0.442122
O35   O     O_3   0.485090 0.087780 0.142040 -0.482826
O36   O     O_2   0.911228 0.381482 0.760257 -0.437179
O37   O     O_2   0.912727 0.620037 0.263887 -0.442690
O38   O     O_2   0.411228 0.881482 0.760257 -0.437179
O39   O     O_2   0.412728 0.120037 0.263887 -0.442690
O40   O     O_3   0.862135 0.487117 0.080373 -0.652661
O41   O     O_3   0.862130 0.512861 0.580571 -0.653174
O42   O     O_3   0.362135 0.987117 0.080373 -0.652661
O43   O     O_3   0.362130 0.012861 0.580571 -0.653174
O44   O     O_3   0.970105 0.330710 0.678271 -0.591802
O45   O     O_3   0.139425 0.484227 0.612786 -0.649914
O46   O     O_3   0.972436 0.669275 0.169733 -0.592874
O47   O     O_3   0.470105 0.830710 0.678271 -0.591802
O48   O     O_3   0.472436 0.169275 0.169732 -0.592874
O49   O     O_2   0.085560 0.445380 0.786390 -0.462190
O50   O     O_2   0.085560 0.554620 0.286390 -0.460761
O51   O     O_2   0.585560 0.945380 0.786390 -0.462190
O52   O     O_2   0.585560 0.054620 0.286390 -0.460761
O53   O     O_3   0.014550 0.412170 0.047860 -0.460907
O54   O     O_3   0.014550 0.587830 0.547860 -0.456846
O55   O     O_3   0.514550 0.912170 0.047860 -0.460907
O56   O     O_3   0.138396 0.514297 0.117127 -0.649958
O57   O     O_3   0.514550 0.087830 0.547860 -0.456846
O58   O     O_2   0.096899 0.391594 0.987545 -0.501498
O59   O     O_2   0.090621 0.616806 0.453136 -0.496767
O60   O     O_2   0.596899 0.891594 0.987545 -0.501498
O61   O     O_2   0.590621 0.116806 0.453136 -0.496767
O62   O     O_3   0.880256 0.551646 0.085437 -0.740991
O63   O     O_3   0.880106 0.448334 0.583237 -0.738644
O64   O     O_3   0.380256 0.051646 0.085437 -0.740991
O65   O     O_3   0.380106 0.948334 0.583237 -0.738644
O66   O     O_3   0.639425 0.984227 0.612786 -0.649914
O67   O     O_3   0.638396 0.014297 0.117127 -0.649958
O68   O     O_3   0.040436 0.335169 0.966232 -0.585467
P1    P     P_3+3 0.909970 0.458430 0.077330 0.987580
P2    P     P_3+3 0.052758 0.625903 0.569585 0.960051
P3    P     P_3+3 0.555671 0.876689 0.075177 0.952919
P4    P     P_3+3 0.552758 0.125903 0.569585 0.960051
P5    P     P_3+3 0.946041 0.625218 0.126870 1.008155
P6    P     P_3+3 0.945436 0.375020 0.627264 0.994573
P7    P     P_3+3 0.446041 0.125218 0.126870 1.008155
P8    P     P_3+3 0.445436 0.875020 0.627264 0.994573
P9    P     P_3+3 0.909970 0.541570 0.577330 0.988628
P10   P     P_3+3 0.409970 0.958430 0.077330 0.987580
P11   P     P_3+3 0.409970 0.041570 0.577330 0.988628
P12   P     P_3+3 0.089830 0.458070 0.612460 0.981376
P13   P     P_3+3 0.089830 0.541930 0.112460 0.977625
P14   P     P_3+3 0.589830 0.958070 0.612460 0.981376
P15   P     P_3+3 0.589830 0.041930 0.112460 0.977625
P16   P     P_3+3 0.055671 0.376689 0.075177 0.952919

loop_
_geom_bond_atom_site_label_1
_geom_bond_atom_site_label_2
_ccdc_geom_bond_type
Ba2   O5    S    
C4    H140  S    
C126  H139  S    
C62   H58   S    
C39   C154  S    
C116  N7    Am   
Ba4   P11   S    
C155  P5    S    
C160  P10   S    
C37   H92   S    
C73   H97   S    
C95   H152  S    
C65   H72   S    
C69   H75   S    
C49   H19   S    
C64   H62   S    
C27   O41   S    
C6    H142  S    
O12   P9    D    
C14   C129  A    
C56   C58   S    
C35   C70   A    
C59   H55   S    
C20   H7    S    
C5    C9    A    
O29   P10   S    
C55   H41   S    
C7    C11   A    
C45   C47   S    
C10   C147  D    
C80   C87   A    
C93   C111  A    
C29   H68   S    
C43   H12   S    
C75   C106  A    
C132  C136  A    
C72   C99   A    
C121  N7    Am   
C95   H99   S    
C68   N4    Am   
O37   P5    D    
C22   C45   S    
O33   P8    S    
C92   C110  A    
C104  O4    S    
C41   C156  S    
C114  N5    Am   
C8    C145  D    
C109  H112  S    
C82   C139  A    
Ba3   O51   S    
C76   C117  A    
C67   C153  S    
O41   P9    S    
O34   P11   D    
C146  C155  S    
C88   C119  A    
C42   H148  S    
C67   C69   S    
C79   H127  S    
C38   O48   S    
C2    O10   D    
C153  H108  S    
C126  C144  A    
C1    H96   S    
C51   H27   S    
C14   C133  A    
Ba1   P1    S    
C100  H117  S    
C74   C78   A    
H33   O65   S    
C150  O9    D    
C61   H61   S    
O45   P12   S    
O5    P13   S    
C46   O15   D    
C123  C141  A    
C70   C97   A    
C55   H42   S    
C70   C75   A    
C102  O2    S    
O3    P3    S    
C87   H121  S    
O49   P12   D    
C13   N3    Am   
O7    P15   S    
O43   P11   S    
C130  P4    S    
C157  P7    S    
O59   P2    D    
C136  C141  S    
C64   H64   S    
Ba4   O35   S    
C25   H24   S    
Ba4   O52   S    
C142  N2    S    
C67   H76   S    
O60   P3    D    
O32   P5    S    
C4    C158  A    
C124  H137  S    
Ba2   P9    S    
C31   H88   S    
Ba1   O1    S    
C65   C66   S    
C123  C127  A    
C125  C143  A    
C121  O25   D    
C63   H65   S    
C33   H90   S    
Ba4   O57   S    
C40   C155  S    
O38   P8    D    
C36   C73   S    
C96   C113  A    
Ba3   O23   S    
C61   H60   S    
C134  P15   S    
C34   H1    S    
C101  C149  S    
C31   H79   S    
C108  H111  S    
C115  O19   D    
C98   H115  S    
C36   H81   S    
O30   P11   S    
C84   H98   S    
C152  H107  S    
C122  N8    Am   
C52   C53   S    
C97   C108  A    
Ba1   O6    S    
C17   H4    S    
C50   H28   S    
C60   H53   S    
C28   C32   S    
C16   C135  A    
C41   H146  S    
C18   O45   S    
C35   N1    Am   
C88   C92   A    
C12   C127  A    
C36   O46   S    
C66   H67   S    
C61   C149  S    
C55   H40   S    
C28   O64   S    
C40   C159  D    
C145  C154  S    
C148  C157  S    
Ba4   P15   S    
C1    H149  S    
C48   H22   S    
C99   H116  S    
C47   H15   S    
C44   H10   S    
C57   C72   A    
C24   N4    Am   
C95   H104  S    
C79   C106  A    
C65   C152  S    
C7    H143  S    
C26   C30   S    
C74   C100  A    
C3    C42   D    
C20   H3    S    
C6    C10   A    
C115  N6    Am   
C104  C153  S    
C17   O56   S    
C80   C117  A    
C84   H151  S    
C112  C116  A    
Ba3   P14   S    
O6    P12   S    
Ba4   O8    S    
C66   H69   S    
C113  C118  A    
C80   H128  S    
O23   P10   D    
C54   H44   S    
C4    C8    A    
C81   H129  S    
O50   P13   D    
O1    P1    D    
Ba2   O50   S    
C105  C110  A    
C109  C113  A    
C119  N5    Am   
C48   H23   S    
C111  C115  A    
C45   H17   S    
C59   C153  S    
Ba3   Ba4   S    
C47   H14   S    
C89   C93   A    
C108  C112  A    
C151  H106  S    
C131  P3    S    
C48   C49   S    
C90   C121  A    
Ba2   O6    S    
C17   C21   S    
C50   C51   S    
C58   H48   S    
Ba2   O32   S    
C138  C143  S    
C15   H155  S    
C21   H114  S    
C116  O20   D    
C65   H71   S    
C83   H118  S    
C69   H74   S    
C143  N3    S    
C91   C122  A    
C124  C142  A    
O39   P7    D    
C18   H167  S    
C138  H133  S    
O67   P15   S    
C101  H162  S    
O51   P14   D    
C26   O62   S    
C85   C89   A    
C103  H164  S    
C137  H132  S    
Ba2   O27   S    
C2    N2    Am   
C123  H135  S    
C59   C60   S    
Ba2   O54   S    
C39   C158  D    
O8    P14   S    
C132  P13   S    
C53   H37   S    
C30   H83   S    
C2    C117  A    
C38   H103  S    
O40   P1    S    
C17   H166  S    
O53   P16   S    
C43   H11   S    
Ba3   O8    S    
C12   C132  A    
C16   H156  S    
C101  H157  S    
C102  H159  S    
C135  P14   S    
C145  H122  S    
C60   H51   S    
C126  C131  A    
C136  H131  S    
C28   H57   S    
C52   H39   S    
C104  H165  S    
C73   H150  S    
Ba2   P13   S    
C31   H84   S    
C114  O18   D    
C97   H113  S    
C26   O40   S    
C9    C146  D    
C148  H126  S    
C25   C50   S    
C90   C94   A    
C33   H86   S    
O66   P14   S    
C118  O21   D    
C63   C151  S    
C107  H110  S    
C5    C159  A    
C19   O67   S    
C20   C25   S    
C62   H56   S    
C75   C94   A    
C42   C157  S    
C8    N5    S    
C133  P12   S    
C30   H87   S    
C21   C43   S    
O54   P2    S    
Ba2   O12   S    
C34   H91   S    
C29   O65   S    
C1    C34   S    
C13   C128  A    
O36   P6    D    
C40   H145  S    
C52   H38   S    
C11   C148  D    
C86   C90   A    
H31   O63   S    
C125  H138  S    
O31   P6    S    
O44   P6    S    
C63   C64   S    
C32   H80   S    
C134  C138  A    
C49   H20   S    
C77   C92   A    
C91   C96   A    
C62   H59   S    
Ba1   O31   S    
C54   C55   S    
C29   C33   S    
C33   H82   S    
C15   C130  A    
C24   O13   D    
C56   C152  S    
C32   H85   S    
C24   C139  A    
C137  C142  S    
Ba1   O28   S    
C78   C93   A    
C27   C31   S    
C39   H144  S    
C158  P1    S    
C68   O17   D    
C120  O24   D    
C51   H25   S    
C29   O43   S    
C103  O3    S    
C154  P6    S    
O56   P13   S    
C37   C84   S    
C133  C137  A    
Ba3   P10   S    
C23   H136  S    
C23   H13   S    
Ba1   P12   S    
C52   C149  S    
C156  P8    S    
C82   C85   A    
C36   H93   S    
O57   P4    S    
O52   P15   D    
C82   H130  S    
C99   C105  A    
C27   O63   S    
C141  N1    S    
O2    P2    S    
C98   C109  A    
C46   C71   A    
C159  P9    S    
C27   H46   S    
C10   N7    S    
Ba1   O49   S    
C73   H101  S    
C18   H5    S    
C125  C130  A    
C122  O26   D    
Ba4   O29   S    
C5    H141  S    
O35   P7    S    
C18   C22   S    
C129  P16   S    
Ba1   O5    S    
C104  H161  S    
C37   O47   S    
C14   H154  S    
C35   O14   D    
C25   H147  S    
C38   C95   S    
C3    P11   S    
C9    N6    S    
C105  H109  S    
C53   H34   S    
C30   H78   S    
C22   H125  S    
H32   O64   S    
C89   C120  A    
C140  C144  S    
Ba4   O34   S    
C147  H124  S    
C64   H63   S    
C3    C7    A    
O28   P9    S    
C20   O66   S    
O46   P5    S    
O4    P4    S    
C59   H54   S    
C103  H160  S    
C41   C160  D    
C81   C128  A    
C57   O16   D    
Ba3   O55   S    
C12   H153  S    
Ba1   O53   S    
Ba1   Ba2   S    
C66   H70   S    
C101  O68   S    
C49   H21   S    
C56   H50   S    
C44   H8    S    
O61   P4    D    
C127  P2    S    
C21   H158  S    
C63   H66   S    
C102  H163  S    
Ba3   O30   S    
C1    H100  S    
C34   O44   S    
C58   H47   S    
C11   N8    S    
C19   C23   S    
C119  O22   D    
C71   C76   A    
C103  C152  S    
C26   H35   S    
C50   H29   S    
C76   C96   A    
O47   P8    S    
C57   N3    Am   
O68   P16   S    
C81   C83   A    
C85   H119  S    
O48   P7    S    
C86   H120  S    
C51   H26   S    
C67   H77   S    
C77   C128  A    
O58   P16   D    
C56   H49   S    
C69   H73   S    
C38   H95   S    
C106  C150  A    
C71   C98   A    
C135  C140  A    
C94   C112  A    
C43   C44   S    
O55   P3    S    
C19   H168  S    
O27   P1    S    
C110  C114  A    
C120  N6    Am   
C61   C62   S    
C53   H36   S    
H30   O62   S    
C150  N1    Am   
C146  H123  S    
C144  N4    S    
C47   H16   S    
C83   C88   A    
C23   C48   S    
Ba3   O7    S    
C44   H9    S    
C28   O42   S    
C79   C86   A    
C22   H2    S    
C6    C160  A    
Ba3   O33   S    
C60   H52   S    
C149  H105  S    
C78   C139  A    
C72   C77   A    
C100  C107  A    
C13   O11   D    
C32   H89   S    
Ba4   O7    S    
C147  C156  S    
O42   P10   S    
C124  C129  A    
C84   H102  S    
C19   H6    S    
C54   H43   S    
C15   C134  A    
C46   N2    Am   
C58   H45   S    
C16   C131  A    
C37   H94   S    
C118  N8    Am   
C54   C151  S    
C45   H18   S    
C140  H134  S    
C87   C91   A    
C102  C151  S    
C68   C74   A    
C107  C111  A    
