data_mof_unit_32458.cif
_audit_creation_date              2012-12-10T18:58:15-0500
_audit_creation_method            fapswitch 2.2
_symmetry_space_group_name_H-M    P1
_symmetry_Int_Tables_number       1
_space_group_crystal_system       triclinic
_cell_length_a                    11.055463
_cell_length_b                    10.858554
_cell_length_c                    9.56349
_cell_angle_alpha                 90.294554
_cell_angle_beta                  102.507609
_cell_angle_gamma                 90.470632
_cell_volume                      1120.74936107

loop_
_atom_site_label
_atom_site_type_symbol
_atom_type_description
_atom_site_fract_x
_atom_site_fract_y
_atom_site_fract_z
_atom_type_partial_charge
C1    C     C_R   0.500315 0.262778 0.499720 0.826623
C2    C     C_R   0.427589 0.419527 0.054238 0.434194
C3    C     C_R   0.428734 0.419360 0.906198 -0.128447
C4    C     C_R   0.262915 0.498810 0.442091 0.883903
C5    C     C_R   0.560235 0.590981 0.941905 0.241760
C6    C     C_3   0.694687 0.622575 0.969153 -0.484009
C7    C     C_3   0.695043 0.622194 0.127921 -0.486789
C8    C     C_R   0.500751 0.737253 0.500257 0.798173
C9    C     C_R   0.737114 0.499074 0.558153 0.850687
C10   C     C_2   0.128116 0.493928 0.410170 -0.331470
C11   C     C_2   0.067820 0.492455 0.517141 -0.155414
C12   C     C_R   0.502221 0.130170 0.498461 -0.102195
C13   C     C_2   0.872041 0.498503 0.591591 -0.346394
C14   C     C_2   0.933422 0.486208 0.486651 -0.145359
C15   C     C_R   0.495262 0.062647 0.619293 0.116388
C16   C     C_R   0.511480 0.064060 0.373796 -0.174449
C17   C     C_R   0.511783 0.934872 0.374194 -0.217440
C18   C     C_R   0.502908 0.869929 0.499296 -0.101397
C19   C     C_R   0.495808 0.938652 0.619799 0.126631
C20   C     C_3   0.481908 0.930591 0.771016 -0.459759
C21   C     C_3   0.481164 0.072427 0.770408 -0.445447
C22   C     C_R   0.560398 0.590941 0.089068 0.189562
Cl1   Cl    Cl    0.328690 0.312735 0.111120 -0.640468
Cu1   Cu    Cu3+1 0.499990 0.499980 0.640670 0.945677
Cu2   Cu    Cu3+1 0.500010 0.500020 0.359330 0.992836
H1    H     H_    0.884470 0.472435 0.376555 0.171315
H2    H     H_    0.077924 0.490520 0.299053 0.163225
H3    H     H_    0.518126 0.111332 0.276263 0.195577
H4    H     H_    0.518495 0.886643 0.276787 0.169052
H5    H     H_    0.391769 0.888600 0.779593 0.205940
H6    H     H_    0.565004 0.891325 0.842932 0.192942
H7    H     H_    0.390495 0.112089 0.778420 0.210119
H8    H     H_    0.563782 0.115080 0.841953 0.204256
H9    H     H_    0.372750 0.353051 0.835009 0.169582
H10   H     H_    0.751304 0.547652 0.937306 0.218948
H11   H     H_    0.711746 0.715307 0.928384 0.188280
H12   H     H_    0.751188 0.546546 0.185050 0.208335
H13   H     H_    0.712813 0.714555 0.179266 0.196655
H14   H     H_    0.117590 0.497191 0.628428 0.187384
H15   H     H_    0.921482 0.509836 0.702330 0.153042
N1    N     N_R   0.500780 0.500930 0.148120 -0.218525
N2    N     N_R   0.500790 0.500890 0.852210 -0.211509
O1    O     O_R   0.500000 0.319640 0.618810 -0.592285
O2    O     O_R   0.500010 0.319680 0.381230 -0.537930
O3    O     O_R   0.320680 0.500000 0.575130 -0.592255
O4    O     O_R   0.320690 0.500040 0.337550 -0.530239
O5    O     O_R   0.499990 0.680320 0.618770 -0.580360
O6    O     O_R   0.500000 0.680360 0.381190 -0.588741
O7    O     O_R   0.679310 0.499960 0.662450 -0.584343
O8    O     O_R   0.679320 0.500000 0.424870 -0.585862

loop_
_geom_bond_atom_site_label_1
_geom_bond_atom_site_label_2
_ccdc_geom_bond_type
C10   H2    S    
C16   H3    S    
C15   C19   A    
C5    N2    A    
C8    O6    A    
C3    N2    A    
C6    C7    S    
C7    C22   S    
Cu1   N2    S    
C1    O2    A    
C19   C20   S    
C12   C15   A    
C20   C21   S    
C2    C3    A    
C7    H12   S    
C8    O5    A    
C9    O7    A    
C4    O4    A    
C13   C14   D    
C14   H1    S    
C11   H14   S    
Cu2   O6    S    
C1    C12   S    
Cu1   O3    S    
Cu1   O7    S    
Cu2   O2    S    
Cu1   Cu2   S    
C11   C14   S    
C7    H13   S    
C6    H11   S    
C17   C18   A    
C4    O3    A    
C5    C6    S    
C21   H7    S    
C22   N1    A    
C21   H8    S    
C10   C11   D    
C5    C22   A    
C2    N1    A    
C4    C10   S    
C15   C21   S    
C17   H4    S    
C6    H10   S    
C18   C19   A    
Cu2   N1    S    
C2    Cl1   S    
Cu1   O1    S    
C9    C13   S    
Cu2   O8    S    
C13   H15   S    
C20   H5    S    
C3    H9    S    
Cu1   O5    S    
Cu2   O4    S    
C1    O1    A    
C8    C18   S    
C9    O8    A    
C12   C16   A    
C16   C17   A    
C20   H6    S    
