data_mof_unit_40454.cif
_audit_creation_date              2012-12-11T17:39:34-0500
_audit_creation_method            fapswitch 2.2
_symmetry_space_group_name_H-M    P1
_symmetry_Int_Tables_number       1
_space_group_crystal_system       triclinic
_cell_length_a                    14.850289
_cell_length_b                    15.078694
_cell_length_c                    14.831661
_cell_angle_alpha                 109.198853
_cell_angle_beta                  108.881016
_cell_angle_gamma                 110.193017
_cell_volume                      2560.77928172

loop_
_atom_site_label
_atom_site_type_symbol
_atom_type_description
_atom_site_fract_x
_atom_site_fract_y
_atom_site_fract_z
_atom_type_partial_charge
C1    C     C_R   0.905490 0.978864 0.718456 -0.120531
C2    C     C_R   0.906332 0.699941 0.500765 -0.152223
C3    C     C_R   0.740405 0.777944 0.185551 -0.129760
C4    C     C_R   0.091301 0.314497 0.561533 -0.131006
C5    C     C_R   0.256666 0.941654 0.529814 -0.099020
C6    C     C_R   0.705936 0.674991 0.175102 0.131351
C7    C     C_R   0.286672 0.961537 0.454852 0.043454
C8    C     C_R   0.996375 0.695657 0.557707 0.059002
C9    C     C_R   0.997751 0.051182 0.187877 0.053365
C10   C     C_R   0.487473 0.576554 0.369788 -0.106718
C11   C     C_R   0.472119 0.657420 0.353017 -0.139947
C12   C     C_R   0.997396 0.322056 0.546172 0.037645
C13   C     C_R   0.457822 0.730090 0.427564 0.105576
C14   C     C_R   0.457346 0.718746 0.517950 -0.166775
C15   C     C_R   0.471251 0.636750 0.533362 -0.095045
C16   C     C_R   0.304214 0.205047 0.795878 0.500434
C17   C     C_R   0.486582 0.565926 0.459571 -0.108432
C18   C     C_R   0.362347 0.837676 0.424565 -0.235895
C19   C     C_R   0.345949 0.918444 0.407008 0.067705
C20   C     C_R   0.393110 0.959316 0.349793 0.032853
C21   C     C_R   0.465044 0.930382 0.326991 -0.229658
C22   C     C_R   0.506189 0.878517 0.376445 0.041749
C23   C     C_R   0.369541 0.297584 0.797100 -0.015883
C24   C     C_R   0.443242 0.816979 0.410236 0.036621
C25   C     C_R   0.308836 0.021536 0.227441 -0.151268
C26   C     C_R   0.302986 0.105253 0.209826 -0.049085
C27   C     C_R   0.378125 0.214071 0.291934 -0.128178
C28   C     C_R   0.693141 0.986862 0.396847 -0.143829
C29   C     C_R   0.460046 0.239257 0.391296 -0.133030
C30   C     C_R   0.465550 0.155801 0.409766 -0.158118
C31   C     C_R   0.388261 0.046618 0.328761 0.086619
C32   C     C_R   0.785628 0.171863 0.189590 -0.107247
C33   C     C_R   0.861109 0.269093 0.288723 -0.114588
C34   C     C_R   0.625218 0.918111 0.419083 0.070720
C35   C     C_R   0.826236 0.310963 0.361426 0.106925
C36   C     C_R   0.714569 0.256691 0.332305 -0.175182
C37   C     C_R   0.639777 0.158458 0.233968 -0.123405
C38   C     C_R   0.675243 0.115914 0.162630 -0.125409
C39   C     C_R   0.907160 0.503288 0.478063 -0.246471
C40   C     C_R   0.303941 0.297665 0.706345 -0.205849
C41   C     C_R   0.988799 0.603449 0.570398 0.058610
C42   C     C_R   0.065931 0.611740 0.662951 0.042004
C43   C     C_R   0.066351 0.517160 0.655265 -0.259453
C44   C     C_R   0.988757 0.417252 0.558312 0.074001
C45   C     C_R   0.738502 0.686130 0.278174 -0.148785
C46   C     C_R   0.906832 0.410357 0.469551 0.018064
C47   C     C_R   0.258936 0.759932 0.809512 -0.219416
C48   C     C_R   0.332705 0.867420 0.895048 -0.298346
C49   C     C_R   0.293167 0.933711 0.938503 0.631020
C50   C     C_R   0.179713 0.889499 0.898718 -0.163356
C51   C     C_R   0.105977 0.782428 0.813000 -0.248887
C52   C     C_R   0.692237 0.897926 0.489276 -0.151217
C53   C     C_R   0.144848 0.717780 0.765654 0.135207
C54   C     C_2   0.539311 0.466985 0.875650 -0.110692
C55   C     C_2   0.488054 0.371520 0.870221 -0.167846
C56   C     C_R   0.253114 0.032477 0.437349 -0.135163
C57   C     C_2   0.631920 0.562222 0.979828 -0.124539
C58   C     C_2   0.639178 0.571270 0.074966 -0.202724
C59   C     C_R   0.372356 0.367006 0.087568 -0.111851
C60   C     C_R   0.286085 0.280690 0.077497 -0.169909
C61   C     C_R   0.180960 0.269538 0.041845 0.100353
C62   C     C_R   0.163726 0.346268 0.016392 -0.122709
C63   C     C_R   0.250428 0.433117 0.027608 -0.101878
C64   C     C_R   0.907728 0.218520 0.480883 -0.107794
C65   C     C_R   0.354684 0.443501 0.063193 -0.111764
C66   C     C_R   0.086654 0.162308 0.114969 -0.252363
C67   C     C_R   0.089916 0.788257 0.589778 -0.115533
C68   C     C_R   0.992096 0.078313 0.099581 0.056907
C69   C     C_R   0.892092 0.023031 0.998747 0.006147
C70   C     C_R   0.891643 0.049642 0.917933 -0.218663
C71   C     C_R   0.990937 0.105890 0.922572 0.059531
C72   C     C_R   0.086838 0.176202 0.025818 0.019601
C73   C     C_R   0.794751 0.822815 0.921257 -0.125064
C74   C     C_R   0.696368 0.722824 0.859259 -0.150207
C75   C     C_R   0.596085 0.719153 0.838877 -0.103150
C76   C     C_R   0.088713 0.068866 0.811563 -0.115938
C77   C     C_R   0.593547 0.815609 0.876900 -0.103560
C78   C     C_R   0.908396 0.997573 0.197760 -0.132319
C79   C     C_R   0.691174 0.915826 0.934677 -0.194655
C80   C     C_R   0.792861 0.920211 0.959141 0.112590
C81   C     C_R   0.996006 0.059492 0.821029 0.025950
C82   C     C_R   0.090822 0.089054 0.285716 -0.146491
H1    H     H_    0.819545 0.948991 0.693560 0.101773
H2    H     H_    0.500441 0.522276 0.313421 0.111152
H3    H     H_    0.472490 0.664089 0.282604 0.114989
H4    H     H_    0.175926 0.380252 0.606901 0.100136
H5    H     H_    0.447738 0.774055 0.577363 0.110393
H6    H     H_    0.470505 0.628337 0.602789 0.108088
H7    H     H_    0.315852 0.794001 0.453913 0.122470
H8    H     H_    0.502284 0.965824 0.286736 0.124750
H9    H     H_    0.249972 0.937623 0.163770 0.118051
H10   H     H_    0.239119 0.085050 0.132885 0.118479
H11   H     H_    0.372973 0.279242 0.279459 0.105443
H12   H     H_    0.256547 0.063641 0.382997 0.131815
H13   H     H_    0.518572 0.323371 0.454339 0.106665
H14   H     H_    0.528584 0.175880 0.487495 0.121222
H15   H     H_    0.617234 0.039623 0.086701 0.096315
H16   H     H_    0.813441 0.139734 0.134603 0.110632
H17   H     H_    0.946865 0.310602 0.309934 0.113702
H18   H     H_    0.686628 0.288356 0.387656 0.123462
H19   H     H_    0.554756 0.114902 0.213981 0.146258
H20   H     H_    0.848501 0.497761 0.406770 0.134696
H21   H     H_    0.127092 0.521196 0.723655 0.131837
H22   H     H_    0.290545 0.711647 0.773881 0.128857
H23   H     H_    0.174515 0.815351 0.643865 0.115234
H24   H     H_    0.420284 0.899817 0.925520 0.111838
H25   H     H_    0.148263 0.939353 0.931837 0.127207
H26   H     H_    0.668475 0.008853 0.334549 0.101738
H27   H     H_    0.018217 0.751225 0.780508 0.139213
H28   H     H_    0.502281 0.482454 0.810912 0.114495
H29   H     H_    0.530757 0.356065 0.932407 0.121735
H30   H     H_    0.682762 0.632467 0.978551 0.139098
H31   H     H_    0.588728 0.503257 0.079989 0.123882
H32   H     H_    0.421473 0.510597 0.071430 0.111916
H33   H     H_    0.452726 0.374112 0.113580 0.102787
H34   H     H_    0.824605 0.976828 0.150562 0.108029
H35   H     H_    0.299906 0.219751 0.091618 0.145676
H36   H     H_    0.083093 0.338816 0.987948 0.110687
H37   H     H_    0.236653 0.492127 0.008266 0.110345
H38   H     H_    0.331912 0.347688 0.672232 0.115769
H39   H     H_    0.160642 0.214740 0.194355 0.127100
H40   H     H_    0.814648 0.005902 0.842030 0.129104
H41   H     H_    0.871615 0.824528 0.934426 0.109997
H42   H     H_    0.697837 0.648015 0.826728 0.110410
H43   H     H_    0.520048 0.641673 0.791690 0.088010
H44   H     H_    0.515511 0.812582 0.858191 0.102576
H45   H     H_    0.174316 0.148915 0.314494 0.103805
H46   H     H_    0.687061 0.989583 0.956539 0.110759
H47   H     H_    0.666830 0.840106 0.516119 0.118053
H48   H     H_    0.822540 0.194223 0.456186 0.116646
H49   H     H_    0.173309 0.121003 0.875058 0.168206
H50   H     H_    0.722591 0.622080 0.298889 0.095302
H51   H     H_    0.413237 0.212600 0.917832 0.308461
H52   H     H_    0.438072 0.062995 0.028657 0.307101
H53   H     H_    0.821372 0.647436 0.475806 0.096236
H54   H     H_    0.724934 0.797929 0.120594 0.111637
H55   H     H_    0.270029 0.890780 0.563181 0.091624
H56   H     H_    0.497988 0.502942 0.472082 0.095245
N1    N     N_R   0.941940 0.944580 0.650780 -0.046036
N2    N     N_R   0.204460 0.150250 0.707090 -0.073501
N3    N     N_R   0.794270 0.003240 0.446420 -0.041779
N4    N     N_R   0.204920 0.207570 0.650770 -0.068352
N5    N     N_R   0.793810 0.945920 0.502740 -0.042297
N6    N     N_R   0.943620 0.152590 0.446420 -0.041758
N7    N     N_R   0.055110 0.000900 0.707100 -0.034980
N8    N     N_R   0.795080 0.792430 0.349230 -0.039811
N9    N     N_R   0.206190 0.054080 0.497260 -0.047183
N10   N     N_R   0.056380 0.847410 0.553580 -0.041601
N11   N     N_R   0.944890 0.999100 0.292900 -0.039596
N12   N     N_R   0.058060 0.055420 0.349220 -0.040424
N13   N     N_R   0.943200 0.791100 0.497260 -0.039812
N14   N     N_R   0.795540 0.849750 0.292910 -0.043993
N15   N     N_R   0.205730 0.996760 0.553580 -0.038575
N16   N     N_R   0.056800 0.208900 0.502740 -0.039900
Ni1   Ni    Ni4+2 0.869690 0.869690 0.500000 0.209688
Ni2   Ni    Ni4+2 0.130310 0.130310 0.500000 0.204190
Ni3   Ni    Ni4+2 0.129250 0.998840 0.629170 0.268522
Ni4   Ni    Ni4+2 0.870750 0.001160 0.370830 0.213165
O1    O     O_3   0.339256 0.157475 0.853839 -0.772743
O2    O     O_3   0.362713 0.041904 0.017617 -0.781507

loop_
_geom_bond_atom_site_label_1
_geom_bond_atom_site_label_2
_ccdc_geom_bond_type
C25   C31   A    
C74   H42   S    
C79   H46   S    
C63   C65   A    
C41   C42   A    
C6    C45   A    
C40   N4    A    
C27   C29   A    
C65   H32   S    
C6    C58   S    
C4    N16   A    
C35   C36   A    
N10   N13   A    
C3    C6    A    
C48   H24   S    
C39   C41   A    
C11   H3    S    
C56   H12   S    
C9    C78   A    
C26   C27   A    
C37   C38   A    
C18   C24   A    
C52   H47   S    
C36   C37   A    
N2    N4    A    
C14   H5    S    
C18   C19   A    
N3    N5    A    
C42   C53   S    
C30   C31   A    
C12   C64   A    
C76   H49   S    
C57   H30   S    
C4    H4    S    
C66   C68   A    
C10   C17   A    
C1    C81   A    
C23   C40   A    
C63   H37   S    
C54   H28   S    
C3    H54   S    
C73   C74   A    
C30   H14   S    
C66   C72   A    
N8    Ni1   S    
C19   C20   A    
C68   C69   A    
C73   H41   S    
C58   H31   S    
C49   O2    S    
C17   H56   S    
C32   C38   A    
C4    C12   A    
C29   C30   A    
N11   Ni4   S    
N16   Ni2   S    
C61   C62   A    
C1    N1    A    
C9    C82   A    
C47   C53   A    
C28   C34   A    
C59   C60   A    
C51   H27   S    
N12   Ni2   S    
C13   C14   A    
C16   O1    S    
N15   Ni3   S    
H52   O2    S    
C16   N2    A    
C7    C56   A    
C38   H15   S    
C44   C46   A    
C21   H8    S    
C77   C79   A    
C22   C34   S    
N14   Ni4   S    
C25   H9    S    
C52   N5    A    
C74   C75   A    
C45   N8    A    
C8    C41   S    
C29   H13   S    
C67   H23   S    
C64   N6    A    
C25   C26   A    
C13   C24   S    
C60   C61   A    
C75   H43   S    
C43   C44   A    
C62   C63   A    
N2    Ni3   S    
N7    Ni3   S    
C70   H40   S    
N5    Ni1   S    
C47   C48   A    
N1    Ni1   S    
C50   C51   A    
C3    N14   A    
C66   H39   S    
C60   H35   S    
C36   H18   S    
C5    H55   S    
N9    Ni2   S    
C75   C77   A    
C82   N12   A    
C45   H50   S    
C39   C46   A    
N8    N14   A    
C61   C72   S    
C48   C49   A    
C40   H38   S    
C64   H48   S    
C76   N7    A    
C16   C23   A    
N13   Ni1   S    
C50   H25   S    
C22   C24   A    
C27   H11   S    
C42   C43   A    
N6    Ni4   S    
C70   C71   A    
C39   H20   S    
C5    C7    A    
C2    N13   A    
C15   C17   A    
C54   C55   D    
N1    N7    A    
C47   H22   S    
C55   H29   S    
C18   H7    S    
C34   C52   A    
C78   H34   S    
C76   C81   A    
C23   C55   S    
C1    H1    S    
C7    C19   S    
C2    H53   S    
H51   O1    S    
N4    Ni2   S    
C32   C33   A    
C56   N9    A    
C9    C68   S    
C71   C72   A    
C12   C44   S    
N11   N12   A    
C59   C65   A    
C37   H19   S    
C11   C13   A    
C57   C58   D    
C28   H26   S    
C5    N15   A    
C10   H2    S    
C33   C35   A    
C73   C80   A    
C32   H16   S    
N10   Ni3   S    
N6    N16   A    
C69   C70   A    
N9    N15   A    
C43   H21   S    
C82   H45   S    
C62   H36   S    
C10   C11   A    
C51   C53   A    
C79   C80   A    
N3    Ni4   S    
C20   C21   A    
C8    C67   A    
C59   H33   S    
C49   C50   A    
C2    C8    A    
C67   N10   A    
C14   C15   A    
C69   C80   S    
C28   N3    A    
C33   H17   S    
C21   C22   A    
C35   C46   S    
C26   H10   S    
C54   C57   S    
C77   H44   S    
C78   N11   A    
C15   H6    S    
C71   C81   S    
C20   C31   S    
