data_mof_unit_36165.cif
_audit_creation_date              2012-12-10T16:59:21-0500
_audit_creation_method            fapswitch 2.2
_symmetry_space_group_name_H-M    P1
_symmetry_Int_Tables_number       1
_space_group_crystal_system       triclinic
_cell_length_a                    7.730148
_cell_length_b                    8.596203
_cell_length_c                    27.742645
_cell_angle_alpha                 90.944049
_cell_angle_beta                  86.563668
_cell_angle_gamma                 93.306129
_cell_volume                      1836.96252341

loop_
_atom_site_label
_atom_site_type_symbol
_atom_type_description
_atom_site_fract_x
_atom_site_fract_y
_atom_site_fract_z
_atom_type_partial_charge
C1    C     C_R   0.544859 0.794342 0.497924 0.879274
C2    C     C_R   0.518106 0.646564 0.127775 -0.080852
C3    C     C_R   0.512399 0.498189 0.646379 -0.058811
C4    C     C_R   0.487469 0.501353 0.353608 -0.058891
C5    C     C_R   0.541102 0.640601 0.025275 0.001817
C6    C     C_R   0.457877 0.357265 0.974700 0.001758
C7    C     C_R   0.440006 0.362742 0.025916 0.092536
C8    C     C_R   0.559430 0.635011 0.974078 0.092392
C9    C     C_R   0.484596 0.503912 0.050917 0.070297
C10   C     C_R   0.514621 0.493929 0.949068 0.070241
C11   C     C_R   0.574871 0.779846 0.051774 -0.344800
C12   C     C_R   0.455142 0.205658 0.502077 0.879248
C13   C     C_R   0.423368 0.218211 0.948168 -0.344579
C14   C     C_R   0.566884 0.783849 0.102257 0.499459
C15   C     C_R   0.431510 0.214290 0.897680 0.499532
C16   C     C_R   0.503497 0.499603 0.593863 0.893671
C17   C     C_R   0.496489 0.500343 0.406133 0.893542
C18   C     C_R   0.624573 0.765552 0.946769 -0.242268
C19   C     C_R   0.375640 0.232019 0.053261 -0.242467
C20   C     C_2   0.562954 0.956153 0.490043 0.188993
C21   C     C_2   0.437050 0.043848 0.509961 0.188961
C22   C     C_R   0.589732 0.622143 0.821751 0.521458
C23   C     C_R   0.526912 0.489829 0.897834 -0.133987
C24   C     C_R   0.410008 0.375843 0.178262 0.521413
C25   C     C_R   0.484669 0.355731 0.821402 0.555567
C26   C     C_R   0.514208 0.642491 0.178556 0.555457
C27   C     C_R   0.640909 0.405015 0.717346 -0.145795
C28   C     C_R   0.357929 0.593071 0.282605 -0.145853
C29   C     C_R   0.632405 0.405503 0.667345 0.033318
C30   C     C_R   0.366751 0.593199 0.332600 0.033534
C31   C     C_R   0.401577 0.589574 0.676055 0.027042
C32   C     C_R   0.598658 0.410188 0.323963 0.027028
C33   C     C_R   0.410908 0.585126 0.726113 -0.126174
C34   C     C_R   0.472333 0.508103 0.102151 -0.133929
C35   C     C_R   0.589025 0.414085 0.273906 -0.126343
C36   C     C_R   0.530188 0.493780 0.746523 0.247739
C37   C     C_R   0.469085 0.504625 0.253464 0.247925
C38   C     C_R   0.584710 0.624972 0.872096 -0.000037
C39   C     C_R   0.414994 0.372900 0.127914 -0.000048
C40   C     C_R   0.635911 0.760446 0.896881 -0.126845
C41   C     C_R   0.364306 0.237233 0.103151 -0.126947
C42   C     C_R   0.480751 0.351527 0.872183 -0.080840
H1    H     H_    0.014339 0.383565 0.463485 0.210311
H2    H     H_    0.391259 0.108708 0.965530 0.135362
H3    H     H_    0.670524 0.874292 0.962447 0.148797
H4    H     H_    0.330502 0.122958 0.037630 0.148607
H5    H     H_    0.204408 0.740633 0.682234 0.199271
H6    H     H_    0.356709 0.778968 0.637759 0.210712
H7    H     H_    0.796644 0.259987 0.317826 0.199041
H8    H     H_    0.644778 0.221451 0.362397 0.211117
H9    H     H_    0.280145 0.805087 0.350652 0.198713
H10   H     H_    0.127312 0.656366 0.355290 0.202976
H11   H     H_    0.717307 0.193241 0.649012 0.198503
H12   H     H_    0.985661 0.616436 0.536514 0.210356
H13   H     H_    0.871495 0.340950 0.644791 0.202937
H14   H     H_    0.641136 0.005489 0.103780 0.326282
H15   H     H_    0.357231 0.992646 0.896108 0.326299
H16   H     H_    0.764023 0.932067 0.444404 0.345548
H17   H     H_    0.235988 0.067936 0.555601 0.345538
H18   H     H_    0.326199 0.653291 0.749503 0.159714
H19   H     H_    0.674058 0.346161 0.250541 0.159512
H20   H     H_    0.684541 0.864438 0.877763 0.212474
H21   H     H_    0.316158 0.133141 0.122294 0.212976
H22   H     H_    0.265708 0.663200 0.266275 0.160780
H23   H     H_    0.732618 0.334264 0.733647 0.160983
H24   H     H_    0.606044 0.889451 0.034373 0.135286
N1    N     N_R   0.536827 0.489952 0.797737 -0.363851
N2    N     N_R   0.462454 0.508231 0.202248 -0.363926
N3    N     N_2   0.950320 0.457960 0.486880 -0.161680
N4    N     N_2   0.049680 0.542040 0.513120 -0.161639
N5    N     N_3   0.282833 0.688582 0.655258 -0.412410
N6    N     N_3   0.718097 0.311951 0.344792 -0.412658
N7    N     N_3   0.256104 0.689860 0.361808 -0.427556
N8    N     N_3   0.742585 0.308576 0.638081 -0.427631
O1    O     O_R   0.389250 0.738570 0.503220 -0.554223
O2    O     O_2   0.354149 0.247204 0.203255 -0.530095
O3    O     O_2   0.564681 0.769988 0.204295 -0.468407
O4    O     O_2   0.433795 0.228417 0.795637 -0.468706
O5    O     O_3   0.604942 0.921583 0.126974 -0.696604
O6    O     O_3   0.393134 0.076676 0.872932 -0.696414
O7    O     O_3   0.694393 0.017178 0.458184 -0.779617
O8    O     O_3   0.305614 0.982824 0.541820 -0.779525
O9    O     O_R   0.610750 0.261430 0.496780 -0.554264
O10   O     O_R   0.678390 0.711630 0.494810 -0.651770
O11   O     O_R   0.321610 0.288370 0.505190 -0.651780
O12   O     O_R   0.355440 0.513440 0.575450 -0.597726
O13   O     O_R   0.644560 0.486560 0.424550 -0.597834
O14   O     O_R   0.644590 0.486500 0.567040 -0.613118
O15   O     O_R   0.355410 0.513500 0.432960 -0.613101
O16   O     O_2   0.646084 0.750710 0.796789 -0.530436
Zn1   Zn    Zn3+2 0.306940 0.517990 0.505620 0.995120
Zn2   Zn    Zn3+2 0.693060 0.482010 0.494380 0.995019

loop_
_geom_bond_atom_site_label_1
_geom_bond_atom_site_label_2
_ccdc_geom_bond_type
C27   C29   A    
H11   N8    S    
C25   N1    A    
H17   O8    S    
C24   C39   A    
O11   Zn1   S    
C36   N1    S    
C39   C41   A    
C1    O10   A    
O9    Zn2   S    
H14   O5    S    
C12   O11   A    
C35   C37   A    
C5    C11   A    
O12   Zn1   S    
C11   C14   A    
C22   C38   A    
C37   N2    S    
C33   C36   A    
C40   H20   S    
C3    C29   A    
H8    N6    S    
C18   C40   A    
H13   N8    S    
O14   Zn2   S    
H7    N6    S    
C31   C33   A    
O15   Zn1   S    
N3    Zn2   S    
C11   H24   S    
O1    Zn1   S    
C2    C34   A    
C31   N5    S    
H1    N3    S    
C20   O7    S    
C16   O12   A    
H15   O6    S    
C19   H4    S    
C26   O3    S    
C34   C39   A    
C1    O1    A    
C32   C35   A    
C17   O15   A    
C32   N6    S    
H10   N7    S    
H16   O7    S    
C30   N7    S    
C24   O2    S    
C29   N8    S    
C12   C21   S    
C8    C18   A    
C25   O4    S    
C12   O9    A    
C5    C9    A    
C27   H23   S    
C15   O6    S    
H12   N4    S    
C22   O16   S    
C2    C26   A    
C14   O5    S    
C20   C21   D    
C3    C31   A    
C23   C42   A    
N4    Zn1   S    
H5    N5    S    
C4    C32   A    
C4    C17   S    
C28   H22   S    
C33   H18   S    
C7    C19   A    
C13   C15   A    
C9    C34   A    
C10   C23   A    
C41   H21   S    
H6    N5    S    
C18   H3    S    
C7    C9    A    
C1    C20   S    
C17   O13   A    
H9    N7    S    
C15   C42   A    
C25   C42   A    
C6    C10   A    
C5    C8    A    
C6    C7    A    
C27   C36   A    
C23   C38   A    
C26   N2    A    
C28   C30   A    
C6    C13   A    
C38   C40   A    
C28   C37   A    
C35   H19   S    
N3    N4    D    
C2    C14   A    
C22   N1    A    
C24   N2    A    
C21   O8    S    
C8    C10   A    
C16   O14   A    
O10   Zn2   S    
O13   Zn2   S    
C13   H2    S    
C4    C30   A    
C3    C16   S    
C19   C41   A    
