data_mof_unit_8127.cif
_audit_creation_date              2013-03-05T16:42:04-0500
_audit_creation_method            fapswitch 2.2
_symmetry_space_group_name_H-M    P1
_symmetry_Int_Tables_number       1
_space_group_crystal_system       triclinic
_cell_length_a                    9.935391
_cell_length_b                    10.651539
_cell_length_c                    13.061847
_cell_angle_alpha                 89.583534
_cell_angle_beta                  69.197403
_cell_angle_gamma                 88.483405
_cell_volume                      1291.73011002

loop_
_atom_site_label
_atom_site_type_symbol
_atom_site_description
_atom_site_fract_x
_atom_site_fract_y
_atom_site_fract_z
_atom_type_partial_charge
O1    O     O_R   0.385310 0.683210 0.499990 -0.605332
O2    O     O_R   0.614650 0.683240 0.500000 -0.584119
C1    C     C_R   0.500891 0.739372 0.493509 0.963402
O3    O     O_R   0.328390 0.499940 0.653610 -0.574685
O4    O     O_R   0.557730 0.499980 0.653620 -0.609708
C2    C     C_R   0.420021 0.492786 0.704693 0.885682
Zn1   Zn    Zn3+2 0.346870 0.499980 0.499990 1.024943
Zn2   Zn    Zn3+2 0.653130 0.500020 0.500010 1.021821
O5    O     O_R   0.385350 0.316760 0.500000 -0.631427
O6    O     O_R   0.614690 0.316790 0.500010 -0.635942
O7    O     O_R   0.442270 0.500020 0.346380 -0.602032
O8    O     O_R   0.671610 0.500060 0.346390 -0.574136
C3    C     C_R   0.500841 0.260347 0.501411 0.874790
C4    C     C_R   0.580836 0.501564 0.295564 0.968364
C5    C     C_R   0.779001 0.363911 0.021414 0.201691
H1    H     H_    0.819390 0.373743 0.171544 0.192313
H2    H     H_    0.784499 0.280066 0.824603 0.182273
C6    C     C_R   0.634771 0.489429 0.177452 -0.130210
C7    C     C_R   0.234108 0.531231 0.888167 -0.210771
C8    C     C_R   0.197023 0.549050 0.001046 0.345114
C9    C     C_R   0.302361 0.526075 0.047752 -0.186469
C10   C     C_R   0.442101 0.481569 0.983470 0.070014
C11   C     C_R   0.468222 0.443248 0.875450 0.110395
C12   C     C_R   0.555435 0.470114 0.025031 -0.038389
C13   C     C_R   0.677489 0.390985 0.970986 0.078373
C14   C     C_R   0.693465 0.340284 0.869053 -0.103070
C15   C     C_R   0.592719 0.368711 0.820832 -0.121398
C16   C     C_R   0.551187 0.536495 0.118632 0.228855
C17   C     C_R   0.751765 0.407305 0.127267 -0.212321
C18   C     C_R   0.370465 0.482915 0.824406 -0.167415
H3    H     H_    0.158115 0.557507 0.849561 0.257983
H4    H     H_    0.274205 0.541536 0.134686 0.189016
H5    H     H_    0.611529 0.327091 0.741642 0.179441
C19   C     C_R   0.378418 0.937803 0.548397 0.013002
C20   C     C_R   0.498552 0.871457 0.479732 -0.158440
C21   C     C_R   0.611740 0.935952 0.400589 0.310229
C22   C     C_R   0.614102 0.066473 0.410928 -0.251802
H6    H     H_    0.700477 0.119717 0.354214 0.189448
C23   C     C_R   0.504558 0.128207 0.495485 -0.100172
C24   C     C_R   0.383179 0.064534 0.558056 0.054363
C25   C     C_3   0.302829 0.062012 0.679194 0.001339
C26   C     C_3   0.293960 0.921419 0.667438 -0.419910
H7    H     H_    0.196389 0.111839 0.702817 0.175654
H8    H     H_    0.352335 0.862948 0.709947 0.230846
H9    H     H_    0.182211 0.893792 0.682911 0.228491
C27   C     C_R   0.924091 0.610734 0.506707 0.166716
N1    N     N_R   0.856940 0.500860 0.500710 -0.103171
C28   C     C_R   0.939269 0.392432 0.482745 -0.096528
H10   H     H_    0.894018 0.305034 0.470581 0.161725
C29   C     C_R   0.083068 0.392615 0.481873 -0.050672
H11   H     H_    0.144644 0.305217 0.468612 0.153943
N2    N     N_R   0.142580 0.500820 0.500710 -0.082746
C30   C     C_R   0.063715 0.608521 0.510334 0.099647
C31   C     C_3   0.030497 0.702933 0.599337 0.007185
C32   C     C_3   0.881284 0.716338 0.590989 0.160744
H12   H     H_    0.099721 0.785655 0.573121 0.122604
I1    I     I_    0.427250 0.102447 0.778473 -0.280790
N3    N     N_R   0.028006 0.649627 0.703962 0.231172
O9    O     O_R   0.001381 0.531466 0.726599 -0.385662
O10   O     O_R   0.021214 0.725647 0.783173 -0.351286
I2    I     I_    0.702323 0.699114 0.742590 -0.095044
I3    I     I_    0.865414 0.895573 0.520934 -0.265390
I4    I     I_    0.966629 0.248087 0.950144 -0.247740
N4    N     N_R   0.483287 0.660338 0.141637 0.226545
O11   O     O_R   0.436278 0.707596 0.240055 -0.350771
O12   O     O_R   0.485126 0.733204 0.060656 -0.301336
N5    N     N_R   0.055766 0.596469 0.066867 0.229922
O13   O     O_R   0.963658 0.631784 0.021491 -0.284414
O14   O     O_R   0.018113 0.605488 0.172754 -0.344582
N6    N     N_R   0.724277 0.872301 0.313001 0.241095
O15   O     O_R   0.702446 0.764087 0.277155 -0.314272
O16   O     O_R   0.843028 0.929191 0.259354 -0.306988

loop_
_geom_bond_atom_site_label_1
_geom_bond_atom_site_label_2
_geom_bond_distance
_ccdc_geom_bond_type
C27   C32   1.522560 S    
O4    Zn2   1.890327 S    
C29   N2    1.371876 A    
C32   I3    2.137306 S    
C22   H6    1.083964 S    
C11   C15   1.413768 A    
C21   N6    1.442643 S    
C12   C16   1.403853 A    
C25   C26   1.514559 S    
C4    C6    1.447751 S    
C8    N5    1.440716 S    
C7    C8    1.400058 A    
C19   C26   1.493095 S    
C1    C20   1.417697 S    
Zn2   O8    1.948924 S    
C7    H3    1.076974 S    
N4    O11   1.301758 A    
C8    C9    1.401849 A    
C28   C29   1.424747 A    
O2    C1    1.293708 A    
N3    O9    1.303123 A    
Zn2   N1    2.028455 S    
C25   I1    2.137796 S    
O6    C3    1.289337 A    
C22   C23   1.398439 A    
C6    C17   1.399757 A    
C27   N1    1.378663 A    
C30   C31   1.482783 S    
C15   H5    1.079971 S    
Zn1   O7    1.890330 S    
C25   H7    1.111814 S    
C31   C32   1.527564 S    
C14   C15   1.385392 A    
N6    O15   1.299263 A    
C26   H8    1.112277 S    
O3    Zn1   1.948922 S    
C19   C24   1.360297 A    
H2    C14   1.080859 S    
C16   N4    1.449182 S    
C27   C30   1.404312 A    
C9    C10   1.414295 A    
C24   C25   1.498309 S    
C2    C18   1.466982 S    
O8    C4    1.295657 A    
Zn1   N2    2.026163 S    
C5    C17   1.391207 A    
C31   H12   1.107728 S    
C10   C11   1.402634 A    
O4    C2    1.295894 A    
C28   H10   1.081220 S    
O7    C4    1.299282 A    
C10   C12   1.415441 A    
C5    C13   1.409943 A    
O3    C2    1.306482 A    
C3    C23   1.408973 S    
C26   H9    1.103261 S    
N3    O10   1.300151 A    
N5    O13   1.301550 A    
C11   C18   1.414402 A    
C32   I2    2.151133 S    
C6    C16   1.398857 A    
C12   C13   1.423287 A    
H1    C17   1.083509 S    
Zn2   O6    1.998593 S    
C19   C20   1.390196 A    
C31   N3    1.468331 S    
N5    O14   1.301776 A    
C23   C24   1.384702 A    
Zn1   O5    1.978722 S    
C5    I4    2.127446 S    
C9    H4    1.081396 S    
C21   C22   1.399389 A    
O5    C3    1.287008 A    
C29   H11   1.080662 S    
C13   C14   1.394763 A    
O1    Zn1   1.998593 S    
C7    C18   1.400620 A    
N6    O16   1.301788 A    
O2    Zn2   1.978723 S    
N1    C28   1.369516 A    
N2    C30   1.352900 A    
O1    C1    1.284633 A    
C20   C21   1.417765 A    
N4    O12   1.302565 A    
