data_mof_unit_7439.cif
_audit_creation_date              2012-12-10T20:28:43-0500
_audit_creation_method            fapswitch 2.2
_symmetry_space_group_name_H-M    P1
_symmetry_Int_Tables_number       1
_space_group_crystal_system       triclinic
_cell_length_a                    10.701547
_cell_length_b                    10.690542
_cell_length_c                    9.835295
_cell_angle_alpha                 89.536955
_cell_angle_beta                  92.049519
_cell_angle_gamma                 89.72712
_cell_volume                      1124.43934977

loop_
_atom_site_label
_atom_site_type_symbol
_atom_type_description
_atom_site_fract_x
_atom_site_fract_y
_atom_site_fract_z
_atom_type_partial_charge
C1    C     C_R   0.503361 0.259930 0.500556 0.877582
C2    C     C_R   0.458736 0.936938 0.383463 -0.190882
C3    C     C_R   0.510446 0.871083 0.495206 -0.159806
C4    C     C_R   0.261147 0.515935 0.497668 0.963393
C5    C     C_R   0.579004 0.933004 0.596144 0.009352
C6    C     C_3   0.576527 0.921769 0.746831 0.472280
C7    C     C_3   0.587553 0.063574 0.749947 0.296099
C8    C     C_R   0.396670 0.462128 0.067501 0.266216
C9    C     C_R   0.595521 0.552011 0.075336 -0.117868
C10   C     C_R   0.594923 0.552949 0.931155 -0.147436
C11   C     C_R   0.396223 0.463446 0.924893 0.257686
C12   C     C_R   0.069287 0.573719 0.613670 -0.158809
C13   C     C_3   0.332928 0.340301 0.914848 0.271149
C14   C     C_3   0.336473 0.336475 0.069881 -0.570405
C15   C     C_R   0.500700 0.739768 0.499223 0.924108
C16   C     C_R   0.741266 0.495889 0.503244 0.908585
C17   C     C_R   0.128986 0.642718 0.721008 0.477797
C18   C     C_R   0.079346 0.640902 0.850505 0.674191
C19   C     C_R   0.969263 0.576802 0.872428 -0.243224
C20   C     C_R   0.902896 0.523618 0.763135 -0.256677
C21   C     C_R   0.946893 0.531657 0.629225 0.056856
C22   C     C_3   0.714919 0.228840 0.813579 -0.218466
C23   C     C_R   0.128950 0.540347 0.493298 -0.230352
C24   C     C_3   0.161846 0.237931 0.822055 -0.254658
C25   C     C_3   0.197720 0.826391 0.635551 -0.329823
C26   C     C_R   0.059481 0.505575 0.376819 0.619046
C27   C     C_R   0.933793 0.488031 0.384673 -0.291194
C28   C     C_R   0.876172 0.498732 0.509409 -0.169482
C29   C     C_R   0.584102 0.060972 0.596637 -0.042311
C30   C     C_R   0.512937 0.127792 0.498078 -0.137157
C31   C     C_R   0.458982 0.065698 0.385500 -0.180840
F1    F     F_    0.112594 0.485061 0.255661 -0.657276
F2    F     F_    0.681444 0.859303 0.799496 -0.607702
F3    F     F_    0.139317 0.699770 0.955458 -0.631331
H1    H     H_    0.505541 0.108535 0.795742 -0.000012
H2    H     H_    0.410156 0.116007 0.303526 0.163717
H3    H     H_    0.410625 0.889606 0.299936 0.185001
H4    H     H_    0.486804 0.885375 0.784437 0.056791
H5    H     H_    0.635488 0.271107 0.867182 0.140439
H6    H     H_    0.723022 0.269444 0.710152 0.171456
H7    H     H_    0.801758 0.252217 0.872708 0.171951
H8    H     H_    0.162354 0.172832 0.910988 0.174380
H9    H     H_    0.214521 0.196643 0.737659 0.145066
H10   H     H_    0.063336 0.250629 0.785273 0.193896
H11   H     H_    0.124231 0.876275 0.691908 0.181668
H12   H     H_    0.673599 0.592115 0.132264 0.170334
H13   H     H_    0.165113 0.809467 0.528662 0.165652
H14   H     H_    0.279676 0.889221 0.632864 0.173163
H15   H     H_    0.671169 0.595818 0.879487 0.200820
H16   H     H_    0.391984 0.269205 0.865855 0.076526
H17   H     H_    0.242536 0.338861 0.114147 0.285226
H18   H     H_    0.400286 0.262871 0.112975 0.161299
H19   H     H_    0.933646 0.570284 0.973917 0.191159
H20   H     H_    0.821737 0.470821 0.787939 0.174102
H21   H     H_    0.882089 0.463044 0.292127 0.190290
N1    N     N_R   0.499160 0.499140 0.142800 -0.123730
N2    N     N_R   0.499160 0.499180 0.857150 -0.161657
O1    O     O_R   0.500020 0.316790 0.614690 -0.659913
O2    O     O_3   0.210545 0.355660 0.858393 -0.570384
O3    O     O_3   0.234632 0.713570 0.700963 -0.574280
O4    O     O_R   0.500000 0.316760 0.385350 -0.616051
O5    O     O_R   0.316770 0.500020 0.614690 -0.566733
O6    O     O_R   0.316760 0.499980 0.385350 -0.564720
O7    O     O_R   0.500000 0.683240 0.614650 -0.570518
O8    O     O_R   0.499980 0.683210 0.385310 -0.619531
O9    O     O_R   0.683240 0.500020 0.614650 -0.645987
O10   O     O_R   0.683230 0.499980 0.385310 -0.630810
O11   O     O_3   0.705759 0.097952 0.806482 -0.524289
Zn1   Zn    Zn3+2 0.500010 0.500020 0.653130 0.985402
Zn2   Zn    Zn3+2 0.499990 0.499980 0.346870 0.991632

loop_
_geom_bond_atom_site_label_1
_geom_bond_atom_site_label_2
_ccdc_geom_bond_type
O4    Zn2   S    
C16   C28   S    
C15   O7    A    
O6    Zn2   S    
O1    Zn1   S    
C26   F1    S    
C29   C30   A    
C7    C29   S    
C25   O3    S    
C4    O5    A    
C24   H8    S    
C9    C10   A    
C25   H13   S    
N1    Zn2   S    
C14   H17   S    
C2    H3    S    
C6    F2    S    
C30   C31   A    
O10   Zn2   S    
C22   H6    S    
C8    N1    A    
C19   C20   A    
C6    H4    S    
C2    C3    A    
C7    O11   S    
C9    H12   S    
C16   O10   A    
C11   N2    A    
O7    Zn1   S    
C12   C17   A    
C11   C13   S    
C12   C23   A    
C19   H19   S    
C26   C27   A    
C6    C7    S    
C7    H1    S    
C18   F3    S    
C24   O2    S    
C13   O2    S    
C22   H5    S    
C4    O6    A    
C1    C30   S    
C21   C28   A    
C17   C18   A    
C5    C29   A    
C8    C11   A    
C5    C6    S    
C24   H10   S    
C27   H21   S    
C22   H7    S    
C16   O9    A    
C17   O3    S    
C13   H16   S    
O9    Zn1   S    
C25   H11   S    
C10   N2    A    
C3    C15   S    
C20   C21   A    
C20   H20   S    
C18   C19   A    
C23   C26   A    
C27   C28   A    
C9    N1    A    
C24   H9    S    
C31   H2    S    
C8    C14   S    
C22   O11   S    
C13   C14   S    
N2    Zn1   S    
C4    C23   S    
C1    O1    A    
C10   H15   S    
C25   H14   S    
C12   C21   A    
C14   H18   S    
O8    Zn2   S    
O5    Zn1   S    
C1    O4    A    
C2    C31   A    
C3    C5    A    
C15   O8    A    
