data_mof_unit_24267.cif
_audit_creation_date              2012-10-26T19:05:07-0400
_audit_creation_method            fapswitch 2.2
_symmetry_space_group_name_H-M    P1
_symmetry_Int_Tables_number       1
_space_group_crystal_system       triclinic
_cell_length_a                    15.878841
_cell_length_b                    10.758604
_cell_length_c                    9.661024
_cell_angle_alpha                 88.983226
_cell_angle_beta                  90.875643
_cell_angle_gamma                 92.331426
_cell_volume                      1648.63197909

loop_
_atom_site_label
_atom_site_type_symbol
_atom_type_description
_atom_site_fract_x
_atom_site_fract_y
_atom_site_fract_z
_atom_type_partial_charge
C1    C     C_R   0.501375 0.262927 0.501215 0.534016
C2    C     C_R   0.709235 0.070978 0.694040 0.163284
C3    C     C_R   0.714695 0.943884 0.669981 -0.103054
C4    C     C_R   0.340457 0.499727 0.499167 0.549191
C5    C     C_R   0.650113 0.878566 0.600067 -0.148990
C6    C     C_R   0.576953 0.938107 0.555405 0.015558
C7    C     C_R   0.573924 0.068315 0.566781 -0.004582
C8    C     C_R   0.505538 0.129144 0.503513 0.007215
C9    C     C_R   0.441260 0.061899 0.434183 -0.149897
C10   C     C_R   0.441576 0.933615 0.432021 -0.153871
C11   C     C_R   0.507753 0.871544 0.494865 0.006273
C12   C     C_3   0.952698 0.441364 0.644467 -0.077070
C13   C     C_R   0.634116 0.632355 0.137482 0.061379
C14   C     C_R   0.711424 0.640191 0.067186 0.139288
C15   C     C_R   0.706017 0.652713 0.923423 -0.149666
C16   C     C_R   0.501836 0.737235 0.498690 0.527878
C17   C     C_R   0.629428 0.628198 0.856978 -0.122206
C18   C     C_R   0.563601 0.563629 0.925414 0.125619
C19   C     C_R   0.564533 0.564508 0.073813 0.134293
C20   C     C_R   0.439282 0.438119 0.073484 -0.005738
C21   C     C_R   0.439355 0.438077 0.926036 -0.001725
C22   C     C_R   0.659568 0.500732 0.500928 0.521519
C23   C     C_3   0.917344 0.501908 0.508130 0.091591
C24   C     C_3   0.050712 0.438730 0.638131 -0.190138
C25   C     C_3   0.043986 0.427102 0.378434 -0.224855
C26   C     C_3   0.946558 0.424623 0.384764 -0.228408
C27   C     C_1   0.749330 0.501874 0.503605 -0.062784
C28   C     C_3   0.082978 0.500426 0.501706 0.063585
C29   C     C_3   0.925717 0.505686 0.776855 -0.441285
C30   C     C_3   0.766313 0.259843 0.815461 -0.307296
C31   C     C_3   0.619185 0.753789 0.207253 -0.330014
C32   C     C_3   0.866109 0.641414 0.081507 -0.318497
C33   C     C_3   0.955332 0.636331 0.490836 -0.209471
C34   C     C_3   0.052878 0.635688 0.492975 -0.213715
C35   C     C_1   0.824955 0.502278 0.506249 -0.085792
C36   C     C_1   0.175138 0.500137 0.498342 -0.082704
C37   C     C_1   0.250716 0.499915 0.497569 -0.042789
C38   C     C_R   0.640162 0.133736 0.637410 -0.081532
Cu1   Cu    Cu3+1 0.499990 0.499990 0.640660 0.916751
Cu2   Cu    Cu3+1 0.500010 0.500010 0.359340 0.930216
H1    H     H_    0.927211 0.343459 0.651305 0.127927
H2    H     H_    0.070085 0.340467 0.644539 0.097072
H3    H     H_    0.758244 0.690405 0.863375 0.114283
H4    H     H_    0.623283 0.661224 0.753731 0.183842
H5    H     H_    0.389654 0.386666 0.871384 0.116327
H6    H     H_    0.064869 0.471236 0.278979 0.113774
H7    H     H_    0.065920 0.330116 0.380779 0.111147
H8    H     H_    0.921965 0.326605 0.395669 0.113172
H9    H     H_    0.920644 0.461886 0.285755 0.116595
H10   H     H_    0.077968 0.689035 0.583345 0.112577
H11   H     H_    0.077512 0.683354 0.397816 0.110412
H12   H     H_    0.081286 0.487050 0.727914 0.120505
H13   H     H_    0.933337 0.697108 0.573634 0.108854
H14   H     H_    0.955473 0.600454 0.784724 0.131015
H15   H     H_    0.856281 0.512561 0.780000 0.137462
H16   H     H_    0.945806 0.450480 0.868911 0.113582
H17   H     H_    0.834509 0.103207 0.761611 0.239066
H18   H     H_    0.818260 0.286208 0.888719 0.135271
H19   H     H_    0.705671 0.271103 0.868802 0.170308
H20   H     H_    0.770368 0.322221 0.723121 0.148419
H21   H     H_    0.658578 0.832314 0.162980 0.127049
H22   H     H_    0.553773 0.783228 0.188302 0.150036
H23   H     H_    0.933222 0.677905 0.391465 0.109029
H24   H     H_    0.637834 0.747467 0.317989 0.143095
H25   H     H_    0.784684 0.662532 0.246103 0.252411
H26   H     H_    0.864833 0.539692 0.063471 0.138428
H27   H     H_    0.919079 0.665780 0.153315 0.124793
H28   H     H_    0.878540 0.693841 0.983706 0.146173
H29   H     H_    0.389492 0.108997 0.384567 0.113821
H30   H     H_    0.638737 0.233191 0.647454 0.142222
H31   H     H_    0.769019 0.894719 0.707071 0.098521
H32   H     H_    0.658648 0.781838 0.578366 0.092028
H33   H     H_    0.389465 0.882332 0.382817 0.119234
H34   H     H_    0.389536 0.386873 0.127762 0.112627
N1    N     N_R   0.500800 0.501210 0.147910 -0.236385
N2    N     N_R   0.500820 0.501290 0.852040 -0.236645
N3    N     N_2   0.774051 0.132001 0.775140 -0.526481
N4    N     N_2   0.787301 0.676258 0.140274 -0.514211
O1    O     O_R   0.499990 0.319640 0.618810 -0.505408
O2    O     O_R   0.500000 0.319660 0.381240 -0.492223
O3    O     O_R   0.379430 0.499990 0.618840 -0.494433
O4    O     O_R   0.379440 0.500020 0.381260 -0.499394
O5    O     O_R   0.500000 0.680340 0.618760 -0.504353
O6    O     O_R   0.500010 0.680360 0.381190 -0.515843
O7    O     O_R   0.620560 0.499980 0.618740 -0.529896
O8    O     O_R   0.620570 0.500010 0.381160 -0.487380

loop_
_geom_bond_atom_site_label_1
_geom_bond_atom_site_label_2
_ccdc_geom_bond_type
C24   H12   S    
C38   H30   S    
C12   C29   S    
C1    C8    S    
C24   H2    S    
C31   H21   S    
C7    C8    A    
C25   C28   S    
C12   C23   S    
C34   H11   S    
C36   C37   T    
C9    H29   S    
C5    H32   S    
C5    C6    A    
C10   H33   S    
C22   O7    A    
C29   H14   S    
C16   O6    A    
C18   C19   A    
C23   C26   S    
Cu2   O8    S    
Cu2   O6    S    
C30   N3    S    
C4    O3    A    
C8    C9    A    
C23   C33   S    
C30   H20   S    
Cu2   O2    S    
C9    C10   A    
C25   H7    S    
C26   H8    S    
C32   H28   S    
C14   N4    S    
C28   C34   S    
C13   C14   A    
C31   H22   S    
C15   H3    S    
C17   C18   A    
C21   H5    S    
C33   H13   S    
C34   H10   S    
C13   C19   A    
Cu2   O4    S    
Cu1   O3    S    
C26   H9    S    
C6    C11   A    
C29   H15   S    
C27   C35   T    
C25   C26   S    
C16   O5    A    
C20   N1    A    
Cu1   O1    S    
C3    H31   S    
C12   H1    S    
H17   N3    S    
C11   C16   S    
C2    C38   A    
C21   N2    A    
C33   H23   S    
C30   H19   S    
C33   C34   S    
C20   H34   S    
Cu1   N2    S    
C4    C37   S    
C32   H27   S    
C23   C35   S    
C22   C27   S    
C1    O1    A    
Cu1   O7    S    
Cu1   Cu2   S    
C32   H26   S    
C15   C17   A    
C18   N2    A    
H25   N4    S    
C31   H24   S    
C13   C31   S    
C24   C28   S    
C3    C5    A    
C6    C7    A    
C29   H16   S    
C12   C24   S    
Cu2   N1    S    
C19   N1    A    
C2    C3    A    
C17   H4    S    
Cu1   O5    S    
C2    N3    S    
C30   H18   S    
C7    C38   A    
C22   O8    A    
C10   C11   A    
C32   N4    S    
C4    O4    A    
C20   C21   A    
C28   C36   S    
C1    O2    A    
C14   C15   A    
C25   H6    S    
