data_mof_unit_37047.cif
_audit_creation_date              2012-12-10T18:57:51-0500
_audit_creation_method            fapswitch 2.2
_symmetry_space_group_name_H-M    P1
_symmetry_Int_Tables_number       1
_space_group_crystal_system       triclinic
_cell_length_a                    10.549137
_cell_length_b                    9.83582
_cell_length_c                    8.920094
_cell_angle_alpha                 90.002634
_cell_angle_beta                  90.030666
_cell_angle_gamma                 90.362854
_cell_volume                      925.525020604

loop_
_atom_site_label
_atom_site_type_symbol
_atom_type_description
_atom_site_fract_x
_atom_site_fract_y
_atom_site_fract_z
_atom_type_partial_charge
C1    C     C_R   0.261132 0.499471 0.524610 0.899054
C2    C     C_R   0.068841 0.623329 0.606771 -0.032848
C3    C     C_R   0.870486 0.502440 0.576259 -0.162818
C4    C     C_R   0.130178 0.498660 0.577407 -0.163353
C5    C     C_R   0.543137 0.072086 0.621353 -0.060864
C6    C     C_R   0.455278 0.927779 0.379347 -0.045913
C7    C     C_R   0.455373 0.071622 0.379298 -0.030221
C8    C     C_R   0.543497 0.928358 0.621206 -0.016854
C9    C     C_2   0.132587 0.245338 0.627776 0.416074
C10   C     C_2   0.867992 0.756175 0.623132 0.415063
C11   C     C_2   0.859880 0.259328 0.667231 0.437965
C12   C     C_R   0.739154 0.500715 0.523996 0.900783
C13   C     C_2   0.140475 0.744998 0.661091 0.448662
C14   C     C_R   0.499979 0.499998 0.218559 0.956558
C15   C     C_R   0.500035 0.500002 0.781477 0.937697
C16   C     C_1   0.499997 0.499997 0.065333 -0.185905
C17   C     C_1   0.500019 0.500003 0.934653 -0.143889
C18   C     C_R   0.063922 0.374653 0.599782 -0.096439
C19   C     C_R   0.936715 0.626744 0.597134 -0.090220
C20   C     C_R   0.931781 0.378452 0.608182 -0.013625
H1    H     H_    0.576735 0.126260 0.719010 0.180261
H2    H     H_    0.419195 0.873252 0.282929 0.141972
H3    H     H_    0.419371 0.125658 0.282843 0.141866
H4    H     H_    0.578126 0.874412 0.718374 0.127271
H5    H     H_    0.213252 0.244514 0.703404 0.085915
H6    H     H_    0.790214 0.758583 0.702604 0.066864
H7    H     H_    0.880516 0.156926 0.630492 0.151015
H8    H     H_    0.115592 0.846484 0.625123 0.152856
N1    N     N_R   0.500000 0.857200 0.500000 -0.081339
N2    N     N_R   0.500000 0.142800 0.500000 -0.091246
O1    O     O_R   0.316770 0.614620 0.499990 -0.587653
O2    O     O_2   0.893943 0.858558 0.551852 -0.571478
O3    O     O_2   0.778244 0.275543 0.762406 -0.598236
O4    O     O_2   0.226691 0.732356 0.751362 -0.572542
O5    O     O_R   0.683230 0.385380 0.500010 -0.588207
O6    O     O_R   0.683230 0.614620 0.500010 -0.625528
O7    O     O_R   0.316770 0.385380 0.499990 -0.631353
O8    O     O_R   0.500010 0.614640 0.285340 -0.617173
O9    O     O_R   0.499990 0.385360 0.714660 -0.621200
O10   O     O_R   0.499990 0.614640 0.714660 -0.614148
O11   O     O_R   0.500010 0.385360 0.285340 -0.616576
O12   O     O_2   0.103252 0.140839 0.562211 -0.575934
Zn1   Zn    Zn3+2 0.500000 0.653120 0.500000 0.992244
Zn2   Zn    Zn3+2 0.500000 0.346880 0.500000 0.983439

loop_
_geom_bond_atom_site_label_1
_geom_bond_atom_site_label_2
_ccdc_geom_bond_type
C5    C8    A    
C2    C4    A    
C13   H8    S    
C3    C19   A    
C6    C7    A    
C11   H7    S    
C14   O8    A    
C1    O7    A    
C10   C19   S    
C1    C4    S    
C15   O9    A    
C10   H6    S    
O7    Zn2   S    
C9    H5    S    
C3    C20   A    
C7    N2    A    
N1    Zn1   S    
C12   O5    A    
O5    Zn2   S    
N2    Zn2   S    
C9    O12   D    
O9    Zn2   S    
O1    Zn1   S    
C14   O11   A    
C7    H3    S    
C8    N1    A    
C8    H4    S    
C18   C20   A    
C1    O1    A    
C11   C20   S    
O11   Zn2   S    
C14   C16   S    
C15   O10   A    
C12   O6    A    
C6    H2    S    
C10   O2    D    
C9    C18   S    
C11   O3    D    
C6    N1    A    
C5    H1    S    
C5    N2    A    
C15   C17   S    
C2    C13   S    
O6    Zn1   S    
C13   O4    D    
C3    C12   S    
C2    C19   A    
C4    C18   A    
O10   Zn1   S    
O8    Zn1   S    
C16   C17   T    
