data_mof_unit_18932.cif
_audit_creation_date              2012-12-10T17:53:13-0500
_audit_creation_method            fapswitch 2.2
_symmetry_space_group_name_H-M    P1
_symmetry_Int_Tables_number       1
_space_group_crystal_system       triclinic
_cell_length_a                    23.358771
_cell_length_b                    10.581163
_cell_length_c                    9.970778
_cell_angle_alpha                 88.056658
_cell_angle_beta                  89.19062
_cell_angle_gamma                 93.186637
_cell_volume                      2458.86468271

loop_
_atom_site_label
_atom_site_type_symbol
_atom_type_description
_atom_site_fract_x
_atom_site_fract_y
_atom_site_fract_z
_atom_type_partial_charge
C1    C     C_R   0.508810 0.262588 0.502398 0.902269
C2    C     C_R   0.122127 0.565067 0.391010 0.707325
C3    C     C_R   0.245301 0.641540 0.480694 0.501856
C4    C     C_R   0.389704 0.500885 0.500330 0.975939
C5    C     C_R   0.304882 0.631129 0.469768 0.274859
C6    C     C_R   0.327978 0.512167 0.499222 -0.348351
C7    C     C_R   0.291595 0.403387 0.524450 0.307296
C8    C     C_R   0.232305 0.413688 0.527760 0.345778
C9    C     C_R   0.209592 0.532751 0.508275 -0.011753
C10   C     C_R   0.764458 0.423928 0.480408 0.383227
C11   C     C_R   0.704914 0.408774 0.477893 0.378885
C12   C     C_R   0.967749 0.498424 0.750677 0.430397
C13   C     C_R   0.672172 0.515556 0.497443 -0.360544
C14   C     C_R   0.699305 0.636511 0.519440 0.299545
C15   C     C_R   0.759479 0.648614 0.524134 0.483554
C16   C     C_R   0.496509 0.740239 0.498628 0.828733
C17   C     C_R   0.791244 0.542520 0.504298 -0.037768
C18   C     C_R   0.522021 0.102823 0.759848 0.296297
C19   C     C_R   0.493752 0.043441 0.873339 0.183831
C20   C     C_R   0.456012 0.936768 0.856226 0.420589
C21   C     C_R   0.450650 0.884532 0.729523 0.413818
C22   C     C_R   0.483551 0.938821 0.617953 -0.171587
C23   C     C_R   0.027285 0.493116 0.749282 0.424411
C24   C     C_R   0.509647 0.059284 0.630113 -0.114267
C25   C     C_R   0.522592 0.130772 0.510310 -0.128514
C26   C     C_R   0.534192 0.069595 0.391592 0.405355
C27   C     C_R   0.521337 0.941569 0.386557 -0.167668
C28   C     C_R   0.610175 0.501453 0.499162 0.884405
C29   C     C_R   0.495225 0.875914 0.497515 -0.122032
C30   C     C_R   0.424206 0.336004 0.154996 -0.254047
C31   C     C_R   0.384029 0.252957 0.099121 0.321154
C32   C     C_R   0.381005 0.249829 0.960556 0.371899
C33   C     C_R   0.420162 0.326087 0.879207 0.358675
C34   C     C_R   0.059418 0.526229 0.630738 -0.189261
C35   C     C_R   0.461189 0.416605 0.934388 0.041988
C36   C     C_R   0.462068 0.418381 0.078306 -0.018555
C37   C     C_R   0.536116 0.579443 0.067810 0.542515
C38   C     C_R   0.535924 0.578827 0.924118 -0.143180
C39   C     C_R   0.881957 0.586715 0.392357 0.702932
C40   C     C_R   0.878526 0.532837 0.626897 0.695257
C41   C     C_R   0.938687 0.531778 0.631690 -0.202373
C42   C     C_R   0.970634 0.561597 0.511175 -0.090024
C43   C     C_R   0.942301 0.595089 0.391134 -0.173419
C44   C     C_R   0.030925 0.557249 0.510518 -0.086989
C45   C     C_R   0.062794 0.582538 0.389470 -0.178162
C46   C     C_R   0.034633 0.624827 0.272608 0.377782
C47   C     C_R   0.974972 0.633843 0.274458 0.382221
C48   C     C_R   0.119606 0.530625 0.628566 0.662508
Cl1   Cl    Cl    0.932258 0.452233 0.904426 -0.308906
Cl2   Cl    Cl    0.570728 0.147451 0.253822 -0.481314
Cl3   Cl    Cl    0.581667 0.211079 0.781869 -0.499690
Cl4   Cl    Cl    0.072716 0.675798 0.123092 -0.305566
Cl5   Cl    Cl    0.943502 0.702809 0.130286 -0.314611
Cl6   Cl    Cl    0.319715 0.252380 0.542900 -0.489322
Cl7   Cl    Cl    0.185839 0.277064 0.552457 -0.411465
Cl8   Cl    Cl    0.806011 0.292195 0.455448 -0.379801
H1    H     H_    0.533453 0.893133 0.297271 0.224215
H2    H     H_    0.596266 0.713614 0.067388 0.340633
H3    H     H_    0.077011 0.380050 0.838429 0.383237
H4    H     H_    0.356657 0.183641 0.274140 0.378510
H5    H     H_    0.314972 0.125752 0.966183 0.421403
H6    H     H_    0.407417 0.219244 0.728107 0.373371
H7    H     H_    0.249629 0.825635 0.449557 0.417181
H8    H     H_    0.377091 0.714390 0.401472 0.340828
H9    H     H_    0.423877 0.333586 0.260406 0.238918
H10   H     H_    0.565125 0.642948 0.866095 0.152981
H11   H     H_    0.638729 0.286862 0.467357 0.348509
H12   H     H_    0.628263 0.728286 0.514200 0.347304
H13   H     H_    0.762046 0.829658 0.560160 0.416619
H14   H     H_    0.518730 0.174950 0.994828 0.395367
H15   H     H_    0.430047 0.927177 0.043979 0.389526
H16   H     H_    0.399468 0.781455 0.622896 0.346847
N1    N     N_R   0.852301 0.555738 0.508277 -0.319934
N2    N     N_R   0.148849 0.543075 0.509466 -0.316948
N3    N     N_R   0.499460 0.498800 0.142780 -0.093262
N4    N     N_R   0.499440 0.498720 0.857170 -0.076231
O1    O     O_R   0.500000 0.316780 0.614690 -0.547084
O2    O     O_R   0.583850 0.500050 0.614640 -0.580867
O3    O     O_R   0.583840 0.500030 0.385310 -0.547938
O4    O     O_2   0.852359 0.605208 0.278939 -0.419657
O5    O     O_3   0.680895 0.288439 0.457776 -0.613037
O6    O     O_3   0.669005 0.743877 0.537051 -0.716814
O7    O     O_3   0.789185 0.762498 0.546787 -0.668239
O8    O     O_3   0.501403 0.087506 0.000866 -0.720666
O9    O     O_3   0.424010 0.879173 0.961387 -0.659834
O10   O     O_3   0.410435 0.785220 0.717901 -0.650779
O11   O     O_3   0.572955 0.661057 0.134403 -0.711853
O12   O     O_2   0.845672 0.509744 0.738168 -0.424450
O13   O     O_3   0.052601 0.449188 0.864574 -0.604158
O14   O     O_3   0.347447 0.173600 0.178267 -0.697830
O15   O     O_3   0.340060 0.172867 0.898635 -0.676015
O16   O     O_3   0.416477 0.309924 0.745477 -0.655216
O17   O     O_3   0.219886 0.755711 0.461672 -0.667754
O18   O     O_3   0.338298 0.737695 0.428001 -0.747842
O19   O     O_2   0.149201 0.523774 0.743622 -0.445743
O20   O     O_2   0.153385 0.567947 0.276150 -0.426192
O21   O     O_R   0.500000 0.316750 0.385360 -0.614969
O22   O     O_R   0.416160 0.499970 0.614690 -0.503174
O23   O     O_R   0.416150 0.499950 0.385360 -0.657572
O24   O     O_R   0.500000 0.683250 0.614640 -0.597563
O25   O     O_R   0.500000 0.683220 0.385310 -0.592146
Zn1   Zn    Zn3+2 0.500000 0.500020 0.653130 1.073593
Zn2   Zn    Zn3+2 0.500000 0.499980 0.346870 1.048594

loop_
_geom_bond_atom_site_label_1
_geom_bond_atom_site_label_2
_ccdc_geom_bond_type
O23   Zn2   S    
C48   O19   S    
C4    O22   A    
C27   C29   A    
C1    O1    A    
C41   C42   A    
C35   C36   A    
H2    O11   S    
C5    O18   S    
C7    C8    A    
C38   N4    A    
C45   C46   A    
C11   O5    S    
C12   C23   A    
C26   C27   A    
C37   C38   A    
C3    C9    A    
C22   C29   A    
C26   Cl2   S    
C30   C31   A    
H14   O8    S    
C32   O15   S    
O2    Zn1   S    
C10   C17   A    
C46   Cl4   S    
C40   N1    A    
C18   C19   A    
H3    O13   S    
C28   O3    A    
H15   O9    S    
C19   C20   A    
C8    C9    A    
H6    O16   S    
C23   O13   S    
C13   C28   S    
C28   O2    A    
C2    N2    A    
C47   Cl5   S    
C31   O14   S    
C37   N3    A    
O25   Zn2   S    
C13   C14   A    
N3    Zn2   S    
O3    Zn2   S    
O1    Zn1   S    
C42   C44   A    
C8    Cl7   S    
C18   Cl3   S    
C12   Cl1   S    
C2    C45   A    
N4    Zn1   S    
C35   N4    A    
C48   N2    A    
C34   C44   A    
C24   C25   A    
C4    C6    S    
C27   H1    S    
C33   O16   S    
C1    O21   A    
C17   N1    S    
C16   O24   A    
C39   C43   A    
C16   C29   S    
O22   Zn1   S    
C12   C41   A    
H13   O7    S    
C36   N3    A    
C31   C32   A    
C23   C34   A    
C20   O9    S    
O24   Zn1   S    
C3    O17   S    
O21   Zn2   S    
C40   C41   A    
H11   O5    S    
C18   C24   A    
C34   C48   A    
C9    N2    S    
C14   O6    S    
C19   O8    S    
C10   Cl8   S    
C44   C45   A    
C15   C17   A    
C38   H10   S    
C46   C47   A    
C37   O11   S    
C3    C5    A    
C21   O10   S    
H16   O10   S    
C1    C25   S    
C6    C7    A    
H4    O14   S    
H7    O17   S    
C30   C36   A    
H12   O6    S    
C32   C33   A    
C40   O12   S    
C2    O20   S    
C25   C26   A    
H8    O18   S    
C39   O4    S    
C11   C13   A    
C5    C6    A    
C15   O7    S    
C33   C35   A    
C22   C24   A    
C39   N1    A    
C30   H9    S    
C10   C11   A    
C16   O25   A    
C20   C21   A    
C42   C43   A    
C4    O23   A    
C14   C15   A    
C7    Cl6   S    
C21   C22   A    
C43   C47   A    
H5    O15   S    
