data_mof_unit_19958.cif
_audit_creation_date              2012-12-11T14:15:06-0500
_audit_creation_method            fapswitch 2.2
_symmetry_space_group_name_H-M    P1
_symmetry_Int_Tables_number       1
_space_group_crystal_system       triclinic
_cell_length_a                    24.52737
_cell_length_b                    17.581544
_cell_length_c                    15.715891
_cell_angle_alpha                 90.245381
_cell_angle_beta                  128.873014
_cell_angle_gamma                 89.633306
_cell_volume                      5276.16489933

loop_
_atom_site_label
_atom_site_type_symbol
_atom_type_description
_atom_site_fract_x
_atom_site_fract_y
_atom_site_fract_z
_atom_type_partial_charge
C1    C     C_R   0.335267 0.389953 0.205699 0.443391
C2    C     C_R   0.643859 0.681174 0.499601 -0.358343
C3    C     C_3   0.160961 0.405449 0.590450 -0.365060
C4    C     C_3   0.139227 0.451951 0.647135 -1.002660
C5    C     C_3   0.853308 0.323170 0.393176 0.235030
C6    C     C_3   0.895449 0.393153 0.461704 -0.371436
C7    C     C_3   0.942145 0.420717 0.435121 -0.981343
C8    C     C_3   0.296594 0.215810 0.502937 -1.005253
C9    C     C_3   0.705308 0.207769 0.507808 -0.987668
C10   C     C_3   0.796593 0.715801 0.502928 -1.005140
C11   C     C_3   0.205320 0.707785 0.507814 -0.987666
C12   C     C_3   0.348114 0.781757 0.157161 -0.968367
C13   C     C_R   0.855512 0.180361 0.504828 -0.334088
C14   C     C_3   0.659460 0.782862 0.843057 -0.994848
C15   C     C_3   0.848102 0.281748 0.157128 -0.968445
C16   C     C_3   0.159476 0.282847 0.843089 -0.994862
C17   C     C_3   0.685756 0.316569 0.043090 -0.959702
C18   C     C_3   0.322558 0.304768 0.967408 -0.950360
C19   C     C_3   0.185770 0.816618 0.043122 -0.959739
C20   C     C_3   0.822545 0.804818 0.967371 -0.950371
C21   C     C_3   0.541477 0.397830 0.848543 -1.022325
C22   C     C_3   0.458189 0.396811 0.151025 -1.026554
C23   C     C_3   0.041471 0.897847 0.848537 -1.022314
C24   C     C_R   0.143864 0.181171 0.499599 -0.358396
C25   C     C_3   0.958191 0.896848 0.151024 -1.026554
C26   C     C_3   0.213425 0.655057 0.300363 0.207142
C27   C     C_3   0.146011 0.658452 0.181646 -0.286422
C28   C     C_3   0.085365 0.693420 0.172642 -1.025276
C29   C     C_3   0.785256 0.628686 0.687131 0.239462
C30   C     C_3   0.845562 0.585213 0.787312 -0.336253
C31   C     C_3   0.907340 0.575952 0.786916 -1.029570
C32   C     C_3   0.713411 0.155063 0.300375 0.207128
C33   C     C_3   0.645990 0.158395 0.181662 -0.286486
C34   C     C_3   0.585336 0.193353 0.172642 -1.025332
C35   C     C_R   0.353539 0.621131 0.137910 0.073749
C36   C     C_3   0.285267 0.128717 0.687151 0.239362
C37   C     C_3   0.345620 0.085335 0.787400 -0.336205
C38   C     C_3   0.407443 0.076219 0.787092 -1.029504
C39   C     C_3   0.414948 0.573322 0.731638 0.200883
C40   C     C_3   0.344990 0.578631 0.710208 -0.255128
C41   C     C_3   0.337418 0.514185 0.766915 -1.065986
C42   C     C_3   0.590386 0.574749 0.275496 0.173292
C43   C     C_3   0.667190 0.570221 0.323255 -0.334221
C44   C     C_3   0.680898 0.500312 0.281032 -0.971120
C45   C     C_3   0.914936 0.073303 0.731633 0.200710
C46   C     C_R   0.645861 0.623792 0.859843 0.080339
C47   C     C_3   0.845025 0.078653 0.710345 -0.254917
C48   C     C_3   0.837465 0.014191 0.767048 -1.066115
C49   C     C_3   0.090373 0.074792 0.275458 0.173274
C50   C     C_3   0.167152 0.070373 0.323076 -0.333939
C51   C     C_3   0.180854 0.000572 0.280674 -0.971434
C52   C     C_3   0.583232 0.831250 0.233835 0.242040
C53   C     C_3   0.557796 0.910201 0.237610 -0.348766
C54   C     C_3   0.552109 0.964525 0.156981 -1.011580
C55   C     C_3   0.406702 0.809394 0.764198 0.222468
C56   C     C_3   0.481585 0.809339 0.802991 -0.270196
C57   C     C_R   0.853537 0.121123 0.137905 0.073700
C58   C     C_3   0.528383 0.862523 0.899546 -1.071487
C59   C     C_3   0.083239 0.331288 0.233852 0.241957
C60   C     C_3   0.057817 0.410232 0.237682 -0.348740
C61   C     C_3   0.052234 0.464625 0.157202 -1.011553
C62   C     C_3   0.906720 0.309408 0.764191 0.222076
C63   C     C_3   0.981663 0.309087 0.803237 -0.269282
C64   C     C_3   0.028429 0.362464 0.899548 -1.072126
C65   C     C_R   0.145861 0.123783 0.859849 0.080334
C66   C     C_2   0.659274 0.790208 0.417919 0.487607
C67   C     C_2   0.333012 0.789115 0.579599 0.442034
C68   C     C_2   0.159273 0.290217 0.417921 0.487611
C69   C     C_R   0.666827 0.395211 0.798698 0.439415
C70   C     C_2   0.833000 0.289100 0.579603 0.442156
C71   C     C_2   0.671618 0.756991 0.505202 0.436320
C72   C     C_2   0.336640 0.761153 0.503658 0.390832
C73   C     C_2   0.171609 0.256999 0.505199 0.436243
C74   C     C_2   0.836633 0.261140 0.503667 0.390775
C75   C     C_2   0.218424 0.332962 0.439833 -0.343344
C76   C     C_2   0.769213 0.330592 0.537397 -0.235542
C77   C     C_2   0.718422 0.832951 0.439816 -0.343395
C78   C     C_2   0.269225 0.830607 0.537395 -0.235543
C79   C     C_2   0.281103 0.299839 0.484922 0.317041
C80   C     C_R   0.835264 0.889964 0.205688 0.443390
C81   C     C_2   0.712391 0.293021 0.509392 0.270995
C82   C     C_2   0.781103 0.799831 0.484912 0.317058
C83   C     C_2   0.212404 0.793037 0.509394 0.271048
C84   C     C_2   0.690484 0.315918 0.951767 0.271168
C85   C     C_2   0.312709 0.311021 0.053006 0.282205
C86   C     C_2   0.190491 0.815943 0.951791 0.271130
C87   C     C_2   0.812700 0.811053 0.052975 0.282156
C88   C     C_2   0.737353 0.273656 0.953907 -0.219978
C89   C     C_2   0.264170 0.271412 0.048088 -0.215545
C90   C     C_2   0.237361 0.773678 0.953938 -0.219903
C91   C     C_R   0.166827 0.895214 0.798703 0.439402
C92   C     C_2   0.764164 0.771437 0.048056 -0.215508
C93   C     C_2   0.311392 0.665945 0.040351 -0.272019
C94   C     C_2   0.687490 0.667730 0.957668 -0.274601
C95   C     C_2   0.811389 0.165928 0.040337 -0.271981
C96   C     C_2   0.187493 0.167710 0.957684 -0.274657
C97   C     C_R   0.602790 0.371575 0.410229 -0.157177
C98   C     C_R   0.393878 0.375461 0.588465 -0.147052
C99   C     C_R   0.102798 0.871587 0.410228 -0.157150
C100  C     C_R   0.893879 0.875455 0.588462 -0.147087
C101  C     C_2   0.298796 0.737869 0.050813 0.374397
C102  C     C_R   0.405689 0.634887 0.593475 0.494693
C103  C     C_2   0.703270 0.738163 0.949385 0.374567
C104  C     C_2   0.798790 0.237853 0.050786 0.374402
C105  C     C_2   0.203276 0.238145 0.949414 0.374532
C106  C     C_R   0.674741 0.371258 0.593515 -0.148739
C107  C     C_R   0.321516 0.377218 0.405579 -0.155061
C108  C     C_R   0.174749 0.871267 0.593514 -0.148758
C109  C     C_R   0.821518 0.877213 0.405576 -0.155050
C110  C     C_R   0.576494 0.388270 0.798464 0.279113
C111  C     C_R   0.424399 0.386647 0.202904 0.277453
C112  C     C_R   0.076493 0.888278 0.798467 0.279096
C113  C     C_R   0.593925 0.636827 0.408702 0.518002
C114  C     C_R   0.924398 0.886661 0.202896 0.277453
C115  C     C_R   0.356674 0.360196 0.149070 -0.139808
C116  C     C_R   0.645593 0.364895 0.855100 -0.144121
C117  C     C_R   0.856670 0.860217 0.149051 -0.139812
C118  C     C_R   0.145593 0.864905 0.855108 -0.144110
C119  C     C_R   0.660916 0.337270 0.503072 0.084332
C120  C     C_R   0.332964 0.345428 0.494433 0.078733
C121  C     C_R   0.160928 0.837286 0.503071 0.084306
C122  C     C_R   0.832966 0.845421 0.494428 0.078716
C123  C     C_R   0.332751 0.638034 0.411646 0.469953
C124  C     C_R   0.905678 0.134876 0.593475 0.494757
C125  C     C_R   0.666432 0.637753 0.590875 0.481307
C126  C     C_R   0.832736 0.138019 0.411645 0.469900
C127  C     C_R   0.166439 0.137748 0.590874 0.481304
C128  C     C_R   0.423370 0.605235 0.198305 -0.057743
C129  C     C_R   0.576893 0.606168 0.801542 -0.088035
C130  C     C_R   0.923366 0.105225 0.198298 -0.057575
C131  C     C_R   0.076892 0.106165 0.801543 -0.087975
C132  C     C_R   0.666577 0.605164 0.799475 -0.089055
C133  C     C_R   0.333031 0.603484 0.198772 -0.100642
C134  C     C_R   0.166577 0.105161 0.799479 -0.089080
C135  C     C_R   0.093925 0.136825 0.408701 0.517988
C136  C     C_R   0.833031 0.103486 0.198774 -0.100754
C137  C     C_3   0.228266 0.444488 0.070762 0.193779
C138  C     C_3   0.173886 0.490301 0.066853 -0.317080
C139  C     C_3   0.131801 0.542512 0.967146 -1.025223
C140  C     C_3   0.770038 0.450865 0.945508 0.187772
C141  C     C_3   0.834542 0.493231 0.977729 -0.296167
C142  C     C_3   0.875904 0.526546 0.092628 -1.016228
C143  C     C_3   0.728268 0.944507 0.070752 0.193847
C144  C     C_3   0.673895 0.990327 0.066851 -0.317250
C145  C     C_3   0.631807 0.042538 0.967146 -1.025158
C146  C     C_R   0.355531 0.680378 0.504827 -0.333989
C147  C     C_3   0.270021 0.950900 0.945493 0.187839
C148  C     C_3   0.334540 0.993239 0.977726 -0.296151
C149  C     C_3   0.375893 0.026575 0.092611 -1.016226
C150  C     C_3   0.687540 0.826382 0.642208 0.226604
C151  C     C_3   0.661008 0.905484 0.590418 -0.365106
C152  C     C_3   0.639214 0.952001 0.647007 -1.002529
C153  C     C_3   0.353302 0.823260 0.393202 0.235011
C154  C     C_3   0.395290 0.893338 0.461624 -0.371341
C155  C     C_3   0.441956 0.921041 0.435047 -0.981385
C156  C     C_3   0.187530 0.326351 0.642233 0.226655
H1    H     H_    0.210669 0.392981 0.418602 0.104913
H2    H     H_    0.717117 0.638104 0.035612 0.111929
H3    H     H_    0.678906 0.841692 0.854025 0.242105
H4    H     H_    0.660508 0.754947 0.780964 0.247801
H5    H     H_    0.604434 0.786120 0.811368 0.252151
H6    H     H_    0.829163 0.340015 0.152359 0.229104
H7    H     H_    0.854064 0.252798 0.224932 0.246778
H8    H     H_    0.900386 0.285953 0.177818 0.259022
H9    H     H_    0.178925 0.341676 0.854063 0.242124
H10   H     H_    0.160529 0.254933 0.781003 0.247801
H11   H     H_    0.104448 0.286106 0.811388 0.252174
H12   H     H_    0.632712 0.298957 0.011259 0.256094
H13   H     H_    0.777861 0.136387 0.962354 0.114797
H14   H     H_    0.722668 0.276040 0.109333 0.267302
H15   H     H_    0.696987 0.374544 0.078598 0.239853
H16   H     H_    0.376585 0.285759 0.005706 0.256391
H17   H     H_    0.288179 0.261436 0.904286 0.262823
H18   H     H_    0.312037 0.360685 0.927126 0.236101
H19   H     H_    0.132728 0.799010 0.011303 0.256101
H20   H     H_    0.222686 0.776098 0.109376 0.267311
H21   H     H_    0.197002 0.874599 0.078612 0.239877
H22   H     H_    0.876572 0.785814 0.005662 0.256401
H23   H     H_    0.788165 0.761492 0.904242 0.262834
H24   H     H_    0.217116 0.138078 0.035623 0.111951
H25   H     H_    0.812021 0.860741 0.927103 0.236099
H26   H     H_    0.498711 0.439607 0.802114 0.229325
H27   H     H_    0.520967 0.342448 0.850758 0.253794
H28   H     H_    0.578722 0.421407 0.932272 0.256389
H29   H     H_    0.499822 0.439479 0.195709 0.229807
H30   H     H_    0.480300 0.342013 0.149680 0.255467
H31   H     H_    0.419757 0.419306 0.066892 0.258638
H32   H     H_    0.998699 0.939617 0.802088 0.229326
H33   H     H_    0.020967 0.842465 0.850767 0.253796
H34   H     H_    0.078711 0.921437 0.932258 0.256395
H35   H     H_    0.584971 0.363706 0.328508 0.125087
H36   H     H_    0.999821 0.939519 0.195726 0.229806
H37   H     H_    0.980304 0.842056 0.149667 0.255467
H38   H     H_    0.919758 0.919350 0.066896 0.258638
H39   H     H_    0.215046 0.707430 0.340854 0.184366
H40   H     H_    0.210603 0.604797 0.340538 0.065179
H41   H     H_    0.154533 0.692393 0.131664 0.228722
H42   H     H_    0.130579 0.600290 0.147650 0.195383
H43   H     H_    0.076024 0.660577 0.222595 0.265242
H44   H     H_    0.036981 0.692285 0.086056 0.275533
H45   H     H_    0.097030 0.753469 0.201002 0.275776
H46   H     H_    0.411825 0.367499 0.670249 0.127199
H47   H     H_    0.805899 0.684191 0.686316 0.181061
H48   H     H_    0.768076 0.594786 0.613802 0.063376
H49   H     H_    0.863616 0.616669 0.862364 0.214650
H50   H     H_    0.826989 0.527712 0.787112 0.206720
H51   H     H_    0.891412 0.543071 0.714022 0.269173
H52   H     H_    0.950321 0.544812 0.861541 0.275922
H53   H     H_    0.927221 0.632466 0.786618 0.272117
H54   H     H_    0.715025 0.207472 0.340801 0.184396
H55   H     H_    0.710601 0.104839 0.340615 0.065242
H56   H     H_    0.654490 0.192313 0.131635 0.228715
H57   H     H_    0.084981 0.863726 0.328506 0.125102
H58   H     H_    0.630583 0.100214 0.147733 0.195375
H59   H     H_    0.576011 0.160525 0.222626 0.265265
H60   H     H_    0.536950 0.192182 0.086060 0.275556
H61   H     H_    0.596978 0.253413 0.200952 0.275774
H62   H     H_    0.305857 0.184234 0.686252 0.181170
H63   H     H_    0.268114 0.094771 0.613870 0.063352
H64   H     H_    0.363596 0.116797 0.862408 0.214700
H65   H     H_    0.327128 0.027790 0.787232 0.206618
H66   H     H_    0.391596 0.043345 0.714239 0.269225
H67   H     H_    0.450453 0.045135 0.861756 0.275903
H68   H     H_    0.911826 0.867490 0.670245 0.127210
H69   H     H_    0.427251 0.132781 0.786783 0.272099
H70   H     H_    0.456977 0.566380 0.821008 0.111447
H71   H     H_    0.415065 0.521039 0.692063 0.071677
H72   H     H_    0.341109 0.633717 0.740934 0.247552
H73   H     H_    0.301696 0.574426 0.621033 0.182128
H74   H     H_    0.286942 0.520566 0.751779 0.281553
H75   H     H_    0.380443 0.516090 0.856594 0.271410
H76   H     H_    0.338351 0.458212 0.734712 0.281951
H77   H     H_    0.557007 0.573951 0.184908 0.123107
H78   H     H_    0.577246 0.523355 0.299519 0.083107
H79   H     H_    0.720634 0.363710 0.677801 0.156454
H80   H     H_    0.681046 0.622258 0.300760 0.222889
H81   H     H_    0.700869 0.566083 0.413602 0.181373
H82   H     H_    0.668951 0.447515 0.305025 0.272811
H83   H     H_    0.736859 0.498791 0.316782 0.268442
H84   H     H_    0.648205 0.502437 0.190590 0.260504
H85   H     H_    0.957001 0.066319 0.820984 0.111412
H86   H     H_    0.914986 0.021026 0.691978 0.071711
H87   H     H_    0.841212 0.133732 0.741164 0.247514
H88   H     H_    0.801687 0.074497 0.621184 0.182179
H89   H     H_    0.787018 0.020593 0.751997 0.281551
H90   H     H_    0.274674 0.372559 0.321884 0.167950
H91   H     H_    0.880528 0.016052 0.856715 0.271435
H92   H     H_    0.838343 0.958229 0.734766 0.281943
H93   H     H_    0.056935 0.073969 0.184863 0.123140
H94   H     H_    0.077328 0.023365 0.299576 0.083010
H95   H     H_    0.180937 0.122484 0.300607 0.222963
H96   H     H_    0.200887 0.066162 0.413425 0.181323
H97   H     H_    0.169003 0.947700 0.304673 0.272892
H98   H     H_    0.236791 0.999148 0.316291 0.268394
H99   H     H_    0.148085 0.002759 0.190223 0.260516
H100  H     H_    0.541250 0.805474 0.153217 0.127948
H101  H     H_    0.220642 0.863722 0.677801 0.156444
H102  H     H_    0.629633 0.834116 0.236595 0.091460
H103  H     H_    0.505658 0.904819 0.217303 0.215634
H104  H     H_    0.594379 0.934707 0.320985 0.191606
H105  H     H_    0.604162 0.971279 0.177654 0.260310
H106  H     H_    0.534078 0.021144 0.161986 0.281390
H107  H     H_    0.514026 0.942805 0.072130 0.270263
H108  H     H_    0.408090 0.791999 0.833423 0.125451
H109  H     H_    0.384140 0.868123 0.740962 0.067782
H110  H     H_    0.503964 0.751027 0.828462 0.242554
H111  H     H_    0.481178 0.827315 0.734927 0.172469
H112  H     H_    0.771250 0.392430 0.540936 0.092726
H113  H     H_    0.774680 0.872551 0.321879 0.167950
H114  H     H_    0.508794 0.921933 0.876134 0.284784
H115  H     H_    0.582060 0.859661 0.925405 0.287699
H116  H     H_    0.530476 0.844892 0.969331 0.266956
H117  H     H_    0.041252 0.305539 0.153217 0.127924
H118  H     H_    0.129640 0.334161 0.236611 0.091502
H119  H     H_    0.005645 0.404857 0.217252 0.215600
H120  H     H_    0.094366 0.434676 0.321107 0.191624
H121  H     H_    0.104323 0.471377 0.178002 0.260298
H122  H     H_    0.034206 0.521234 0.162241 0.281364
H123  H     H_    0.014184 0.442974 0.072299 0.270222
H124  H     H_    0.452603 0.605884 0.168398 0.135479
H125  H     H_    0.907952 0.292176 0.833321 0.125313
H126  H     H_    0.884290 0.368194 0.740850 0.067864
H127  H     H_    0.003971 0.250766 0.829063 0.242355
H128  H     H_    0.981388 0.326724 0.735187 0.172659
H129  H     H_    0.008939 0.421881 0.875755 0.284874
H130  H     H_    0.082165 0.359362 0.925668 0.287759
H131  H     H_    0.030337 0.345207 0.969281 0.266979
H132  H     H_    0.549458 0.605888 0.834176 0.132446
H133  H     H_    0.952592 0.105861 0.168380 0.135453
H134  H     H_    0.049454 0.105888 0.834171 0.132389
H135  H     H_    0.719174 0.606897 0.827120 0.162604
H136  H     H_    0.280183 0.605168 0.170175 0.168578
H137  H     H_    0.219176 0.106885 0.827131 0.162606
H138  H     H_    0.780186 0.105183 0.170184 0.168619
H139  H     H_    0.200262 0.406707 0.998616 0.127546
H140  H     H_    0.710666 0.892970 0.418581 0.104885
H141  H     H_    0.261160 0.484182 0.065135 0.090557
H142  H     H_    0.137977 0.451133 0.065030 0.217977
H143  H     H_    0.201005 0.524073 0.142838 0.209479
H144  H     H_    0.106121 0.508844 0.890910 0.279178
H145  H     H_    0.166549 0.585611 0.971895 0.270609
H146  H     H_    0.090530 0.572435 0.963842 0.276335
H147  H     H_    0.789344 0.407870 0.008962 0.136853
H148  H     H_    0.735565 0.491264 0.947144 0.091292
H149  H     H_    0.868820 0.454235 0.973901 0.212955
H150  H     H_    0.817569 0.540501 0.920391 0.196456
H151  H     H_    0.271261 0.892446 0.540928 0.092664
H152  H     H_    0.842276 0.565733 0.097634 0.266710
H153  H     H_    0.921089 0.559223 0.112241 0.277674
H154  H     H_    0.895769 0.480408 0.153831 0.266025
H155  H     H_    0.700258 0.906727 0.998603 0.127507
H156  H     H_    0.761164 0.984196 0.065125 0.090555
H157  H     H_    0.637988 0.951162 0.065036 0.217933
H158  H     H_    0.701020 0.024097 0.142838 0.209545
H159  H     H_    0.606097 0.008866 0.890906 0.279203
H160  H     H_    0.666559 0.085616 0.971867 0.270611
H161  H     H_    0.590560 0.072488 0.963879 0.276336
H162  H     H_    0.732521 0.267584 0.880437 0.119237
H163  H     H_    0.289306 0.907931 0.008975 0.136809
H164  H     H_    0.235540 0.991322 0.947073 0.091263
H165  H     H_    0.368818 0.954219 0.973931 0.212969
H166  H     H_    0.317582 0.040493 0.920372 0.196449
H167  H     H_    0.342260 0.065775 0.097592 0.266711
H168  H     H_    0.421083 0.059243 0.112227 0.277659
H169  H     H_    0.395751 0.980448 0.153829 0.266046
H170  H     H_    0.726631 0.833114 0.732007 0.155156
H171  H     H_    0.643536 0.792514 0.625729 0.085013
H172  H     H_    0.702717 0.936123 0.596329 0.225588
H173  H     H_    0.267153 0.265560 0.119830 0.132610
H174  H     H_    0.615071 0.899574 0.502549 0.189010
H175  H     H_    0.597965 0.921764 0.642829 0.277143
H176  H     H_    0.618294 0.008017 0.605970 0.275565
H177  H     H_    0.684923 0.961650 0.734131 0.261942
H178  H     H_    0.323047 0.838277 0.305752 0.147589
H179  H     H_    0.389216 0.775644 0.410538 0.089182
H180  H     H_    0.358731 0.939773 0.444722 0.214429
H181  H     H_    0.428675 0.879080 0.549931 0.180988
H182  H     H_    0.479840 0.875850 0.453310 0.269340
H183  H     H_    0.471556 0.971868 0.485352 0.276645
H184  H     H_    0.232523 0.767595 0.880464 0.119228
H185  H     H_    0.409701 0.936926 0.347373 0.264488
H186  H     H_    0.226630 0.333079 0.732032 0.155187
H187  H     H_    0.143543 0.292455 0.625768 0.085003
H188  H     H_    0.202632 0.436102 0.596275 0.225585
H189  H     H_    0.114988 0.399531 0.502604 0.189021
H190  H     H_    0.098042 0.421682 0.643093 0.277177
H191  H     H_    0.118248 0.507951 0.606075 0.275558
H192  H     H_    0.184979 0.461634 0.734223 0.261965
H193  H     H_    0.823039 0.338261 0.305747 0.147555
H194  H     H_    0.889122 0.275481 0.410365 0.089315
H195  H     H_    0.767152 0.765577 0.119802 0.132595
H196  H     H_    0.858990 0.439681 0.444904 0.214363
H197  H     H_    0.928824 0.378827 0.549991 0.181074
H198  H     H_    0.979961 0.375446 0.453355 0.269337
H199  H     H_    0.971818 0.471510 0.485439 0.276686
H200  H     H_    0.909907 0.436612 0.347452 0.264486
H201  H     H_    0.306376 0.194626 0.446892 0.245992
H202  H     H_    0.344644 0.205631 0.588009 0.245290
H203  H     H_    0.253379 0.182169 0.486696 0.225485
H204  H     H_    0.708101 0.189843 0.578126 0.254347
H205  H     H_    0.653805 0.190585 0.430994 0.238298
H206  H     H_    0.277860 0.636410 0.962363 0.114802
H207  H     H_    0.746225 0.177055 0.512029 0.234449
H208  H     H_    0.806397 0.694621 0.446907 0.245957
H209  H     H_    0.844631 0.705619 0.588009 0.245253
H210  H     H_    0.753368 0.682157 0.486651 0.225506
H211  H     H_    0.208105 0.689863 0.578126 0.254338
H212  H     H_    0.153821 0.690600 0.430995 0.238297
H213  H     H_    0.246242 0.677069 0.512051 0.234461
H214  H     H_    0.329185 0.840030 0.152392 0.229111
H215  H     H_    0.354071 0.752807 0.224964 0.246781
H216  H     H_    0.400399 0.785952 0.177854 0.259002
N1    N     N_R   0.389060 0.424180 0.294540 -0.093860
N2    N     N_R   0.374530 0.423490 0.443400 -0.037333
N3    N     N_R   0.125470 0.923490 0.556600 -0.038275
N4    N     N_R   0.874530 0.923490 0.443400 -0.037331
N5    N     N_R   0.555250 0.423100 0.705420 -0.086567
N6    N     N_R   0.444750 0.423100 0.294580 -0.087261
N7    N     N_R   0.055250 0.923100 0.705420 -0.086565
N8    N     N_R   0.944750 0.923100 0.294580 -0.087260
N9    N     N_R   0.375210 0.577180 0.443400 -0.116792
N10   N     N_R   0.624790 0.577180 0.556600 -0.117700
N11   N     N_R   0.875210 0.077180 0.443400 -0.116767
N12   N     N_R   0.610940 0.424180 0.705460 -0.093077
N13   N     N_R   0.124790 0.077180 0.556600 -0.117689
N14   N     N_R   0.445430 0.577570 0.294580 -0.062662
N15   N     N_R   0.554570 0.577570 0.705420 -0.057960
N16   N     N_R   0.945430 0.077570 0.294580 -0.062652
N17   N     N_R   0.054570 0.077570 0.705420 -0.057960
N18   N     N_R   0.611620 0.576500 0.705460 -0.051232
N19   N     N_R   0.388380 0.576500 0.294540 -0.050816
N20   N     N_R   0.111620 0.076500 0.705460 -0.051228
N21   N     N_R   0.888380 0.076500 0.294540 -0.050818
N22   N     N_R   0.421010 0.576890 0.556640 -0.140485
N23   N     N_R   0.889060 0.924180 0.294540 -0.093858
N24   N     N_R   0.578990 0.576890 0.443360 -0.144482
N25   N     N_R   0.921010 0.076890 0.556640 -0.140483
N26   N     N_R   0.078990 0.076890 0.443360 -0.144477
N27   N     N_R   0.110940 0.924180 0.705460 -0.093081
N28   N     N_R   0.579670 0.423790 0.443360 -0.047357
N29   N     N_R   0.420330 0.423790 0.556640 -0.048979
N30   N     N_R   0.079670 0.923790 0.443360 -0.047369
N31   N     N_R   0.920330 0.923790 0.556640 -0.048983
N32   N     N_R   0.625470 0.423490 0.556600 -0.038274
Ni1   Ni    Ni4+2 0.383200 0.500680 0.370150 0.221797
Ni2   Ni    Ni4+2 0.616800 0.500680 0.629850 0.231703
Ni3   Ni    Ni4+2 0.883200 0.000680 0.370150 0.221820
Ni4   Ni    Ni4+2 0.116800 0.000680 0.629850 0.231711
Ni5   Ni    Ni4+2 0.512440 0.500680 0.370150 0.178135
Ni6   Ni    Ni4+2 0.487560 0.500680 0.629850 0.178780
Ni7   Ni    Ni4+2 0.012440 0.000680 0.370150 0.178132
Ni8   Ni    Ni4+2 0.987560 0.000680 0.629850 0.178778
O1    O     O_3   0.267224 0.400243 0.167248 -0.691543
O2    O     O_3   0.730970 0.642054 0.693983 -0.667325
O3    O     O_3   0.772942 0.150631 0.304848 -0.667426
O4    O     O_3   0.230971 0.142051 0.693990 -0.667338
O5    O     O_3   0.429066 0.640797 0.699210 -0.637209
O6    O     O_3   0.575805 0.643183 0.305982 -0.619792
O7    O     O_3   0.929052 0.140781 0.699209 -0.637233
O8    O     O_3   0.075766 0.143199 0.305959 -0.619772
O9    O     O_3   0.593584 0.783429 0.315115 -0.639728
O10   O     O_3   0.366443 0.755113 0.680027 -0.636012
O11   O     O_3   0.093589 0.283436 0.315106 -0.639688
O12   O     O_3   0.734687 0.415450 0.841826 -0.679539
O13   O     O_3   0.866439 0.255116 0.680043 -0.635992
O14   O     O_3   0.767222 0.900259 0.167236 -0.691522
O15   O     O_3   0.234688 0.915452 0.841835 -0.679523
O16   O     O_3   0.721618 0.789044 0.607194 -0.670722
O17   O     O_3   0.304086 0.802836 0.407880 -0.671362
O18   O     O_3   0.221606 0.289054 0.607191 -0.670765
O19   O     O_3   0.804100 0.302842 0.407908 -0.671413
O20   O     O_3   0.272962 0.650657 0.304849 -0.667374

loop_
_geom_bond_atom_site_label_1
_geom_bond_atom_site_label_2
_ccdc_geom_bond_type
C130  N16   A    
C69   C116  A    
C60   H119  S    
N17   Ni8   S    
C61   H122  S    
N14   N19   A    
C55   H109  S    
N28   N32   A    
N15   N18   A    
C26   H40   S    
C143  H156  S    
C46   C129  A    
C21   C110  S    
C97   N28   A    
C68   C75   S    
C23   C112  S    
C15   H7    S    
C43   H80   S    
C5    C6    S    
C124  N25   A    
C143  C144  S    
N18   Ni2   S    
C58   H116  S    
N28   Ni5   S    
C56   H111  S    
C19   H20   S    
C139  H146  S    
C109  H113  S    
C107  H90   S    
C66   O9    S    
N20   Ni4   S    
C65   C96   S    
C41   H75   S    
C143  O14   S    
C136  N21   A    
C128  N14   A    
C70   C74   D    
C24   C127  A    
C98   N29   A    
N26   Ni7   S    
C137  O1    S    
N24   Ni5   S    
C99   C121  A    
C75   H1    S    
C59   C60   S    
C27   H42   S    
C9    H204  S    
C10   H210  S    
C45   C47   S    
C8    H203  S    
C18   C85   S    
C137  H139  S    
C140  C141  S    
C86   C90   D    
C93   C101  D    
C13   C124  A    
C99   H57   S    
C145  H161  S    
N19   Ni1   S    
C10   C82   S    
C142  H152  S    
C12   H216  S    
C38   H67   S    
C140  O12   S    
C43   C44   S    
C31   H51   S    
C37   C38   S    
C4    H191  S    
C31   H53   S    
C52   H102  S    
C79   C120  S    
C5    H194  S    
C91   C118  A    
C96   H24   S    
C90   H184  S    
N31   Ni8   S    
C154  C155  S    
C136  H138  S    
N13   Ni4   S    
C49   H94   S    
C123  N9    A    
C2    C71   S    
C110  C116  A    
C107  C120  A    
C50   H96   S    
C102  N22   A    
C73   O18   S    
C66   C77   S    
C58   H114  S    
C80   C117  A    
C152  H176  S    
C154  H180  S    
C84   C88   D    
C149  H169  S    
C144  C145  S    
C25   H36   S    
C44   H82   S    
C98   C120  A    
C6    C7    S    
C81   C119  S    
C34   H59   S    
C32   O3    S    
C14   H5    S    
C37   H65   S    
C139  H144  S    
C48   H92   S    
C144  H158  S    
C25   C114  S    
C77   H140  S    
C5    O19   S    
C108  N3    A    
C23   H32   S    
C77   C82   D    
C156  H187  S    
C3    C156  S    
C33   H56   S    
C147  O15   S    
C154  H181  S    
C4    H190  S    
C149  H168  S    
C7    H200  S    
N4    N31   A    
N7    N27   A    
N21   Ni3   S    
C145  H160  S    
C37   H64   S    
C51   H98   S    
C75   C79   D    
C151  H172  S    
C82   C122  S    
C155  H182  S    
C25   H38   S    
C40   H72   S    
C137  H141  S    
C147  C148  S    
C62   H125  S    
C142  H153  S    
C34   H61   S    
C53   C54   S    
N10   N24   A    
C126  N11   A    
C54   H107  S    
C67   O10   S    
C36   C37   S    
C46   C132  A    
C47   H88   S    
C141  H149  S    
C141  H150  S    
C20   C87   S    
C152  H177  S    
C67   C72   D    
C62   O13   S    
C39   H70   S    
C43   H81   S    
C131  N17   A    
N17   N20   A    
C138  H142  S    
C56   H110  S    
C19   H21   S    
C140  H148  S    
C1    O1    S    
C74   O19   S    
C84   C116  S    
C29   H48   S    
C88   H162  S    
C108  H101  S    
C44   H84   S    
C36   H63   S    
C88   C104  S    
C63   H128  S    
C20   H23   S    
N7    Ni8   S    
C21   H26   S    
C28   H43   S    
N5    Ni6   S    
C36   O4    S    
C55   H108  S    
C68   O11   S    
C57   C130  A    
N5    N12   A    
C39   C40   S    
C155  H185  S    
C32   H55   S    
C17   H14   S    
N13   N26   A    
C30   H49   S    
C8    H202  S    
C4    H192  S    
C97   C119  A    
C29   C30   S    
C7    H198  S    
C135  O8    S    
C5    H193  S    
C46   C94   S    
C16   H9    S    
C132  H135  S    
C16   C105  S    
C112  N7    A    
C18   H18   S    
C76   H112  S    
C3    C4    S    
C148  H165  S    
C106  N32   A    
C52   C53   S    
N27   Ni4   S    
C60   H120  S    
C113  O6    S    
C54   H105  S    
C61   H121  S    
C17   H12   S    
C143  H155  S    
C39   O5    S    
C1    C115  A    
C3    H189  S    
C147  H164  S    
C17   C84   S    
C114  N8    A    
C12   C101  S    
C34   H60   S    
C14   C103  S    
C130  H133  S    
C56   C58   S    
N14   Ni5   S    
C92   H195  S    
C156  H186  S    
C19   H19   S    
C139  H145  S    
C114  C117  A    
C151  H174  S    
C63   C64   S    
C2    C125  A    
C97   H35   S    
C41   H74   S    
C49   C50   S    
C89   C105  S    
C125  O2    S    
C134  N20   A    
C40   H73   S    
C45   H86   S    
C128  H124  S    
C23   H34   S    
C153  H178  S    
C20   H25   S    
C64   H129  S    
C21   H28   S    
C96   C105  D    
C106  C119  A    
N8    N23   A    
C27   H41   S    
C108  C121  A    
C51   H99   S    
C35   C133  A    
C155  H183  S    
C113  N24   A    
C26   C27   S    
C29   H47   S    
C99   N30   A    
C87   C117  S    
C6    H196  S    
C30   C31   S    
C52   O9    S    
C42   H77   S    
C24   C73   S    
C16   H11   S    
C59   H118  S    
N16   Ni7   S    
C59   O11   S    
C14   H4    S    
C11   H212  S    
C78   C83   D    
C150  H170  S    
C8    C79   S    
C89   H173  S    
C151  C152  S    
C39   H71   S    
C65   C134  A    
C49   H93   S    
N22   Ni6   S    
C45   O7    S    
C69   O12   S    
C94   H2    S    
C87   C92   D    
C61   H123  S    
C102  O5    S    
C26   H39   S    
N15   Ni6   S    
C11   H213  S    
C15   H8    S    
C85   C115  S    
C132  N18   A    
C36   H62   S    
C133  N19   A    
C85   C89   D    
C71   O16   S    
C20   H22   S    
C11   C83   S    
N16   N21   A    
C58   H115  S    
C109  N4    A    
C60   C61   S    
C129  N15   A    
N2    Ni1   S    
C62   C63   S    
C32   H54   S    
C10   H208  S    
C66   C71   D    
C123  C146  A    
C80   O14   S    
C50   C51   S    
C86   C118  S    
C28   H44   S    
C126  O3    S    
C149  H167  S    
N9    Ni1   S    
C38   H69   S    
C13   C126  A    
C64   H131  S    
N12   Ni2   S    
C70   O13   S    
C94   C103  D    
C110  N5    A    
N6    Ni5   S    
C42   C43   S    
C28   H45   S    
C9    H205  S    
C51   H97   S    
C153  O17   S    
C25   H37   S    
C10   H209  S    
C137  C138  S    
C49   O8    S    
C135  N26   A    
C150  O16   S    
C62   H126  S    
C69   N12   A    
C33   H58   S    
N25   Ni8   S    
N9    N22   A    
C12   H214  S    
C14   H3    S    
C12   H215  S    
C32   C33   S    
C38   H66   S    
C52   H100  S    
C31   H52   S    
C111  N6    A    
C47   H87   S    
C72   C146  S    
C125  N10   A    
C22   H30   S    
C35   C128  A    
C138  C139  S    
C6    H197  S    
C13   C74   S    
N8    Ni7   S    
N1    Ni1   S    
C138  H143  S    
C50   H95   S    
C78   H151  S    
C127  N13   A    
C152  H175  S    
C53   H103  S    
C93   H206  S    
N10   Ni2   S    
C15   H6    S    
C26   O20   S    
C19   C86   S    
C63   H127  S    
C1    N1    A    
C72   O17   S    
N3    N30   A    
C48   H89   S    
N32   Ni2   S    
C48   H91   S    
C144  H157  S    
C2    C113  A    
C109  C122  A    
C100  H68   S    
C30   H50   S    
N11   N25   A    
C22   H31   S    
C92   C103  S    
N11   Ni3   S    
C3    H188  S    
N30   Ni7   S    
C16   H10   S    
C41   H76   S    
C57   C136  A    
C29   O2    S    
C15   C104  S    
C9    H207  S    
C80   N23   A    
C91   N27   A    
C91   O15   S    
C67   C78   S    
C148  H166  S    
C65   C131  A    
C123  O20   S    
C35   C93   S    
C106  H79   S    
C54   H106  S    
C133  H136  S    
C148  C149  S    
C55   O10   S    
C68   C73   D    
C127  O4    S    
C147  H163  S    
N1    N6    A    
C90   C101  S    
C47   C48   S    
N2    N29   A    
C55   C56   S    
C42   O6    S    
C33   C34   S    
C83   C121  S    
C95   H13   S    
C156  O18   S    
C7    H199  S    
C140  H147  S    
C24   C135  A    
C40   C41   S    
C70   C76   S    
N29   Ni6   S    
C100  N31   A    
C44   H83   S    
C45   H85   S    
C23   H33   S    
C95   C104  D    
C64   H130  S    
N3    Ni4   S    
C21   H27   S    
N4    Ni3   S    
C131  H134  S    
C150  C151  S    
C98   H46   S    
C129  H132  S    
C76   C81   D    
C17   H15   S    
C18   H16   S    
C8    H201  S    
C107  N2    A    
C124  O7    S    
C22   H29   S    
C134  H137  S    
C141  C142  S    
C102  C146  A    
C112  C118  A    
C42   H78   S    
C145  H159  S    
C59   H117  S    
N23   Ni3   S    
C142  H154  S    
C100  C122  A    
C11   H211  S    
C18   H17   S    
C150  H171  S    
C22   C111  S    
C57   C95   S    
C27   C28   S    
C53   H104  S    
C111  C115  A    
C153  C154  S    
C153  H179  S    
C9    C81   S    
