data_mof_unit_16910.cif
_audit_creation_date              2012-12-11T15:13:44-0500
_audit_creation_method            fapswitch 2.2
_symmetry_space_group_name_H-M    P1
_symmetry_Int_Tables_number       1
_space_group_crystal_system       triclinic
_cell_length_a                    6.977588
_cell_length_b                    13.578581
_cell_length_c                    20.093954
_cell_angle_alpha                 104.115143
_cell_angle_beta                  89.846722
_cell_angle_gamma                 90.591933
_cell_volume                      1846.23726065

loop_
_atom_site_label
_atom_site_type_symbol
_atom_type_description
_atom_site_fract_x
_atom_site_fract_y
_atom_site_fract_z
_atom_type_partial_charge
O1    O     O_R   0.506780 0.600060 0.449950 -0.543707
O2    O     O_R   0.179840 0.597110 0.589410 -0.526996
O3    O     O_R   0.004570 0.399940 0.550050 -0.542168
C1    C     C_R   0.348240 0.617456 0.616934 0.737171
O4    O     O_R   0.177380 0.612160 0.452890 -0.534020
O5    O     O_R   0.002100 0.415100 0.412560 -0.542482
C2    C     C_R   0.346628 0.638447 0.436300 0.709143
O6    O     O_R   0.509250 0.584900 0.587440 -0.546714
O7    O     O_3   0.337570 0.435330 0.486930 -0.371598
V1    V     V_3+5 0.064650 0.512000 0.502430 1.492329
O8    O     O_R   0.672090 0.402890 0.410590 -0.539606
C3    C     C_R   0.840791 0.381623 0.382937 0.682897
O9    O     O_R   0.674540 0.387840 0.547110 -0.542752
C4    C     C_R   0.842243 0.362228 0.564225 0.695124
V2    V     V_3+5 0.564040 0.488000 0.497570 1.464714
O10   O     O_3   0.840990 0.564670 0.513070 -0.363550
C5    C     C_R   0.759590 0.116135 0.611450 -0.122187
H1    H     H_    0.759780 0.163969 0.517529 0.127054
H2    H     H_    0.694462 0.999282 0.695652 0.140858
H3    H     H_    0.713027 0.039787 0.586157 0.135861
C6    C     C_R   0.844329 0.285378 0.603652 -0.034969
C7    C     C_R   0.933244 0.316076 0.932176 -0.161480
C8    C     C_R   0.962061 0.390776 0.896511 -0.123968
C9    C     C_R   0.932652 0.369286 0.825823 -0.161250
C10   C     C_R   0.868835 0.271961 0.788983 0.082835
C11   C     C_R   0.830005 0.197424 0.826651 0.074978
C12   C     C_R   0.844702 0.245402 0.716020 0.066641
C13   C     C_R   0.784099 0.145162 0.682839 0.145314
C14   C     C_R   0.742395 0.075062 0.721097 -0.153884
C15   C     C_R   0.759468 0.101664 0.791933 -0.224997
C16   C     C_R   0.875938 0.314667 0.674586 -0.220857
C17   C     C_R   0.787393 0.186241 0.572233 -0.158385
C18   C     C_R   0.867786 0.219244 0.898123 -0.078796
H4    H     H_    0.915953 0.392867 0.695961 0.092171
H5    H     H_    0.965366 0.333318 0.986563 0.100631
H6    H     H_    0.963320 0.430198 0.801566 0.100269
H7    H     H_    0.012674 0.465407 0.923612 0.115435
H8    H     H_    0.715540 0.046703 0.819591 0.126392
C19   C     C_3   0.678158 0.218931 0.229718 -0.080463
C20   C     C_3   0.782775 0.200671 0.293494 -0.087175
H9    H     H_    0.727342 0.159829 0.331114 0.177267
H10   H     H_    0.530870 0.192203 0.213225 0.141023
C21   C     C_3   0.850528 0.312155 0.311944 -0.029724
C22   C     C_3   0.746319 0.331323 0.248879 -0.152632
C23   C     C_3   0.930562 0.301611 0.205549 -0.164396
C24   C     C_3   0.034824 0.283228 0.269393 -0.084883
C25   C     C_3   0.966374 0.170994 0.250112 -0.111719
C26   C     C_3   0.862329 0.190099 0.187167 -0.049086
H11   H     H_    0.655270 0.397863 0.248767 0.103580
H12   H     H_    0.991474 0.342851 0.168861 0.104796
H13   H     H_    0.182256 0.309572 0.285950 0.130300
H14   H     H_    0.053724 0.102908 0.248670 0.170599
C27   C     C_3   0.536612 0.735858 0.724467 -0.164065
C28   C     C_3   0.429914 0.838396 0.746534 -0.202048
H15   H     H_    0.483793 0.914715 0.745464 0.126611
H16   H     H_    0.677376 0.723496 0.698382 0.157566
C29   C     C_3   0.359346 0.809144 0.812279 -0.079471
C30   C     C_3   0.467121 0.707223 0.791020 -0.139524
C31   C     C_3   0.285226 0.656378 0.752705 -0.250422
C32   C     C_3   0.180165 0.758735 0.773982 0.131927
C33   C     C_3   0.250022 0.787386 0.708333 0.431028
C34   C     C_3   0.355365 0.686277 0.687338 -0.086185
H17   H     H_    0.557386 0.674513 0.825493 0.116403
H18   H     H_    0.224640 0.581200 0.754679 0.114794
C35   C     C_R   0.363064 0.892170 0.394374 -0.103361
H19   H     H_    0.359984 0.840974 0.487200 0.148849
H20   H     H_    0.366312 0.970716 0.423029 0.182277
C36   C     C_R   0.356277 0.716048 0.397451 -0.032440
C37   C     C_R   0.349820 0.682859 0.067729 -0.166148
C38   C     C_R   0.343782 0.606471 0.102698 -0.125484
C39   C     C_R   0.345774 0.630421 0.174170 -0.140492
C40   C     C_R   0.353282 0.732809 0.212982 0.079631
C41   C     C_R   0.357360 0.810802 0.176698 0.007733
C42   C     C_R   0.356611 0.760170 0.286365 0.022704
C43   C     C_R   0.361013 0.864823 0.321993 0.066514
C44   C     C_R   0.362732 0.940206 0.284887 0.344405
C45   C     C_R   0.362032 0.913190 0.213527 -0.252102
C46   C     C_R   0.355190 0.686939 0.325844 -0.196888
C47   C     C_R   0.360032 0.818325 0.431612 -0.173425
C48   C     C_R   0.356595 0.784645 0.103890 -0.050056
H21   H     H_    0.352086 0.606501 0.302909 0.085592
H22   H     H_    0.349341 0.662562 0.012107 0.095113
H23   H     H_    0.340759 0.566653 0.197126 0.097923
H24   H     H_    0.338011 0.527775 0.074159 0.114607
H25   H     H_    0.364195 0.973780 0.187063 0.145083
O11   O     O_R   0.203580 0.914920 0.912610 -0.536392
O12   O     O_R   0.535710 0.887810 0.047120 -0.538467
O13   O     O_R   0.710730 0.084950 0.087430 -0.539627
C49   C     C_R   0.366568 0.862029 0.064308 0.686691
O14   O     O_R   0.533010 0.902850 0.910600 -0.552925
O15   O     O_R   0.708010 0.100090 0.949930 -0.541707
C50   C     C_R   0.364783 0.880462 0.883120 0.688680
O16   O     O_R   0.206300 0.899780 0.050100 -0.539290
O17   O     O_3   0.375170 0.064580 0.013100 -0.369858
V3    V     V_3+5 0.648200 0.988020 0.997570 1.404883
O18   O     O_R   0.038030 0.112330 0.952840 -0.538516
C51   C     C_R   0.870173 0.138930 0.936086 0.682144
O19   O     O_R   0.040730 0.097300 0.089360 -0.542159
C52   C     C_R   0.871972 0.119401 0.116679 0.690601
V4    V     V_3+5 0.148780 0.012220 0.002360 1.416303
O20   O     O_3   0.871930 0.935430 0.986900 -0.370854
C53   C     C_3   0.980291 0.769713 0.803684 -0.360389
C54   C     C_3   0.898795 0.871253 0.799334 -0.658885
H26   H     H_    0.003574 0.934383 0.815923 0.228839
H27   H     H_    0.853028 0.869383 0.746487 0.244179
H28   H     H_    0.773230 0.887332 0.832345 0.222702
H29   H     H_    0.890604 0.705827 0.775204 0.163087
H30   H     H_    0.984766 0.764337 0.857910 0.182948
Cl1   Cl    Cl    0.122359 0.840549 0.648745 -0.717598
Cl2   Cl    Cl    0.364389 0.070798 0.325937 -0.773976

loop_
_geom_bond_atom_site_label_1
_geom_bond_atom_site_label_2
_ccdc_geom_bond_type
C22   H11   S    
C20   C25   S    
C35   C47   A    
C29   C50   S    
C1    O6    A    
C33   Cl1   S    
O14   V3    S    
C23   C24   S    
C7    H5    S    
C6    C16   A    
C31   H18   S    
C9    H6    S    
C4    C6    S    
C13   C14   A    
C3    C21   S    
O5    C3    A    
C27   H16   S    
V2    O10   S    
C1    C34   S    
C5    H3    S    
C15   H8    S    
C48   C49   S    
C26   C52   S    
C37   H22   S    
C2    C36   S    
C24   C25   S    
O8    V2    S    
C20   C21   S    
O17   V3    S    
C35   H20   S    
O12   V3    S    
C8    C9    A    
C53   H30   S    
C38   C39   A    
O1    V2    S    
C38   H24   S    
O7    V1    S    
C36   C47   A    
O13   V3    S    
C45   H25   S    
C31   C32   S    
O9    C4    A    
C49   O16   A    
C37   C38   A    
C32   C53   S    
C19   H10   S    
C39   H23   S    
C36   C46   A    
C6    C17   A    
C42   C43   A    
C12   C16   A    
C53   C54   S    
C44   C45   A    
C40   C42   A    
C19   C20   S    
O4    C2    A    
C29   C32   S    
C10   C11   A    
C8    H7    S    
C24   H13   S    
O15   C51   A    
C32   C33   S    
O2    C1    A    
C43   C44   A    
C14   C15   A    
H19   C47   S    
C27   C34   S    
C11   C18   A    
O14   C50   A    
C25   C26   S    
O17   V4    S    
C27   C30   S    
O18   C51   A    
C16   H4    S    
C53   H29   S    
C54   H27   S    
C9    C10   A    
O16   V4    S    
C25   H14   S    
O3    C4    A    
C20   H9    S    
C11   C15   A    
O6    V2    S    
O19   V4    S    
O12   C49   A    
C21   C22   S    
H1    C17   S    
O2    V1    S    
C54   H26   S    
O11   V4    S    
C22   C23   S    
C23   C26   S    
C30   H17   S    
C7    C18   A    
C28   H15   S    
C31   C34   S    
O1    C2    A    
C5    C13   A    
C40   C41   A    
O5    V1    S    
O8    C3    A    
C27   C28   S    
C19   C22   S    
C28   C33   S    
C10   C12   A    
C35   C43   A    
O9    V2    S    
C30   C31   S    
O4    V1    S    
O3    V1    S    
O11   C50   A    
C46   H21   S    
C29   C30   S    
C23   H12   S    
O18   V4    S    
V4    O20   S    
C41   C48   A    
C54   H28   S    
C18   C51   S    
O7    V2    S    
C33   C34   S    
C21   C24   S    
O13   C52   A    
O15   V3    S    
C39   C40   A    
C44   Cl2   S    
O19   C52   A    
C42   C46   A    
C12   C13   A    
C5    C17   A    
C41   C45   A    
C7    C8    A    
C37   C48   A    
V1    O10   S    
V3    O20   S    
C19   C26   S    
C28   C29   S    
H2    C14   S    
