data_mof_unit_62948.cif
_audit_creation_date              2012-12-10T21:02:16-0500
_audit_creation_method            fapswitch 2.2
_symmetry_space_group_name_H-M    P1
_symmetry_Int_Tables_number       1
_space_group_crystal_system       triclinic
_cell_length_a                    15.069097
_cell_length_b                    15.854755
_cell_length_c                    16.867675
_cell_angle_alpha                 89.969852
_cell_angle_beta                  85.232744
_cell_angle_gamma                 90.013879
_cell_volume                      4016.02928899

loop_
_atom_site_label
_atom_site_type_symbol
_atom_type_description
_atom_site_fract_x
_atom_site_fract_y
_atom_site_fract_z
_atom_type_partial_charge
C1    C     C_R   0.500032 0.661106 0.499913 0.912319
C2    C     C_1   0.499594 0.824083 0.494142 -0.045784
C3    C     C_1   0.500146 0.749366 0.497171 -0.184142
C4    C     C_1   0.500279 0.250640 0.497224 -0.186495
C5    C     C_R   0.042984 0.561646 0.542107 -0.158678
C6    C     C_R   0.957022 0.438409 0.457817 -0.158662
C7    C     C_R   0.094963 0.500041 0.499942 0.080321
C8    C     C_R   0.905042 0.500006 0.499992 0.080634
C9    C     C_R   0.050787 0.438429 0.457796 -0.158804
C10   C     C_R   0.949219 0.561625 0.542130 -0.157510
C11   C     C_1   0.192828 0.500032 0.499957 0.044721
C12   C     C_R   0.499973 0.338897 0.500022 0.916098
C13   C     C_1   0.807174 0.499991 0.500012 0.045776
C14   C     C_R   0.487872 0.503748 0.653133 0.867202
C15   C     C_R   0.512172 0.498228 0.346650 0.871043
C16   C     C_R   0.480754 0.525357 0.736796 -0.030538
C17   C     C_R   0.519538 0.492678 0.260623 -0.042171
C18   C     C_R   0.550624 0.569998 0.767470 -0.167707
C19   C     C_R   0.444855 0.468748 0.221733 -0.176868
C20   C     C_R   0.545364 0.591348 0.847194 -0.104852
C21   C     C_R   0.449571 0.467720 0.139575 -0.100021
C22   C     C_R   0.471050 0.566656 0.896642 0.180080
C23   C     C_R   0.420241 0.045186 0.499783 -0.259143
C24   C     C_R   0.528483 0.491763 0.096140 0.180483
C25   C     C_R   0.398616 0.527043 0.865579 -0.115336
C26   C     C_R   0.604659 0.511272 0.134230 -0.110610
C27   C     C_R   0.403160 0.506875 0.785226 -0.194045
C28   C     C_R   0.600291 0.511620 0.216768 -0.200719
C29   C     C_2   0.478242 0.563509 0.981466 0.211220
C30   C     C_2   0.528598 0.502722 0.011099 0.212732
C31   C     C_3   0.328070 0.913136 0.510838 -0.422687
C32   C     C_3   0.300562 0.878829 0.431948 -0.805645
C33   C     C_3   0.672091 0.086836 0.467892 -0.415630
C34   C     C_R   0.579901 0.954820 0.479867 -0.259717
C35   C     C_3   0.688467 0.122972 0.384025 -0.817075
C36   C     C_R   0.501903 0.087037 0.490172 0.106701
C37   C     C_R   0.498309 0.912986 0.490636 0.105994
C38   C     C_R   0.582817 0.042578 0.479136 0.178441
C39   C     C_R   0.417303 0.957442 0.499837 0.179543
C40   C     C_1   0.500929 0.175930 0.494022 -0.044522
Cl1   Cl    Cl    0.591491 0.429596 0.950394 -0.617057
Cl2   Cl    Cl    0.416107 0.637311 0.041737 -0.618194
H1    H     H_    0.609841 0.587245 0.730140 0.156415
H2    H     H_    0.641241 0.918812 0.472458 0.154277
H3    H     H_    0.911153 0.609896 0.575179 0.135613
H4    H     H_    0.088852 0.390155 0.424751 0.135420
H5    H     H_    0.074927 0.609927 0.575129 0.136336
H6    H     H_    0.925079 0.390127 0.424796 0.135737
H7    H     H_    0.295201 0.931210 0.388829 0.260879
H8    H     H_    0.349639 0.831995 0.406373 0.267940
H9    H     H_    0.234711 0.847405 0.441773 0.247499
H10   H     H_    0.330800 0.860935 0.554553 0.214523
H11   H     H_    0.275492 0.957322 0.535422 0.204449
H12   H     H_    0.382514 0.452170 0.254701 0.159871
H13   H     H_    0.684104 0.072211 0.339131 0.263337
H14   H     H_    0.639082 0.172792 0.373457 0.262638
H15   H     H_    0.756064 0.151233 0.376425 0.247159
H16   H     H_    0.675544 0.138008 0.512524 0.216168
H17   H     H_    0.727015 0.042182 0.477728 0.203712
H18   H     H_    0.658786 0.529348 0.246105 0.161844
H19   H     H_    0.348031 0.474028 0.761695 0.156622
H20   H     H_    0.341531 0.507036 0.904326 0.151377
H21   H     H_    0.665871 0.529414 0.100258 0.156882
H22   H     H_    0.390918 0.451537 0.109719 0.149824
H23   H     H_    0.601720 0.621362 0.871559 0.149528
H24   H     H_    0.358899 0.081148 0.507642 0.154263
N1    N     N_1   0.729450 0.499980 0.500020 -0.087456
N2    N     N_1   0.270550 0.500020 0.499980 -0.087306
O1    O     O_R   0.426350 0.621980 0.500000 -0.605452
O2    O     O_R   0.573650 0.378020 0.500000 -0.604715
O3    O     O_R   0.573690 0.621980 0.499960 -0.612588
O4    O     O_R   0.426310 0.378020 0.500040 -0.610279
O5    O     O_R   0.417630 0.500010 0.615820 -0.616878
O6    O     O_R   0.582370 0.499990 0.384180 -0.617843
O7    O     O_R   0.564960 0.500010 0.615780 -0.611078
O8    O     O_R   0.435040 0.499990 0.384220 -0.613870
Zn1   Zn    Zn3+2 0.401630 0.500000 0.500020 0.982260
Zn2   Zn    Zn3+2 0.598370 0.500000 0.499980 0.982197

loop_
_geom_bond_atom_site_label_1
_geom_bond_atom_site_label_2
_ccdc_geom_bond_type
C33   H16   S    
C22   C29   S    
C29   Cl2   S    
O2    Zn2   S    
C34   C37   A    
O1    Zn1   S    
C31   H10   S    
C6    C9    A    
C7    C11   S    
C5    H5    S    
C1    O3    A    
C6    H6    S    
C23   H24   S    
C19   C21   A    
C24   C26   A    
C15   C17   S    
C21   H22   S    
C27   H19   S    
C17   C19   A    
C4    C40   T    
C22   C25   A    
C30   Cl1   S    
C4    C12   S    
C29   C30   D    
C16   C27   A    
C15   O8    A    
C12   O4    A    
C9    H4    S    
C33   H17   S    
N1    Zn2   S    
C28   H18   S    
C35   H13   S    
C14   O5    A    
C20   H23   S    
C36   C40   S    
C34   H2    S    
O8    Zn1   S    
C5    C7    A    
C6    C8    A    
C1    O1    A    
C1    C3    S    
C26   H21   S    
C32   H9    S    
O4    Zn1   S    
C31   C32   S    
C10   H3    S    
C31   H11   S    
C32   H8    S    
C19   H12   S    
C8    C10   A    
C20   C22   A    
C14   C16   S    
C11   N2    T    
C13   N1    T    
N2    Zn1   S    
C7    C9    A    
C12   O2    A    
C35   H14   S    
C34   C38   A    
C17   C28   A    
C25   C27   A    
C26   C28   A    
C33   C38   S    
C35   H15   S    
C14   O7    A    
C36   C38   A    
C2    C3    T    
C5    C10   A    
C37   C39   A    
C18   H1    S    
C2    C37   S    
C23   C39   A    
C33   C35   S    
C31   C39   S    
C18   C20   A    
C25   H20   S    
O7    Zn2   S    
C24   C30   S    
C32   H7    S    
C8    C13   S    
C15   O6    A    
C16   C18   A    
C23   C36   A    
O6    Zn2   S    
C21   C24   A    
O5    Zn1   S    
O3    Zn2   S    
