data_mof_unit_59445.cif
_audit_creation_date              2012-12-10T16:57:09-0500
_audit_creation_method            fapswitch 2.2
_symmetry_space_group_name_H-M    P1
_symmetry_Int_Tables_number       1
_space_group_crystal_system       triclinic
_cell_length_a                    7.768751
_cell_length_b                    8.604981
_cell_length_c                    16.51396
_cell_angle_alpha                 91.859203
_cell_angle_beta                  80.564136
_cell_angle_gamma                 93.332309
_cell_volume                      1086.8849939

loop_
_atom_site_label
_atom_site_type_symbol
_atom_type_description
_atom_site_fract_x
_atom_site_fract_y
_atom_site_fract_z
_atom_type_partial_charge
C1    C     C_R   0.545086 0.794528 0.498107 0.954438
C2    C     C_R   0.388968 0.480753 0.218982 -0.189006
C3    C     C_R   0.531217 0.263940 0.834798 -0.148898
C4    C     C_R   0.385901 0.423829 0.139756 -0.144798
C5    C     C_R   0.388466 0.307137 0.893015 0.138915
C6    C     C_R   0.521349 0.333782 0.099433 0.141020
C7    C     C_R   0.270602 0.411590 0.871733 0.039136
C8    C     C_R   0.663027 0.304927 0.139026 0.029351
C9    C     C_R   0.303123 0.477699 0.794363 -0.207776
C10   C     C_R   0.666473 0.364480 0.218122 -0.199820
C11   C     C_2   0.381512 0.267170 0.979125 -0.217401
C12   C     C_R   0.454928 0.205481 0.501893 0.942910
C13   C     C_2   0.526902 0.290266 0.012552 -0.209874
C14   C     C_1   0.121323 0.459280 0.929410 0.134726
C15   C     C_1   0.803371 0.210827 0.100701 0.171546
C16   C     C_2   0.565808 0.954613 0.483802 0.084363
C17   C     C_2   0.434267 0.045456 0.516254 0.088275
C18   C     C_R   0.475803 0.494555 0.654633 0.871905
C19   C     C_R   0.522022 0.492395 0.345153 0.881145
C20   C     C_R   0.452332 0.441451 0.738600 -0.047905
C21   C     C_R   0.528959 0.451349 0.258548 -0.053512
C22   C     C_R   0.564525 0.332521 0.758765 -0.175832
Cl1   Cl    Cl    0.745050 0.011535 0.406872 -0.593086
Cl2   Cl    Cl    0.255136 0.988700 0.593241 -0.592273
H1    H     H_    0.675979 0.297378 0.715037 0.175120
H2    H     H_    0.976975 0.620162 0.560737 0.217615
H3    H     H_    0.281738 0.547359 0.249364 0.169542
H4    H     H_    0.773717 0.338179 0.249110 0.180507
H5    H     H_    0.213055 0.558220 0.777751 0.167948
H6    H     H_    0.653689 0.303819 0.973656 0.171709
H7    H     H_    0.255065 0.255270 0.018218 0.178432
H8    H     H_    0.279272 0.454220 0.109606 0.151667
H9    H     H_    0.620795 0.181088 0.849330 0.153692
H10   H     H_    0.023030 0.379863 0.439243 0.215279
N1    N     N_2   0.953500 0.457650 0.478520 -0.153892
N2    N     N_2   0.046500 0.542350 0.521480 -0.151585
N3    N     N_1   0.001837 0.497790 0.975534 -0.202866
N4    N     N_1   0.915415 0.135064 0.070058 -0.195671
O1    O     O_R   0.388470 0.738640 0.505270 -0.577848
O2    O     O_R   0.611530 0.261360 0.494730 -0.585722
O3    O     O_R   0.679650 0.711510 0.491500 -0.588122
O4    O     O_R   0.320350 0.288490 0.508500 -0.591682
O5    O     O_R   0.337210 0.515200 0.623500 -0.597701
O6    O     O_R   0.662790 0.484800 0.376500 -0.604879
O7    O     O_R   0.628380 0.488060 0.609730 -0.635996
O8    O     O_R   0.371620 0.511940 0.390270 -0.631073
Zn1   Zn    Zn3+2 0.305580 0.518120 0.509190 1.022697
Zn2   Zn    Zn3+2 0.694420 0.481880 0.490810 1.015280

loop_
_geom_bond_atom_site_label_1
_geom_bond_atom_site_label_2
_ccdc_geom_bond_type
C12   C17   S    
C12   O2    A    
C1    O3    A    
C2    C4    A    
C8    C10   A    
C15   N4    T    
C2    H3    S    
C16   Cl1   S    
C9    C20   A    
N1    N2    D    
C9    H5    S    
C2    C21   A    
C19   O8    A    
C11   H7    S    
C1    C16   S    
C18   O5    A    
C6    C13   S    
C11   C13   D    
C4    H8    S    
C6    C8    A    
N1    Zn2   S    
H2    N2    S    
C19   C21   S    
O3    Zn2   S    
C20   C22   A    
C5    C11   S    
C8    C15   S    
C18   C20   S    
O4    Zn1   S    
C10   C21   A    
H10   N1    S    
C17   Cl2   S    
C1    O1    A    
C18   O7    A    
C7    C9    A    
C13   H6    S    
C19   O6    A    
N2    Zn1   S    
O1    Zn1   S    
C4    C6    A    
O7    Zn2   S    
C10   H4    S    
C5    C7    A    
C3    H9    S    
O2    Zn2   S    
C3    C22   A    
C12   O4    A    
C3    C5    A    
O8    Zn1   S    
O5    Zn1   S    
C7    C14   S    
O6    Zn2   S    
C16   C17   D    
C14   N3    T    
C22   H1    S    
