data_mof_unit_66938.cif
_audit_creation_date              2013-03-05T15:57:29-0500
_audit_creation_method            fapswitch 2.2
_symmetry_space_group_name_H-M    P1
_symmetry_Int_Tables_number       1
_space_group_crystal_system       triclinic
_cell_length_a                    17.18757
_cell_length_b                    18.522435
_cell_length_c                    8.399843
_cell_angle_alpha                 89.999984
_cell_angle_beta                  101.930728
_cell_angle_gamma                 90.141285
_cell_volume                      2616.36312056

loop_
_atom_site_label
_atom_site_type_symbol
_atom_site_description
_atom_site_fract_x
_atom_site_fract_y
_atom_site_fract_z
_atom_type_partial_charge
P1    P     P_3+3 0.834140 0.419320 0.003900 0.973070
P2    P     P_3+3 0.834140 0.580680 0.503900 0.972612
P3    P     P_3+3 0.334140 0.919320 0.003900 0.972391
P4    P     P_3+3 0.334140 0.080680 0.503900 0.973258
O1    O     O_2   0.841960 0.394640 0.833410 -0.460849
O2    O     O_2   0.841960 0.605360 0.333410 -0.466325
O3    O     O_2   0.341960 0.894640 0.833410 -0.461013
O4    O     O_2   0.341960 0.105360 0.333410 -0.465135
O5    O     O_3   0.907950 0.463080 0.102990 -0.498679
O6    O     O_3   0.907950 0.536920 0.602990 -0.496493
O7    O     O_3   0.407950 0.963080 0.102990 -0.498428
O8    O     O_3   0.407950 0.036920 0.602990 -0.496784
O9    O     O_3   0.972780 0.329600 0.629720 -0.484974
O10   O     O_3   0.972780 0.670400 0.129720 -0.492631
O11   O     O_3   0.472780 0.829600 0.629720 -0.484498
O12   O     O_3   0.472780 0.170400 0.129720 -0.491763
O13   O     O_2   0.839237 0.275009 0.694253 -0.461490
O14   O     O_2   0.841063 0.727074 0.197027 -0.437633
O15   O     O_2   0.339050 0.775173 0.693349 -0.461804
O16   O     O_2   0.340983 0.226801 0.196688 -0.438301
O17   O     O_3   0.752226 0.477211 0.966135 -0.651552
O18   O     O_3   0.751700 0.523054 0.467682 -0.652317
O19   O     O_3   0.252240 0.977241 0.966226 -0.651666
O20   O     O_3   0.251771 0.022968 0.467514 -0.652567
O21   O     O_3   0.941609 0.181824 0.630900 -0.569573
O22   O     O_3   0.945527 0.818577 0.133174 -0.575999
O23   O     O_3   0.441619 0.681793 0.631273 -0.569280
O24   O     O_3   0.445451 0.318569 0.134160 -0.580463
H1    H     H_    0.059573 0.211697 0.703649 0.085599
H2    H     H_    0.061570 0.785612 0.219226 0.097464
H3    H     H_    0.559626 0.711141 0.705870 0.086921
H4    H     H_    0.561555 0.285871 0.220754 0.099084
C1    C     C_3   0.047431 0.108461 0.585931 -0.394314
C2    C     C_3   0.056715 0.887763 0.098075 -0.401708
C3    C     C_3   0.547376 0.608378 0.585864 -0.394841
C4    C     C_3   0.556538 0.388041 0.099515 -0.403768
H5    H     H_    0.610255 0.608297 0.572047 0.070487
H6    H     H_    0.618497 0.385848 0.080501 0.078243
H7    H     H_    0.110144 0.108428 0.571093 0.070455
H8    H     H_    0.118814 0.885451 0.079926 0.076704
H9    H     H_    0.042281 0.079012 0.697405 0.127858
H10   H     H_    0.054604 0.917285 0.211013 0.125932
H11   H     H_    0.541685 0.578408 0.696336 0.128113
H12   H     H_    0.554772 0.417476 0.212746 0.126205
P5    P     P_3+3 0.165830 0.418670 0.685610 0.969503
P6    P     P_3+3 0.165830 0.581330 0.185610 0.989471
P7    P     P_3+3 0.665830 0.918670 0.685610 0.968742
P8    P     P_3+3 0.665830 0.081330 0.185610 0.989615
P9    P     P_3+3 0.103235 0.265102 0.111184 0.976947
P10   P     P_3+3 0.102663 0.735199 0.610072 0.971450
P11   P     P_3+3 0.603183 0.765090 0.111398 0.976729
P12   P     P_3+3 0.602339 0.235494 0.610000 0.973004
O25   O     O_2   0.157990 0.394030 0.856030 -0.466209
O26   O     O_2   0.157990 0.605970 0.356030 -0.479045
O27   O     O_2   0.657990 0.894030 0.856030 -0.464526
O28   O     O_2   0.657990 0.105970 0.356030 -0.480407
O29   O     O_3   0.027110 0.329490 0.059550 -0.445659
O30   O     O_3   0.027110 0.670510 0.559550 -0.447423
O31   O     O_3   0.527110 0.829490 0.059550 -0.446116
O32   O     O_3   0.527110 0.170510 0.559550 -0.444851
O33   O     O_2   0.166574 0.282535 0.011236 -0.489616
O34   O     O_2   0.165117 0.719189 0.507355 -0.498541
O35   O     O_2   0.666581 0.782506 0.011584 -0.489757
O36   O     O_2   0.664776 0.219683 0.507019 -0.499516
O37   O     O_3   0.249792 0.474317 0.729197 -0.615555
O38   O     O_3   0.250038 0.526198 0.225010 -0.596406
O39   O     O_3   0.749595 0.974556 0.729327 -0.616573
O40   O     O_3   0.749907 0.026048 0.224231 -0.596864
O41   O     O_3   0.068385 0.180850 0.032508 -0.595538
O42   O     O_3   0.064706 0.818228 0.532150 -0.602770
O43   O     O_3   0.568327 0.680846 0.032816 -0.596267
O44   O     O_3   0.563862 0.318477 0.532255 -0.604798
C5    C     C_3   0.033223 0.143077 0.145171 0.385686
C6    C     C_3   0.027904 0.853983 0.644652 0.401194
C7    C     C_3   0.532553 0.643267 0.144822 0.387668
C8    C     C_3   0.526402 0.353734 0.644396 0.403489
H13   H     H_    0.056851 0.158594 0.272904 -0.136727
H14   H     H_    0.042986 0.832280 0.769437 -0.151520
H15   H     H_    0.554933 0.659528 0.272423 -0.137840
H16   H     H_    0.540655 0.331311 0.768706 -0.156510
C9    C     C_3   0.050984 0.063210 0.132745 -0.388620
C10   C     C_3   0.055706 0.932055 0.654960 -0.389848
C11   C     C_3   0.551395 0.563488 0.134956 -0.394519
C12   C     C_3   0.554621 0.431749 0.657461 -0.387474
H17   H     H_    0.516370 0.531728 0.208447 0.108390
H18   H     H_    0.539402 0.457880 0.536141 0.108970
H19   H     H_    0.019958 0.032092 0.214046 0.105307
H20   H     H_    0.039719 0.957611 0.533150 0.106639
H21   H     H_    0.030478 0.044377 0.005333 0.110008
H22   H     H_    0.121100 0.934823 0.698947 0.116456
H23   H     H_    0.536097 0.544955 0.006043 0.111008
H24   H     H_    0.619972 0.434101 0.702856 0.115118
C13   C     C_3   0.229482 0.455229 0.256702 0.277420
C14   C     C_3   0.228757 0.546071 0.750140 0.276816
C15   C     C_3   0.729378 0.955690 0.260587 0.273498
C16   C     C_3   0.728182 0.046202 0.750075 0.276819
H25   H     H_    0.221567 0.451627 0.383998 -0.022456
H26   H     H_    0.221843 0.553702 0.877252 -0.002108
H27   H     H_    0.721858 0.953740 0.388237 -0.019243
H28   H     H_    0.719712 0.053464 0.876295 -0.001365
H29   H     H_    0.175065 0.435647 0.172326 0.062549
H30   H     H_    0.173965 0.563490 0.664480 0.065706
H31   H     H_    0.674761 0.935466 0.177807 0.060180
H32   H     H_    0.674102 0.063651 0.662244 0.067286
C17   C     C_3   0.297129 0.406466 0.234042 -0.284790
C18   C     C_3   0.295691 0.593515 0.717898 -0.273218
C19   C     C_3   0.796816 0.906269 0.240327 -0.281333
C20   C     C_3   0.795724 0.093924 0.721762 -0.277014
H33   H     H_    0.354068 0.425712 0.309901 0.152374
H34   H     H_    0.350990 0.582302 0.808919 0.149899
H35   H     H_    0.853780 0.926053 0.315045 0.149604
H36   H     H_    0.850322 0.082521 0.814701 0.149129
H37   H     H_    0.285317 0.350368 0.268508 0.113770
H38   H     H_    0.278765 0.650827 0.723868 0.085284
H39   H     H_    0.784786 0.850755 0.277869 0.113715
H40   H     H_    0.778565 0.151150 0.727981 0.085154
H41   H     H_    0.302804 0.407722 0.104852 0.131023
H42   H     H_    0.306732 0.582230 0.594576 0.141963
H43   H     H_    0.802314 0.905750 0.111108 0.132900
H44   H     H_    0.808123 0.083174 0.599245 0.140638
Ba1   Ba    Ba6+2 0.000000 0.447380 0.844850 1.659343
Ba2   Ba    Ba6+2 0.000000 0.552620 0.344850 1.663334
Ba3   Ba    Ba6+2 0.500000 0.947380 0.844850 1.659674
Ba4   Ba    Ba6+2 0.500000 0.052620 0.344850 1.663642
C21   C     C_3   0.773536 0.544030 0.909998 0.266576
C22   C     C_3   0.770881 0.457367 0.403226 0.270431
C23   C     C_3   0.273447 0.043829 0.908774 0.266404
C24   C     C_3   0.271007 0.957443 0.402406 0.270067
H45   H     H_    0.775323 0.538762 0.779972 0.028149
H46   H     H_    0.763497 0.463476 0.270185 0.032295
H47   H     H_    0.274694 0.038160 0.778591 0.028857
H48   H     H_    0.263423 0.963766 0.269421 0.033328
H49   H     H_    0.831363 0.564618 0.979774 0.051131
H50   H     H_    0.831982 0.438602 0.456920 0.041506
H51   H     H_    0.331520 0.064405 0.977395 0.050317
H52   H     H_    0.332175 0.938742 0.455608 0.041290
C25   C     C_3   0.710301 0.598528 0.928640 -0.349629
C26   C     C_3   0.713228 0.400286 0.438466 -0.360374
C27   C     C_3   0.210561 0.098639 0.927740 -0.351522
C28   C     C_3   0.213568 0.900165 0.437467 -0.360386
H53   H     H_    0.650797 0.573659 0.890543 0.133186
H54   H     H_    0.653280 0.423830 0.424629 0.137934
H55   H     H_    0.150924 0.073829 0.891873 0.134303
H56   H     H_    0.153479 0.923406 0.422307 0.137929
H57   H     H_    0.713429 0.646968 0.852708 0.061480
H58   H     H_    0.710336 0.354063 0.353890 0.063696
H59   H     H_    0.213280 0.146623 0.850298 0.060835
H60   H     H_    0.211228 0.853761 0.353608 0.063387
H61   H     H_    0.718410 0.615088 0.058011 0.134020
H62   H     H_    0.732003 0.380750 0.565034 0.137743
H63   H     H_    0.219525 0.115938 0.056733 0.134044
H64   H     H_    0.232044 0.880992 0.564327 0.138254
O45   O     O_3   0.092100 0.536880 0.086720 -0.505724
O46   O     O_3   0.092100 0.463120 0.586720 -0.504147
O47   O     O_3   0.592100 0.036880 0.086720 -0.504447
O48   O     O_3   0.592100 0.963120 0.586720 -0.504712
P13   P     P_3+3 0.899028 0.735789 0.080234 1.002947
P14   P     P_3+3 0.897523 0.265388 0.578774 1.003362
P15   P     P_3+3 0.399059 0.235810 0.080257 0.999070
P16   P     P_3+3 0.397611 0.765344 0.578552 1.003130
C29   C     C_3   0.018983 0.184615 0.600559 0.396114
C30   C     C_3   0.024395 0.812906 0.112296 0.374327
C31   C     C_3   0.519180 0.684533 0.601901 0.394535
C32   C     C_3   0.524409 0.313100 0.113711 0.368643
H65   H     H_    0.021627 0.213365 0.485531 -0.077058
H66   H     H_    0.028957 0.782700 0.000424 -0.058378
H67   H     H_    0.522346 0.713744 0.487770 -0.075828
H68   H     H_    0.529236 0.282900 0.002034 -0.054425
H69   H     H_    0.615778 0.553890 0.185200 0.117399
H70   H     H_    0.526135 0.461460 0.744544 0.111946
H71   H     H_    0.115850 0.053429 0.172173 0.116975
H72   H     H_    0.027589 0.962010 0.742170 0.111675
C33   C     C_R   0.138377 0.676770 0.922580 -0.288380
C34   C     C_R   0.138865 0.323073 0.423817 -0.285589
C35   C     C_R   0.638134 0.176942 0.922605 -0.287804
C36   C     C_R   0.638804 0.823035 0.423972 -0.285278
C37   C     C_R   0.861044 0.324012 0.266518 -0.268838
C38   C     C_R   0.862099 0.676698 0.767304 -0.264637
C39   C     C_R   0.361339 0.823860 0.266245 -0.269294
C40   C     C_R   0.362108 0.176708 0.767291 -0.258001
C41   C     C_R   0.787672 0.215904 0.304069 -0.002768
C42   C     C_R   0.790066 0.785602 0.803634 -0.053444
C43   C     C_R   0.287981 0.715742 0.303829 -0.003186
C44   C     C_R   0.290257 0.285754 0.803358 -0.057802
C45   C     C_R   0.845024 0.267986 0.365137 -0.021465
C46   C     C_R   0.846761 0.733269 0.865629 -0.028106
C47   C     C_R   0.345366 0.767800 0.364813 -0.022133
C48   C     C_R   0.346888 0.233373 0.865503 -0.029273
C49   C     C_R   0.814494 0.334533 0.111440 0.080632
C50   C     C_R   0.816171 0.666464 0.611130 0.088778
C51   C     C_R   0.314693 0.834429 0.111287 0.079846
C52   C     C_R   0.316097 0.166413 0.611198 0.092257
C53   C     C_R   0.752514 0.283447 0.049806 -0.086449
C54   C     C_R   0.755385 0.718318 0.548571 -0.022404
C55   C     C_R   0.252804 0.783269 0.049615 -0.086493
C56   C     C_R   0.255338 0.218289 0.548576 -0.019968
C57   C     C_R   0.240687 0.721702 0.146115 -0.057023
C58   C     C_R   0.242816 0.279477 0.645662 -0.056909
C59   C     C_R   0.740411 0.221853 0.146271 -0.058575
C60   C     C_R   0.742772 0.779435 0.645766 -0.059358
C61   C     C_R   0.182188 0.668084 0.080759 0.061512
C62   C     C_R   0.183196 0.332193 0.581285 0.033833
C63   C     C_R   0.682020 0.168171 0.080759 0.061089
C64   C     C_R   0.683208 0.832191 0.581342 0.032636
C65   C     C_R   0.152450 0.734514 0.826383 -0.013360
C66   C     C_R   0.153451 0.265942 0.327035 -0.024301
C67   C     C_R   0.652133 0.234760 0.826453 -0.012282
C68   C     C_R   0.653314 0.765859 0.327242 -0.022843
C69   C     C_R   0.206685 0.788674 0.890774 -0.101449
C70   C     C_R   0.208854 0.212668 0.390099 -0.078661
C71   C     C_R   0.706371 0.288904 0.890964 -0.101440
C72   C     C_R   0.708794 0.712635 0.390201 -0.078645
H73   H     H_    0.281785 0.670747 0.381249 0.111449
H74   H     H_    0.283829 0.330790 0.880329 0.112623
H75   H     H_    0.781547 0.170866 0.381473 0.111684
H76   H     H_    0.783627 0.830614 0.880741 0.114739
H77   H     H_    0.713308 0.333802 0.813817 0.094453
H78   H     H_    0.715661 0.667927 0.312494 0.087845
H79   H     H_    0.213610 0.833546 0.813532 0.095118
H80   H     H_    0.215700 0.167937 0.312409 0.088092
H81   H     H_    0.095595 0.635905 0.870040 0.055812
H82   H     H_    0.095326 0.363274 0.372073 0.057646
H83   H     H_    0.595367 0.136072 0.870030 0.055826
H84   H     H_    0.595256 0.863230 0.372255 0.057224
H85   H     H_    0.907599 0.362272 0.315031 0.050731
H86   H     H_    0.907437 0.637708 0.816907 0.048269
H87   H     H_    0.407864 0.862145 0.314779 0.051037
H88   H     H_    0.407449 0.137721 0.816893 0.046873
H89   H     H_    0.509374 0.582080 0.478709 0.145007
H90   H     H_    0.518289 0.416295 0.996185 0.135254
H91   H     H_    0.009211 0.081625 0.479855 0.144956
H92   H     H_    0.018792 0.915952 0.994220 0.138452
C73   C     C_2   0.945230 0.154615 0.106432 0.792779
O49   O     O_2   0.902730 0.123005 0.184000 -0.658979
O50   O     O_R   0.912246 0.200847 0.980035 -0.697579
H93   H     H_    0.852466 0.199937 0.958369 0.298775
C74   C     C_2   0.939376 0.850176 0.589321 0.798924
O51   O     O_2   0.909277 0.803601 0.492910 -0.581837
O52   O     O_R   0.891567 0.899791 0.649271 -0.781002
H94   H     H_    0.833926 0.895181 0.592912 0.301157
C75   C     C_2   0.444493 0.654156 0.103259 0.793598
O53   O     O_2   0.401558 0.622440 0.179701 -0.659078
O54   O     O_R   0.411987 0.700261 0.976305 -0.696744
H95   H     H_    0.352111 0.699770 0.954689 0.298752
C76   C     C_2   0.437922 0.349920 0.586714 0.802122
O55   O     O_2   0.408141 0.299258 0.501607 -0.585049
O56   O     O_R   0.389775 0.403455 0.633196 -0.779614
H96   H     H_    0.331906 0.396062 0.581310 0.299962

loop_
_geom_bond_atom_site_label_1
_geom_bond_atom_site_label_2
_geom_bond_distance
_ccdc_geom_bond_type
C43   H73   1.075659 S    
C42   H76   1.075607 S    
P1    O17   1.747978 S    
O10   Ba2   2.810532 S    
C76   O55   1.224733 D    
C13   H25   1.107420 S    
P12   C67   1.842576 S    
C20   H44   1.111332 S    
P3    O19   1.748110 S    
O7    Ba4   2.835343 S    
C34   H82   1.082410 S    
C35   C67   1.391471 A    
O44   C8    1.407520 S    
O6    Ba1   2.839902 S    
C33   H81   1.082348 S    
C28   H60   1.106657 S    
C8    C12   1.519854 S    
C37   C45   1.389898 A    
Ba3   Ba4   4.630238 S    
Ba3   O47   2.835311 S    
C26   H62   1.106384 S    
P8    C63   1.881367 S    
C27   H59   1.107975 S    
C43   C57   1.408244 A    
O11   Ba3   2.808741 S    
C18   H38   1.105270 S    
P1    O1    1.535514 D    
O15   P16   1.542149 D    
C52   C56   1.438174 A    
C25   H57   1.108435 S    
C3    H5    1.110566 S    
C12   H18   1.109771 S    
C55   C69   1.407719 A    
P3    O3    1.535514 D    
C24   H52   1.110187 S    
P4    O20   1.747576 S    
C54   C72   1.407516 A    
C15   H27   1.106796 S    
O18   C22   1.399262 S    
C39   C47   1.389833 A    
P7    O48   1.594892 S    
C14   H26   1.107558 S    
C21   H49   1.110878 S    
O54   H95   1.007381 S    
O1    Ba1   2.867215 S    
C34   C62   1.393305 A    
P9    O29   1.759385 S    
P4    Ba4   3.429820 S    
O22   P13   1.742106 S    
C33   C61   1.394721 A    
C75   O53   1.223007 D    
C42   C46   1.398289 A    
P7    O39   1.747346 S    
O32   Ba4   2.808065 S    
C49   C53   1.437105 A    
P4    C52   1.883664 S    
C25   H53   1.105870 S    
P12   O32   1.751004 S    
O23   C31   1.405781 S    
C30   H66   1.110369 S    
C44   H74   1.075199 S    
P6    C61   1.880682 S    
C54   C60   1.438549 A    
C36   C68   1.388887 A    
O52   H94   1.009239 S    
O21   C29   1.405684 S    
P5    C62   1.879676 S    
O16   P15   1.543865 D    
C2    H10   1.102096 S    
P2    O18   1.747536 S    
O50   H93   1.005832 S    
O41   C5    1.408794 S    
P4    O8    1.589857 S    
C40   C48   1.393263 A    
C73   O49   1.222944 D    
C28   H64   1.105946 S    
C5    C73   1.495663 S    
C10   H20   1.109451 S    
C40   C52   1.396942 A    
P4    O4    1.535318 D    
C9    H21   1.111197 S    
C28   H56   1.102722 S    
C16   C20   1.514793 S    
P7    O27   1.534632 D    
P5    O25   1.534632 D    
C36   C64   1.393145 A    
C9    H71   1.110783 S    
P9    O41   1.750024 S    
C74   O51   1.221577 D    
C18   H42   1.110964 S    
O12   P15   1.742383 S    
C59   C63   1.437169 A    
C67   C71   1.398192 A    
Ba2   O46   2.839871 S    
C17   H41   1.109686 S    
P2    O2    1.535318 D    
P11   O43   1.749671 S    
Ba1   O45   2.835311 S    
C6    C10   1.518712 S    
C24   H48   1.103807 S    
C22   H50   1.110433 S    
C19   H43   1.108861 S    
C15   H31   1.110594 S    
O27   Ba3   2.875212 S    
Ba3   O48   2.951092 S    
P2    Ba2   3.429820 S    
O31   Ba3   2.809851 S    
C71   H77   1.075731 S    
H3    C31   1.111821 S    
O30   Ba2   2.808065 S    
O40   C15   1.399417 S    
P9    O33   1.539614 D    
Ba1   O46   2.951092 S    
O10   P13   1.742491 S    
P10   O30   1.751160 S    
P1    O5    1.586664 S    
P2    C50   1.883833 S    
C32   H68   1.110029 S    
P11   O35   1.539600 D    
P13   C46   1.840920 S    
C56   C58   1.438611 A    
P12   O36   1.539815 D    
C70   H80   1.076278 S    
C13   H29   1.110362 S    
C22   H46   1.104176 S    
C41   C45   1.397021 A    
P11   C68   1.839513 S    
O4    Ba4   2.871776 S    
C34   C66   1.388928 A    
C51   C55   1.437007 A    
P5    Ba1   3.432115 S    
O23   P16   1.740840 S    
C53   C59   1.438719 A    
O29   Ba1   2.809851 S    
C56   C70   1.407506 A    
O22   C30   1.406503 S    
O24   P15   1.742198 S    
C3    C31   1.507668 S    
C20   H36   1.110299 S    
C3    H89   1.108784 S    
C69   H79   1.075799 S    
P15   C48   1.841513 S    
C11   H69   1.114516 S    
C1    C29   1.507334 S    
O42   C6    1.407457 S    
C7    C75   1.495462 S    
H1    C29   1.112064 S    
C60   C64   1.439327 A    
C27   H63   1.109572 S    
O9    Ba1   2.808741 S    
C66   C70   1.398987 A    
P7    Ba3   3.432115 S    
Ba4   O48   2.839871 S    
C65   C69   1.398141 A    
C31   H67   1.111837 S    
C68   C72   1.398927 A    
P12   O44   1.747227 S    
P6    O26   1.534831 D    
O5    Ba2   2.835343 S    
C42   C60   1.409299 A    
C27   H55   1.105720 S    
C41   H75   1.075908 S    
C1    H7    1.110353 S    
P8    O40   1.747982 S    
C57   C61   1.437187 A    
O13   P14   1.542370 D    
C73   O50   1.391207 S    
C19   H39   1.106977 S    
Ba1   Ba2   4.630238 S    
C9    H19   1.109950 S    
C15   C19   1.515665 S    
C5    C9    1.519179 S    
C10   H72   1.107115 S    
C58   C62   1.439352 A    
O37   C14   1.398814 S    
C25   H61   1.109763 S    
C8    C76   1.499092 S    
O43   C7    1.408829 S    
C1    H9    1.102812 S    
C44   C58   1.409244 A    
C76   O56   1.399341 S    
C21   H45   1.103291 S    
C26   H54   1.103651 S    
O39   C16   1.398506 S    
P10   O34   1.539204 D    
Ba2   O45   2.951864 S    
C2    H8    1.109853 S    
C4    H12   1.102206 S    
P11   O31   1.759085 S    
O2    Ba2   2.871776 S    
O17   C21   1.399082 S    
C4    H6    1.109833 S    
P2    O6    1.589857 S    
P14   C45   1.835087 S    
O28   Ba4   2.870605 S    
O9    P14   1.741944 S    
C3    H11   1.102757 S    
O24   C32   1.406613 S    
O20   C24   1.399348 S    
C18   H34   1.109764 S    
C17   H37   1.108138 S    
P8    O28   1.534831 D    
C16   H32   1.109377 S    
C17   H33   1.109642 S    
C14   C18   1.514237 S    
C5    H13   1.103625 S    
C36   H84   1.082389 S    
P1    Ba1   3.427688 S    
C11   H17   1.114205 S    
O38   C13   1.400084 S    
C19   H35   1.109478 S    
P8    O47   1.591662 S    
C2    H92   1.106829 S    
C8    H16   1.103431 S    
O3    Ba3   2.867215 S    
C2    C30   1.506299 S    
P8    Ba4   3.429937 S    
C33   C65   1.391004 A    
O56   H96   1.008999 S    
P6    O38   1.748240 S    
H2    C30   1.111268 S    
C11   H23   1.114175 S    
C16   H28   1.107832 S    
O19   C23   1.399104 S    
C12   H70   1.107716 S    
C10   H22   1.109248 S    
C37   C49   1.394565 A    
C21   C25   1.516756 S    
C20   H40   1.105058 S    
C6    C74   1.497761 S    
C74   O52   1.395775 S    
O12   Ba4   2.810532 S    
C35   C63   1.395162 A    
O11   P16   1.741625 S    
C13   C17   1.516750 S    
O14   P13   1.544149 D    
O25   Ba1   2.875212 S    
P5    O37   1.747340 S    
C7    C11   1.519458 S    
O8    Ba3   2.839902 S    
C72   H78   1.076147 S    
C26   H58   1.106975 S    
C38   C50   1.396819 A    
H4    C32   1.111159 S    
P3    Ba3   3.427688 S    
C22   C26   1.517717 S    
C40   H88   1.082102 S    
P7    C64   1.879521 S    
C24   C28   1.517228 S    
P6    O45   1.591662 S    
P10   O42   1.745733 S    
P3    C51   1.876131 S    
C23   H51   1.110870 S    
C23   H47   1.103164 S    
C38   H86   1.082096 S    
C53   C71   1.407944 A    
P3    O7    1.586664 S    
C50   C54   1.438090 A    
C37   H85   1.082093 S    
C38   C46   1.393179 A    
P10   C65   1.841469 S    
C44   C48   1.398494 A    
O26   Ba2   2.870605 S    
C39   C51   1.394504 A    
P9    C66   1.839968 S    
C14   H30   1.109071 S    
C4    H90   1.106892 S    
C6    H14   1.102552 S    
Ba4   O47   2.951864 S    
O21   P14   1.740741 S    
C4    C32   1.506446 S    
C35   H83   1.082329 S    
P6    Ba2   3.429937 S    
C39   H87   1.082098 S    
P5    O46   1.594892 S    
C12   H24   1.109779 S    
P16   C47   1.834511 S    
C75   O54   1.390925 S    
C1    H91   1.108566 S    
C7    H15   1.102935 S    
C23   C27   1.516867 S    
C29   H65   1.112320 S    
C43   C47   1.396924 A    
P1    C49   1.876120 S    
C55   C57   1.438577 A    
C41   C59   1.408599 A    
