data_mof_unit_66137.cif
_audit_creation_date              2012-10-26T18:01:51-0400
_audit_creation_method            fapswitch 2.2
_symmetry_space_group_name_H-M    P1
_symmetry_Int_Tables_number       1
_space_group_crystal_system       triclinic
_cell_length_a                    30.765475
_cell_length_b                    30.718623
_cell_length_c                    22.270206
_cell_angle_alpha                 90.150978
_cell_angle_beta                  46.371307
_cell_angle_gamma                 89.953452
_cell_volume                      15234.2001431

loop_
_atom_site_label
_atom_site_type_symbol
_atom_type_description
_atom_site_fract_x
_atom_site_fract_y
_atom_site_fract_z
_atom_type_partial_charge
C1    C     C_R   0.190186 0.190636 0.501150 0.530404
C2    C     C_R   0.839884 0.156755 0.503782 0.011895
C3    C     C_R   0.941219 0.940087 0.499852 0.555096
C4    C     C_R   0.059819 0.059285 0.500137 0.567786
C5    C     C_R   0.940086 0.059278 0.500069 0.563858
C6    C     C_R   0.559821 0.559283 0.500136 0.567800
C7    C     C_R   0.440087 0.559278 0.500068 0.563858
C8    C     C_R   0.170558 0.250024 0.658800 0.548449
C9    C     C_R   0.829370 0.249924 0.341221 0.553561
C10   C     C_R   0.670558 0.750024 0.658800 0.549110
C11   C     C_R   0.329370 0.749924 0.341220 0.552878
C12   C     C_R   0.525880 0.210706 0.956139 -0.095593
C13   C     C_R   0.656379 0.656767 0.503711 0.012670
C14   C     C_R   0.482376 0.210658 0.043048 -0.098538
C15   C     C_R   0.026747 0.710798 0.956142 -0.095631
C16   C     C_R   0.983243 0.710749 0.043051 -0.098495
C17   C     C_R   0.543938 0.250007 0.912757 0.037875
C18   C     C_R   0.456613 0.249912 0.087215 0.037055
C19   C     C_R   0.043936 0.750009 0.912757 0.037850
C20   C     C_R   0.956611 0.749913 0.087215 0.037018
C21   C     C_R   0.518181 0.289260 0.956925 -0.098520
C22   C     C_R   0.474683 0.289213 0.043830 -0.098275
C23   C     C_R   0.017310 0.789172 0.956923 -0.098509
C24   C     C_R   0.339881 0.656755 0.503795 0.011908
C25   C     C_R   0.973813 0.789123 0.043827 -0.098314
C26   C     C_1   0.588719 0.250052 0.823134 -0.041543
C27   C     C_1   0.411736 0.249876 0.176839 -0.048915
C28   C     C_1   0.088718 0.750053 0.823134 -0.041532
C29   C     C_1   0.911735 0.749876 0.176839 -0.048928
C30   C     C_1   0.374184 0.249886 0.251829 -0.013649
C31   C     C_1   0.626137 0.250073 0.748146 -0.006799
C32   C     C_1   0.874183 0.749886 0.251829 -0.013645
C33   C     C_1   0.126137 0.750073 0.748146 -0.006781
C34   C     C_R   0.117353 0.128541 0.572883 0.221072
C35   C     C_R   0.809527 0.127555 0.571690 0.218624
C36   C     C_R   0.617405 0.628507 0.572843 0.221204
C37   C     C_R   0.309506 0.627487 0.571610 0.218687
C38   C     C_R   0.086982 0.095783 0.570209 -0.064862
C39   C     C_R   0.842655 0.094776 0.568853 -0.058184
C40   C     C_R   0.587046 0.595743 0.570158 -0.064756
C41   C     C_R   0.808580 0.190640 0.501312 0.530990
C42   C     C_R   0.342640 0.594709 0.568765 -0.058142
C43   C     C_R   0.095091 0.090686 0.500238 -0.022643
C44   C     C_R   0.904805 0.090661 0.499995 -0.025672
C45   C     C_R   0.595097 0.590683 0.500229 -0.022630
C46   C     C_R   0.404813 0.590664 0.499989 -0.025593
C47   C     C_R   0.139118 0.115276 0.429754 0.033318
C48   C     C_R   0.931715 0.116237 0.430385 0.022273
C49   C     C_R   0.639067 0.615314 0.429780 0.033270
C50   C     C_R   0.431761 0.616313 0.430449 0.022084
C51   C     C_3   0.135461 0.141462 0.376958 -0.262799
C52   C     C_R   0.690183 0.690636 0.501155 0.530636
C53   C     C_3   0.987385 0.143094 0.380490 -0.264084
C54   C     C_3   0.635318 0.641529 0.377101 -0.262822
C55   C     C_3   0.487370 0.643225 0.380790 -0.264210
C56   C     C_3   0.168460 0.177279 0.379018 -0.272591
C57   C     C_3   0.952230 0.178953 0.382728 -0.266736
C58   C     C_3   0.668312 0.677347 0.379167 -0.272511
C59   C     C_3   0.452210 0.679085 0.383042 -0.266659
C60   C     C_R   0.016481 0.240875 0.044046 0.194671
C61   C     C_R   0.982705 0.256617 0.955956 0.195816
C62   C     C_R   0.517396 0.747408 0.044111 0.194650
C63   C     C_R   0.308573 0.690640 0.501327 0.530676
C64   C     C_R   0.482182 0.750035 0.955881 0.195495
C65   C     C_R   0.956209 0.249801 0.087224 0.058994
C66   C     C_R   0.043415 0.249938 0.912800 0.059158
C67   C     C_R   0.456218 0.749796 0.087221 0.058767
C68   C     C_R   0.543419 0.749942 0.912796 0.058865
C69   C     C_R   0.329446 0.249950 0.341153 0.545142
C70   C     C_R   0.670637 0.250040 0.658826 0.536361
C71   C     C_R   0.829446 0.749950 0.341153 0.545233
C72   C     C_R   0.170637 0.750040 0.658826 0.536286
C73   C     C_R   0.939084 0.258786 0.044099 0.197070
C74   C     C_R   0.169049 0.147779 0.431609 -0.012758
C75   C     C_R   0.060971 0.243179 0.955955 0.197833
C76   C     C_R   0.438187 0.752244 0.044024 0.196709
C77   C     C_R   0.561507 0.749763 0.956021 0.197635
C78   C     C_1   0.911297 0.249791 0.177091 0.103216
C79   C     C_1   0.088351 0.250008 0.822931 0.111344
C80   C     C_1   0.411301 0.749786 0.177088 0.103174
C81   C     C_1   0.588353 0.750011 0.822928 0.111056
C82   C     C_1   0.125852 0.250042 0.748004 0.044439
C83   C     C_1   0.873878 0.249822 0.252017 0.033653
C84   C     C_1   0.625853 0.750043 0.748002 0.044324
C85   C     C_R   0.899843 0.148770 0.432412 -0.014140
C86   C     C_1   0.373880 0.749819 0.252015 0.033669
C87   C     C_R   0.321080 0.382942 0.531884 0.004449
C88   C     C_R   0.683881 0.380599 0.455535 0.020447
C89   C     C_R   0.821067 0.882933 0.531926 0.004661
C90   C     C_R   0.183874 0.880610 0.455569 0.019819
C91   C     C_R   0.344279 0.341998 0.497557 -0.042934
C92   C     C_R   0.656769 0.341975 0.499316 -0.065345
C93   C     C_R   0.844278 0.841997 0.497560 -0.042748
C94   C     C_R   0.156770 0.841976 0.499315 -0.065441
C95   C     C_R   0.402978 0.332774 0.462099 -0.080710
C96   C     C_R   0.668993 0.647819 0.431639 -0.012793
C97   C     C_R   0.598229 0.332894 0.534992 -0.078345
C98   C     C_R   0.902988 0.832780 0.462064 -0.080618
C99   C     C_R   0.098240 0.832888 0.534957 -0.078315
C100  C     C_R   0.436555 0.364237 0.461685 0.214224
C101  C     C_R   0.564799 0.364155 0.535511 0.213533
C102  C     C_R   0.936565 0.864242 0.461650 0.214301
C103  C     C_R   0.064810 0.864150 0.535477 0.213497
C104  C     C_R   0.410044 0.405689 0.499033 -0.004887
C105  C     C_R   0.591355 0.405195 0.498206 0.012742
C106  C     C_R   0.910044 0.905687 0.499035 -0.004846
C107  C     C_R   0.399884 0.648846 0.432488 -0.014620
C108  C     C_R   0.091356 0.905197 0.498207 0.012763
C109  C     C_R   0.352218 0.412975 0.533703 0.023390
C110  C     C_R   0.651841 0.411404 0.454159 0.015854
C111  C     C_R   0.852206 0.912966 0.533746 0.023473
C112  C     C_R   0.151835 0.911415 0.454192 0.015620
C113  C     C_3   0.302814 0.445926 0.577630 0.459773
C114  C     C_3   0.682470 0.448249 0.456906 0.451173
C115  C     C_3   0.802789 0.945908 0.577716 0.459744
C116  C     C_3   0.182437 0.948259 0.456992 0.451293
C117  C     C_R   0.309628 0.309308 0.499511 0.573676
C118  C     C_R   0.156383 0.156766 0.503708 0.012719
C119  C     C_R   0.690145 0.309368 0.500772 0.561318
C120  C     C_R   0.809627 0.809308 0.499513 0.574051
C121  C     C_R   0.190144 0.809368 0.500772 0.560956
C122  C     C_3   0.267019 0.411303 0.575841 0.138315
C123  C     C_3   0.717571 0.413910 0.458965 0.143325
C124  C     C_3   0.766993 0.911285 0.575927 0.138263
C125  C     C_3   0.217536 0.913920 0.459053 0.143358
C126  C     C_R   0.559172 0.440113 0.499752 0.568334
C127  C     C_R   0.441219 0.440088 0.499851 0.555085
C128  C     C_R   0.059173 0.940114 0.499752 0.568339
Cu1   Cu    Cu3+1 0.219120 0.280920 0.500000 0.987747
Cu2   Cu    Cu3+1 0.458970 0.500000 0.582030 1.029348
Cu3   Cu    Cu3+1 0.041030 0.000000 0.417970 1.002526
Cu4   Cu    Cu3+1 0.958970 0.000000 0.582030 1.029423
Cu5   Cu    Cu3+1 0.780880 0.280920 0.500000 0.992900
Cu6   Cu    Cu3+1 0.719120 0.780920 0.500000 0.987128
Cu7   Cu    Cu3+1 0.280880 0.780920 0.500000 0.993718
Cu8   Cu    Cu3+1 0.280880 0.219080 0.500020 1.006978
Cu9   Cu    Cu3+1 0.719120 0.219080 0.499980 1.002995
Cu10  Cu    Cu3+1 0.780880 0.719080 0.500020 1.006269
Cu11  Cu    Cu3+1 0.219120 0.719080 0.499980 1.003615
Cu12  Cu    Cu3+1 0.541030 0.500000 0.417970 1.002605
H1    H     H_    0.468840 0.180050 0.075759 0.123831
H2    H     H_    0.968704 0.185846 0.320911 0.162074
H3    H     H_    0.640545 0.707045 0.413037 0.154343
H4    H     H_    0.468768 0.686050 0.321197 0.160331
H5    H     H_    0.066490 0.211127 0.054918 0.340733
H6    H     H_    0.925757 0.250647 0.944687 0.344832
H7    H     H_    0.571494 0.727247 0.055083 0.340530
H8    H     H_    0.427150 0.733761 0.944503 0.345251
H9    H     H_    0.423109 0.301210 0.434241 0.172740
H10   H     H_    0.577393 0.302015 0.565399 0.174038
H11   H     H_    0.923127 0.801222 0.434177 0.172692
H12   H     H_    0.545395 0.180133 0.922815 0.129812
H13   H     H_    0.077410 0.802003 0.565338 0.174100
H14   H     H_    0.510920 0.375889 0.434484 0.332603
H15   H     H_    0.489945 0.376120 0.564068 0.332471
H16   H     H_    0.010937 0.875894 0.434431 0.332592
H17   H     H_    0.989961 0.876115 0.564018 0.332478
H18   H     H_    0.275943 0.431063 0.684690 0.347222
H19   H     H_    0.737613 0.456002 0.336252 0.346871
H20   H     H_    0.775946 0.931022 0.684750 0.347477
H21   H     H_    0.237604 0.956039 0.336341 0.346667
H22   H     H_    0.281733 0.499321 0.557553 0.343026
H23   H     H_    0.970384 0.680211 0.075764 0.123938
H24   H     H_    0.667918 0.492815 0.530307 0.342516
H25   H     H_    0.781674 0.999306 0.557696 0.342976
H26   H     H_    0.167844 0.992810 0.530445 0.342573
H27   H     H_    0.184683 0.415869 0.679507 0.342343
H28   H     H_    0.797578 0.435898 0.393671 0.338927
H29   H     H_    0.684665 0.915830 0.679618 0.342058
H30   H     H_    0.297530 0.935921 0.393815 0.339102
H31   H     H_    0.257557 0.419415 0.537074 0.123276
H32   H     H_    0.707747 0.412741 0.517363 0.122578
H33   H     H_    0.757511 0.919405 0.537186 0.123064
H34   H     H_    0.046938 0.680296 0.922820 0.129923
H35   H     H_    0.207692 0.912738 0.517465 0.122759
H36   H     H_    0.531695 0.319867 0.924217 0.121675
H37   H     H_    0.455158 0.319785 0.077149 0.121417
H38   H     H_    0.030148 0.819708 0.924212 0.121720
H39   H     H_    0.953611 0.819625 0.077144 0.121432
H40   H     H_    0.124463 0.159322 0.642746 0.335649
H41   H     H_    0.732191 0.157779 0.641606 0.334531
H42   H     H_    0.624453 0.659307 0.642756 0.335999
H43   H     H_    0.232139 0.657666 0.641524 0.334556
H44   H     H_    0.055465 0.075368 0.624149 0.177937
H45   H     H_    0.162350 0.126820 0.314339 0.155471
H46   H     H_    0.820032 0.073557 0.621879 0.189931
H47   H     H_    0.555578 0.575294 0.624062 0.178013
H48   H     H_    0.320000 0.573436 0.621724 0.189977
H49   H     H_    0.088546 0.150347 0.409585 0.125520
H50   H     H_    0.024146 0.129344 0.317378 0.155606
H51   H     H_    0.588380 0.650393 0.409810 0.125502
H52   H     H_    0.524218 0.629546 0.317644 0.155186
H53   H     H_    0.214381 0.183254 0.317598 0.147520
H54   H     H_    0.944745 0.208153 0.418565 0.155012
H55   H     H_    0.714206 0.683361 0.317729 0.147555
H56   H     H_    0.000270 0.151432 0.415083 0.126309
H57   H     H_    0.444608 0.708242 0.419043 0.155424
H58   H     H_    0.129004 0.249153 0.945059 0.344650
H59   H     H_    0.877988 0.288520 0.055407 0.345245
H60   H     H_    0.627626 0.766031 0.945238 0.345324
H61   H     H_    0.372999 0.772371 0.055223 0.345156
H62   H     H_    0.662183 0.626923 0.314461 0.155444
H63   H     H_    0.500139 0.651521 0.415540 0.126367
H64   H     H_    0.140719 0.206997 0.412803 0.154298
O1    O     O_R   0.178830 0.231030 0.500000 -0.515214
O2    O     O_R   0.920260 0.045080 0.569280 -0.506332
O3    O     O_R   0.579740 0.545080 0.430720 -0.496624
O4    O     O_R   0.420260 0.545080 0.569280 -0.506310
O5    O     O_R   0.010480 0.045040 0.569280 -0.513626
O6    O     O_R   0.989520 0.045040 0.430720 -0.504588
O7    O     O_R   0.510480 0.545040 0.569280 -0.513564
O8    O     O_R   0.489520 0.545040 0.430720 -0.504607
O9    O     O_R   0.230990 0.178800 0.500020 -0.501405
O10   O     O_R   0.769010 0.178800 0.499980 -0.500854
O11   O     O_R   0.730990 0.678800 0.500020 -0.501486
O12   O     O_R   0.821170 0.231030 0.500000 -0.515871
O13   O     O_R   0.269010 0.678800 0.499980 -0.500962
O14   O     O_R   0.283780 0.276120 0.380310 -0.509481
O15   O     O_R   0.716220 0.276120 0.619690 -0.506552
O16   O     O_R   0.783780 0.776120 0.380310 -0.509461
O17   O     O_R   0.216220 0.776120 0.619690 -0.506553
O18   O     O_R   0.335940 0.223900 0.380320 -0.501328
O19   O     O_R   0.664060 0.223900 0.619680 -0.505794
O20   O     O_R   0.835940 0.723900 0.380320 -0.501337
O21   O     O_R   0.164060 0.723900 0.619680 -0.505787
O22   O     O_R   0.269010 0.321200 0.499990 -0.492568
O23   O     O_R   0.678830 0.731030 0.500000 -0.515070
O24   O     O_R   0.730990 0.321200 0.500010 -0.488011
O25   O     O_R   0.769010 0.821200 0.499990 -0.492639
O26   O     O_R   0.230990 0.821200 0.500010 -0.488029
O27   O     O_R   0.321170 0.268970 0.500010 -0.511269
O28   O     O_R   0.678830 0.268970 0.499990 -0.509856
O29   O     O_R   0.821170 0.768970 0.500010 -0.511096
O30   O     O_R   0.178830 0.768970 0.499990 -0.509887
O31   O     O_R   0.164060 0.276100 0.619690 -0.487895
O32   O     O_R   0.835940 0.276100 0.380310 -0.489993
O33   O     O_R   0.664060 0.776100 0.619690 -0.488529
O34   O     O_R   0.321170 0.731030 0.500000 -0.515829
O35   O     O_R   0.335940 0.776100 0.380310 -0.489264
O36   O     O_R   0.216220 0.223880 0.619710 -0.497989
O37   O     O_R   0.783780 0.223880 0.380290 -0.495476
O38   O     O_R   0.716220 0.723880 0.619710 -0.498681
O39   O     O_R   0.283780 0.723880 0.380290 -0.494905
O40   O     O_R   0.579750 0.454880 0.430680 -0.507084
O41   O     O_R   0.420250 0.454880 0.569320 -0.494467
O42   O     O_R   0.079750 0.954880 0.430680 -0.507193
O43   O     O_R   0.920250 0.954880 0.569320 -0.494360
O44   O     O_3   0.030190 0.229832 0.089521 -0.702920
O45   O     O_R   0.510480 0.454840 0.569230 -0.494741
O46   O     O_3   0.967622 0.260600 0.910406 -0.689459
O47   O     O_3   0.532386 0.742549 0.089650 -0.701128
O48   O     O_3   0.467007 0.747682 0.910262 -0.689257
O49   O     O_3   0.493592 0.352566 0.425831 -0.666288
O50   O     O_3   0.506961 0.353283 0.574045 -0.665599
O51   O     O_3   0.993614 0.852578 0.425759 -0.666319
O52   O     O_3   0.006980 0.853272 0.573979 -0.665519
O53   O     O_3   0.278566 0.457633 0.657025 -0.640378
O54   O     O_3   0.717264 0.474830 0.385793 -0.643752
O55   O     O_3   0.778556 0.957599 0.657108 -0.640262
O56   O     O_R   0.489520 0.454840 0.430770 -0.507656
O57   O     O_3   0.217236 0.974856 0.385900 -0.643799
O58   O     O_3   0.319128 0.482216 0.527872 -0.681161
O59   O     O_3   0.642693 0.472609 0.530466 -0.683987
O60   O     O_3   0.819078 0.982208 0.527990 -0.681115
O61   O     O_3   0.142636 0.972604 0.530569 -0.683882
O62   O     O_3   0.217692 0.394573 0.654145 -0.680914
O63   O     O_3   0.778928 0.412730 0.386653 -0.674000
O64   O     O_3   0.717684 0.894539 0.654225 -0.680339
O65   O     O_3   0.278899 0.912755 0.386760 -0.674343
O66   O     O_3   0.105059 0.132845 0.645166 -0.677677
O67   O     O_R   0.010480 0.954840 0.569230 -0.494684
O68   O     O_3   0.749181 0.130924 0.643044 -0.682933
O69   O     O_3   0.605151 0.632784 0.645099 -0.676802
O70   O     O_3   0.249131 0.630788 0.642893 -0.682940
O71   O     O_3   0.121574 0.239262 0.910460 -0.687404
O72   O     O_3   0.879854 0.269771 0.089678 -0.687377
O73   O     O_3   0.622201 0.752182 0.910594 -0.686739
O74   O     O_3   0.377677 0.757032 0.089535 -0.687817
O75   O     O_R   0.989520 0.954840 0.430770 -0.507662
O76   O     O_R   0.079740 0.045080 0.430720 -0.496650

loop_
_geom_bond_atom_site_label_1
_geom_bond_atom_site_label_2
_ccdc_geom_bond_type
C2    C35   A    
C34   C118  A    
C99   C103  A    
C105  C110  A    
Cu12  O3    S    
C122  O62   S    
Cu5   Cu9   S    
C1    C118  S    
C6    C45   S    
C87   C91   A    
Cu9   O10   S    
C11   O39   A    
C12   H12   S    
C62   C77   A    
C35   C39   A    
C10   O38   A    
Cu5   O24   S    
C90   C112  A    
C35   O68   S    
C9    O37   A    
C81   C84   T    
C63   O34   A    
C7    O8    A    
C38   H44   S    
C40   H47   S    
C15   C19   A    
C5    O6    A    
H7    O47   S    
Cu5   O15   S    
C113  O53   S    
C57   H2    S    
H6    O46   S    
C126  O45   A    
C8    C82   S    
C68   C81   S    
C64   C68   A    
C92   C119  S    
C102  O51   S    
C29   C32   T    
C55   C59   S    
C88   C123  S    
C28   C33   T    
C104  C109  A    
H61   O74   S    
H15   O50   S    
C20   C25   A    
H22   O58   S    
C2    C41   S    
C11   O35   A    
C49   C54   S    
C13   C52   S    
H24   O59   S    
C58   H55   S    
C100  C104  A    
C65   C73   A    
C2    C85   A    
C69   O18   A    
C42   C46   A    
Cu6   O25   S    
C77   O73   S    
C37   C42   A    
C58   C96   S    
C23   H38   S    
C80   C86   T    
C116  O57   S    
C33   C72   S    
C5    O2    A    
C64   O48   S    
C39   H46   S    
C61   C66   A    
H26   O61   S    
C31   C70   S    
C113  C122  S    
C88   C92   A    
Cu7   O35   S    
C61   O46   S    
Cu7   O26   S    
C12   C17   A    
C92   C97   A    
C97   H10   S    
C91   C117  S    
C103  C108  A    
C95   H9    S    
C93   C120  S    
C45   C49   A    
C1    O1    A    
C53   H50   S    
C110  C114  S    
Cu3   O75   S    
C123  H32   S    
C51   H49   S    
H16   O51   S    
C109  C113  S    
C106  C111  A    
H41   O68   S    
C88   C110  A    
C46   C50   A    
C23   C25   A    
H59   O72   S    
C14   H1    S    
Cu2   Cu12  S    
C26   C31   T    
C3    C106  S    
C34   C38   A    
C21   C22   A    
C27   C30   T    
C103  O52   S    
C67   C76   A    
Cu2   O7    S    
C40   C45   A    
C3    O43   A    
H30   O65   S    
C22   H37   S    
Cu7   O17   S    
C78   C83   T    
Cu2   O41   S    
C119  O24   A    
C90   C94   A    
C32   C71   S    
C98   H11   S    
C8    O36   A    
C16   H23   S    
C101  C105  A    
C48   C53   S    
C74   C118  A    
Cu8   O27   S    
C127  O56   A    
Cu10  O11   S    
H8    O48   S    
C56   C74   S    
C54   H51   S    
C67   C80   S    
C13   C96   A    
C69   O14   A    
C7    C46   S    
C36   C40   A    
C13   C36   A    
C116  O61   S    
C58   H3    S    
H17   O52   S    
C117  O27   A    
Cu3   O6    S    
C41   O12   A    
C53   C57   S    
C95   C100  A    
H43   O70   S    
C47   C51   S    
C6    O7    A    
C61   C73   A    
C98   C102  A    
C124  O64   S    
C52   O11   A    
C59   C107  S    
C4    O5    A    
C108  C112  A    
C125  O65   S    
Cu12  O40   S    
Cu5   O32   S    
Cu1   O22   S    
C19   C23   A    
C114  O59   S    
C94   C121  S    
Cu1   O14   S    
C66   C79   S    
Cu3   O42   S    
H21   O57   S    
C120  O29   A    
C79   C82   T    
Cu1   Cu8   S    
Cu1   O1    S    
C60   C65   A    
Cu11  O13   S    
C52   O23   A    
C3    O75   A    
Cu10  O20   S    
C16   C20   A    
C21   H36   S    
C55   H63   S    
Cu11  O30   S    
C24   C37   A    
C64   C76   A    
H25   O60   S    
Cu4   O67   S    
C24   C107  A    
C10   O33   A    
C108  C128  S    
C19   C28   S    
C114  O54   S    
C6    O3    A    
C72   O17   A    
C119  O28   A    
C9    C83   S    
H42   O69   S    
C87   C109  A    
C114  C123  S    
C62   C67   A    
C71   O20   A    
C62   O47   S    
C89   C124  S    
C5    C44   S    
C12   C14   A    
C59   H4    S    
C60   O44   S    
H19   O54   S    
C116  C125  S    
Cu8   O36   S    
C37   O70   S    
C126  O40   A    
C50   C107  A    
C4    O76   A    
C128  O67   A    
C51   H45   S    
Cu1   O31   S    
C72   O21   A    
C17   C26   S    
C100  O49   S    
C125  H35   S    
H28   O63   S    
C36   O69   S    
C112  C116  S    
C30   C69   S    
Cu11  O39   S    
Cu4   O2    S    
Cu12  O8    S    
C70   O19   A    
Cu8   O9    S    
C54   C58   S    
Cu2   O45   S    
C42   H48   S    
C68   C77   A    
C124  H33   S    
C89   C111  A    
C121  O26   A    
H29   O64   S    
C115  C124  S    
Cu12  O56   S    
C15   H34   S    
C75   O71   S    
C18   C22   A    
Cu5   O12   S    
C14   C18   A    
C18   C27   S    
C51   C56   S    
C47   C74   A    
C7    O4    A    
Cu10  O38   S    
C120  O25   A    
Cu6   Cu10  S    
C87   C122  S    
C25   H39   S    
Cu4   O43   S    
C39   C44   A    
H58   O71   S    
C4    C43   S    
C24   C63   S    
H18   O53   S    
C105  C126  S    
C11   C86   S    
Cu7   Cu11  S    
C60   C75   A    
C50   C55   S    
C121  O30   A    
Cu7   O34   S    
C76   O74   S    
C57   H54   S    
Cu11  O21   S    
C128  O42   A    
Cu6   O23   S    
C63   O13   A    
C101  O50   S    
Cu4   O5    S    
H5    O44   S    
Cu9   O37   S    
C38   C43   A    
C115  O55   S    
C55   H52   S    
C1    O9    A    
C41   O10   A    
C104  C127  S    
C94   C99   A    
C59   H57   S    
C15   C16   A    
Cu6   O16   S    
C66   C75   A    
C99   H13   S    
C70   O15   A    
C10   C84   S    
Cu6   O33   S    
C90   C125  S    
C57   C85   S    
C102  C106  A    
C113  O58   S    
H20   O55   S    
C49   C96   A    
C89   C93   A    
Cu3   Cu4   S    
C117  O22   A    
C97   C101  A    
H27   O62   S    
C127  O41   A    
Cu2   O4    S    
C56   H64   S    
C71   O16   A    
C122  H31   S    
C91   C95   A    
C56   H53   S    
C8    O31   A    
C123  O63   S    
Cu8   O18   S    
C115  O60   S    
C20   C29   S    
H60   O73   S    
C53   H56   S    
C48   C85   A    
C34   O66   S    
Cu10  O29   S    
C111  C115  S    
C65   C78   S    
C73   O72   S    
Cu3   O76   S    
Cu9   O19   S    
Cu9   O28   S    
C43   C47   A    
C93   C98   A    
H40   O66   S    
C44   C48   A    
C54   H62   S    
C9    O32   A    
H14   O49   S    
C17   C21   A    
