data_mof_unit_21081.cif
_audit_creation_date              2012-12-10T17:18:58-0500
_audit_creation_method            fapswitch 2.2
_symmetry_space_group_name_H-M    P1
_symmetry_Int_Tables_number       1
_space_group_crystal_system       triclinic
_cell_length_a                    10.183504
_cell_length_b                    10.840305
_cell_length_c                    13.649052
_cell_angle_alpha                 92.013579
_cell_angle_beta                  100.533717
_cell_angle_gamma                 95.950169
_cell_volume                      1471.12105255

loop_
_atom_site_label
_atom_site_type_symbol
_atom_type_description
_atom_site_fract_x
_atom_site_fract_y
_atom_site_fract_z
_atom_type_partial_charge
C1    C     C_R   0.052149 0.732098 0.491152 0.950264
C2    C     C_2   0.999026 0.063552 0.471340 -0.145412
C3    C     C_2   0.430887 0.511439 0.508216 -0.137603
C4    C     C_2   0.569104 0.488788 0.491525 -0.140961
C5    C     C_R   0.093400 0.510978 0.685817 0.873815
C6    C     C_R   0.905061 0.484022 0.314274 0.868614
C7    C     C_R   0.138866 0.502385 0.792801 -0.063234
C8    C     C_R   0.847070 0.453588 0.209288 -0.061540
C9    C     C_R   0.110968 0.527885 0.964129 -0.213224
C10   C     C_R   0.847607 0.350736 0.049196 -0.206462
C11   C     C_R   0.061722 0.535484 0.862613 -0.197908
C12   C     C_R   0.945622 0.267475 0.503981 0.949005
C13   C     C_R   0.915134 0.393033 0.144783 -0.215698
C14   C     C_R   0.261304 0.456159 0.824467 -0.266589
C15   C     C_R   0.712800 0.471195 0.177926 -0.262859
C16   C     C_R   0.311560 0.445393 0.925457 0.094979
C17   C     C_R   0.640481 0.420339 0.086529 0.093455
C18   C     C_R   0.236753 0.485974 0.996137 0.173958
C19   C     C_R   0.710698 0.364706 0.019388 0.174132
C20   C     C_R   0.439990 0.406158 0.957692 0.067228
C21   C     C_R   0.501404 0.429731 0.058831 0.070007
C22   C     C_R   0.422119 0.462597 0.128762 -0.231719
C23   C     C_R   0.510498 0.347376 0.892197 -0.232727
C24   C     C_R   0.290668 0.488160 0.097589 -0.245310
C25   C     C_R   0.643286 0.324924 0.923553 -0.237352
C26   C     C_2   0.078296 0.863215 0.478274 -0.385359
C27   C     C_2   0.911038 0.134735 0.498453 -0.383281
C28   C     C_2   0.976002 0.931620 0.474148 -0.146523
H1    H     H_    0.233654 0.515701 0.152838 0.150804
H2    H     H_    0.464080 0.314856 0.816968 0.150123
H3    H     H_    0.093455 0.102519 0.452394 0.187907
H4    H     H_    0.875044 0.891382 0.478832 0.189392
H5    H     H_    0.816890 0.095342 0.517425 0.149229
H6    H     H_    0.179026 0.903893 0.473675 0.150020
H7    H     H_    0.578299 0.415437 0.437827 0.163264
H8    H     H_    0.421688 0.584956 0.561756 0.165847
H9    H     H_    0.665082 0.622638 0.589503 0.160957
H10   H     H_    0.334892 0.377312 0.410522 0.157645
H11   H     H_    0.694510 0.280039 0.871614 0.149964
H12   H     H_    0.665608 0.526015 0.226114 0.160670
H13   H     H_    0.319813 0.434542 0.769177 0.162385
H14   H     H_    0.019035 0.376923 0.168516 0.158598
H15   H     H_    0.965385 0.569770 0.838995 0.162035
H16   H     H_    0.052782 0.558295 0.017576 0.153815
H17   H     H_    0.901744 0.306139 0.999126 0.149348
H18   H     H_    0.458984 0.467152 0.208338 0.145522
N1    N     N_2   0.322180 0.446120 0.460900 -0.194650
N2    N     N_2   0.677820 0.553880 0.539100 -0.192044
O1    O     O_R   0.935190 0.693030 0.507870 -0.609314
O2    O     O_R   0.064810 0.306970 0.492130 -0.610369
O3    O     O_R   0.142080 0.658430 0.482770 -0.607735
O4    O     O_R   0.857920 0.341570 0.517230 -0.608507
O5    O     O_R   0.969700 0.527180 0.651960 -0.610074
O6    O     O_R   0.030300 0.472820 0.348040 -0.615396
O7    O     O_R   0.176600 0.492580 0.626860 -0.613211
O8    O     O_R   0.823400 0.507420 0.373140 -0.613936
Zn1   Zn    Zn3+2 0.861850 0.523100 0.516760 0.934910
Zn2   Zn    Zn3+2 0.138150 0.476900 0.483240 0.931109

loop_
_geom_bond_atom_site_label_1
_geom_bond_atom_site_label_2
_ccdc_geom_bond_type
C6    C8    S    
C5    C7    S    
C11   H15   S    
C8    C13   A    
C9    C11   A    
C12   O4    A    
C26   C28   D    
C20   C23   A    
C10   C19   A    
C16   C20   A    
C20   C21   A    
C10   H17   S    
C4    H7    S    
N2    Zn1   S    
O3    Zn2   S    
C21   C22   A    
C27   H5    S    
H9    N2    S    
C7    C11   A    
C1    O3    A    
H10   N1    S    
C2    C27   D    
C3    H8    S    
C6    O6    A    
C14   H13   S    
C18   C24   A    
C5    O5    A    
C13   H14   S    
C22   H18   S    
C5    O7    A    
C8    C15   A    
C22   C24   A    
C23   C25   A    
C4    N2    D    
C1    C26   S    
C19   C25   A    
C14   C16   A    
C15   H12   S    
O4    Zn1   S    
C12   C27   S    
C3    C4    S    
O2    Zn2   S    
C23   H2    S    
C9    C18   A    
C28   H4    S    
O1    Zn1   S    
O8    Zn1   S    
C16   C18   A    
O6    Zn2   S    
O7    Zn2   S    
C3    N1    D    
C15   C17   A    
C12   O2    A    
O5    Zn1   S    
C24   H1    S    
C9    H16   S    
C2    C28   S    
C17   C19   A    
C1    O1    A    
C26   H6    S    
C7    C14   A    
C25   H11   S    
C6    O8    A    
C2    H3    S    
N1    Zn2   S    
C10   C13   A    
C17   C21   A    
