data_mof_unit_45802.cif
_audit_creation_date              2012-12-10T18:47:50-0500
_audit_creation_method            fapswitch 2.2
_symmetry_space_group_name_H-M    P1
_symmetry_Int_Tables_number       1
_space_group_crystal_system       triclinic
_cell_length_a                    9.855494
_cell_length_b                    10.666511
_cell_length_c                    15.51417
_cell_angle_alpha                 90.140563
_cell_angle_beta                  67.791592
_cell_angle_gamma                 89.853151
_cell_volume                      1509.90356011

loop_
_atom_site_label
_atom_site_type_symbol
_atom_type_description
_atom_site_fract_x
_atom_site_fract_y
_atom_site_fract_z
_atom_type_partial_charge
C1    C     C_R   0.500773 0.739735 0.498369 0.878775
C2    C     C_R   0.499220 0.260261 0.501641 0.879130
C3    C     C_R   0.356466 0.631824 0.090721 -0.226828
C4    C     C_R   0.684381 0.518522 0.892066 -0.223986
C5    C     C_R   0.255052 0.647158 0.049005 -0.238455
C6    C     C_R   0.786334 0.503448 0.933156 -0.241444
C7    C     C_R   0.554205 0.933117 0.557754 -0.237421
C8    C     C_R   0.445749 0.066857 0.442286 -0.239222
C9    C     C_R   0.553343 0.061908 0.561111 0.000718
C10   C     C_R   0.446673 0.938072 0.438894 0.002285
C11   C     C_R   0.499161 0.127814 0.502578 -0.078699
C12   C     C_R   0.500824 0.872167 0.497443 -0.078718
C13   C     C_R   0.964397 0.425907 0.439292 -0.070064
C14   C     C_R   0.035567 0.574021 0.560771 -0.072271
C15   C     C_R   0.108142 0.425874 0.439347 -0.057527
C16   C     C_R   0.891809 0.574036 0.560729 -0.061227
C17   C     C_R   0.408561 0.501302 0.676014 0.870695
C18   C     C_R   0.591540 0.501957 0.324024 0.869177
C19   C     C_R   0.353742 0.520954 0.776386 -0.055458
C20   C     C_R   0.649255 0.511764 0.222855 -0.058569
C21   C     C_R   0.183895 0.617739 0.916804 -0.221546
C22   C     C_R   0.841833 0.483713 0.071605 -0.215799
C23   C     C_R   0.217876 0.577605 0.825289 -0.208988
C24   C     C_R   0.795345 0.483243 0.168268 -0.199254
C25   C     C_R   0.452446 0.501814 0.819759 -0.254730
C26   C     C_R   0.552913 0.547927 0.180828 -0.252398
C27   C     C_R   0.427080 0.552187 0.907436 0.092906
C28   C     C_R   0.596995 0.550288 0.084170 0.093895
C29   C     C_R   0.287795 0.605619 0.958213 0.175554
C30   C     C_R   0.742787 0.513666 0.029258 0.175743
C31   C     C_R   0.536174 0.548431 0.946070 0.070544
C32   C     C_R   0.496160 0.577714 0.041420 0.065619
H1    H     H_    0.149714 0.689763 0.088534 0.155539
H2    H     H_    0.898178 0.478491 0.889921 0.151946
H3    H     H_    0.440732 0.566971 0.225098 0.166282
H4    H     H_    0.550895 0.448944 0.782614 0.164993
H5    H     H_    0.871628 0.456177 0.200122 0.156764
H6    H     H_    0.140790 0.594581 0.792005 0.151903
H7    H     H_    0.078504 0.661541 0.954157 0.148510
H8    H     H_    0.953392 0.455913 0.030172 0.152274
H9    H     H_    0.324273 0.667331 0.160809 0.164180
H10   H     H_    0.725490 0.509142 0.817267 0.148580
H11   H     H_    0.593700 0.879999 0.603260 0.151864
H12   H     H_    0.406215 0.119971 0.396800 0.150641
H13   H     H_    0.939027 0.366667 0.390727 0.124700
H14   H     H_    0.060896 0.633181 0.609397 0.123772
H15   H     H_    0.191486 0.366466 0.390841 0.128198
H16   H     H_    0.808413 0.633326 0.609325 0.127717
N1    N     N_R   0.142780 0.500030 0.500020 -0.077477
N2    N     N_R   0.857220 0.499970 0.499980 -0.077282
O1    O     O_R   0.385370 0.683250 0.500010 -0.611052
O2    O     O_R   0.614630 0.316750 0.499990 -0.610571
O3    O     O_R   0.614700 0.683220 0.500000 -0.617380
O4    O     O_R   0.385300 0.316780 0.500000 -0.616611
O5    O     O_R   0.319830 0.500020 0.632250 -0.618281
O6    O     O_R   0.680170 0.499980 0.367750 -0.618165
O7    O     O_R   0.549160 0.499990 0.632240 -0.616579
O8    O     O_R   0.450840 0.500010 0.367760 -0.618944
Zn1   Zn    Zn3+2 0.346870 0.500020 0.500000 0.954220
Zn2   Zn    Zn3+2 0.653130 0.499980 0.500000 0.955138
C33   C     C_1   0.602946 0.123616 0.627029 0.172708
N3    N     N_1   0.642537 0.173082 0.679743 -0.206001
C34   C     C_1   0.397160 0.876414 0.372914 0.175664
N4    N     N_1   0.357618 0.827056 0.320140 -0.219688

loop_
_geom_bond_atom_site_label_1
_geom_bond_atom_site_label_2
_ccdc_geom_bond_type
C19   C23   A    
C14   C16   A    
C7    H11   S    
C27   C29   A    
C23   H6    S    
C1    O1    A    
C17   O5    A    
C26   C28   A    
C10   C34   S    
N1    Zn1   S    
C13   C15   A    
C18   O6    A    
C3    C5    A    
N2    Zn2   S    
C16   H16   S    
C28   C30   A    
C24   H5    S    
C22   H8    S    
C14   H14   S    
C13   H13   S    
C9    C11   A    
C8    H12   S    
C7    C12   A    
C1    C12   S    
C2    O2    A    
O2    Zn2   S    
C8    C11   A    
C9    C33   S    
C2    C11   S    
C10   C12   A    
C8    C10   A    
C17   C19   S    
O3    Zn2   S    
C16   N2    A    
O5    Zn1   S    
O4    Zn1   S    
C15   N1    A    
C21   C23   A    
C3    C32   A    
C19   C25   A    
C4    H10   S    
C22   C24   A    
C4    C31   A    
O1    Zn1   S    
C33   N3    T    
C25   H4    S    
C27   C31   A    
C13   N2    A    
C14   N1    A    
C5    C29   A    
C20   C24   A    
C26   H3    S    
C28   C32   A    
O6    Zn2   S    
C18   C20   S    
C4    C6    A    
C2    O4    A    
C7    C9    A    
C1    O3    A    
C15   H15   S    
C3    H9    S    
O7    Zn2   S    
C22   C30   A    
C6    C30   A    
O8    Zn1   S    
C21   C29   A    
C21   H7    S    
C18   O8    A    
C31   C32   A    
C6    H2    S    
C17   O7    A    
C34   N4    T    
C20   C26   A    
C25   C27   A    
C5    H1    S    
