data_mof_unit_50356.cif
_audit_creation_date              2012-12-10T16:55:02-0500
_audit_creation_method            fapswitch 2.2
_symmetry_space_group_name_H-M    P1
_symmetry_Int_Tables_number       1
_space_group_crystal_system       triclinic
_cell_length_a                    8.059602
_cell_length_b                    8.586777
_cell_length_c                    15.698562
_cell_angle_alpha                 91.28699
_cell_angle_beta                  85.454207
_cell_angle_gamma                 91.768349
_cell_volume                      1082.28297868

loop_
_atom_site_label
_atom_site_type_symbol
_atom_type_description
_atom_site_fract_x
_atom_site_fract_y
_atom_site_fract_z
_atom_type_partial_charge
C1    C     C_R   0.542710 0.792388 0.497484 0.927338
C2    C     C_2   0.444103 0.047342 0.524339 -0.219275
C3    C     C_R   0.500846 0.498093 0.660528 0.895792
C4    C     C_R   0.457555 0.207359 0.505155 0.897918
C5    C     C_R   0.499265 0.502499 0.339461 0.874531
C6    C     C_3   0.359557 0.615755 0.954463 -0.223939
C7    C     C_3   0.680157 0.574066 0.941296 0.201357
C8    C     C_3   0.674701 0.587331 0.044136 0.126499
C9    C     C_1   0.498310 0.510722 0.251067 -0.148754
C10   C     C_3   0.505174 0.504700 0.916433 0.044827
C11   C     C_2   0.189883 0.571081 0.922043 0.942367
C12   C     C_3   0.359866 0.613201 0.056018 -0.259453
C13   C     C_2   0.325824 0.001797 0.598739 0.922177
C14   C     C_2   0.022061 0.401979 0.397972 1.115849
C15   C     C_2   0.978540 0.595854 0.602651 1.128560
C16   C     C_2   0.382761 0.783853 0.921929 0.884503
C17   C     C_3   0.504094 0.511958 0.083444 0.203283
C18   C     C_3   0.481247 0.335095 0.052761 0.205237
C19   C     C_3   0.474695 0.334019 0.952538 -0.176917
C20   C     C_1   0.500181 0.515080 0.175815 -0.016476
C21   C     C_1   0.504182 0.496453 0.824195 0.017169
C22   C     C_1   0.503077 0.495230 0.748961 -0.051895
C23   C     C_2   0.559114 0.953732 0.484716 -0.129293
H1    H     H_    0.384252 0.731935 0.081549 0.213081
H2    H     H_    0.100032 0.027015 0.662013 0.361509
H3    H     H_    0.070692 0.439336 0.272004 0.332013
H4    H     H_    0.864633 0.769357 0.670707 0.327115
H5    H     H_    0.318402 0.005683 0.943722 0.339106
H6    H     H_    0.811033 0.452902 0.839697 0.240790
H7    H     H_    0.827790 0.370948 0.935612 0.228226
H8    H     H_    0.740111 0.717239 0.836446 0.220116
H9    H     H_    0.808134 0.791755 0.926835 0.254359
H10   H     H_    0.677341 0.763482 0.139814 0.186497
H11   H     H_    0.620725 0.828904 0.045909 0.201889
H12   H     H_    0.347530 0.293545 0.939323 0.206160
H13   H     H_    0.917305 0.552697 0.046272 0.227976
H14   H     H_    0.818864 0.523170 0.140960 0.212100
H15   H     H_    0.548492 0.200318 0.845638 0.223730
H16   H     H_    0.573667 0.113083 0.936678 0.222662
H17   H     H_    0.328163 0.256570 0.157314 0.212014
H18   H     H_    0.300178 0.157207 0.066986 0.211497
H19   H     H_    0.077423 0.763924 0.974551 0.316043
H20   H     H_    0.146159 0.472637 0.071451 0.220229
H21   H     H_    0.123250 0.661775 0.107273 0.198691
H22   H     H_    0.576215 0.122347 0.086430 0.187888
H23   H     H_    0.722581 0.239936 0.040924 0.215637
H24   H     H_    0.798672 0.981409 0.435244 0.255655
H25   H     H_    0.659033 0.945709 0.361566 0.171897
N1    N     N_2   0.950340 0.457950 0.477370 -0.190951
N2    N     N_3   0.585892 0.220840 0.907284 -0.489023
N3    N     N_3   0.322098 0.269141 0.091521 -0.474284
N4    N     N_2   0.049660 0.542050 0.522630 -0.197808
N5    N     N_3   0.201658 0.566771 0.102006 -0.448786
N6    N     N_3   0.615261 0.239420 0.082120 -0.445751
N7    N     N_3   0.679918 0.007244 0.418173 -0.404529
N8    N     N_3   0.816952 0.475520 0.905078 -0.348882
N9    N     N_3   0.709902 0.728788 0.902299 -0.431585
N10   N     N_3   0.697360 0.751892 0.073418 -0.488603
N11   N     N_3   0.811188 0.502543 0.075448 -0.464307
O1    O     O_R   0.389240 0.738570 0.505550 -0.624196
O2    O     O_R   0.061619 0.676619 0.931391 -0.800922
O3    O     O_2   0.369315 0.913782 0.652479 -0.588373
O4    O     O_R   0.167208 0.064535 0.608657 -0.735773
O5    O     O_2   0.079297 0.271730 0.392344 -0.630750
O6    O     O_R   0.018597 0.492761 0.325401 -0.805116
O7    O     O_2   0.985711 0.516437 0.665829 -0.606829
O8    O     O_R   0.909391 0.743106 0.610068 -0.789706
O9    O     O_2   0.411045 0.807371 0.845398 -0.572082
O10   O     O_R   0.343916 0.910281 0.976550 -0.891238
O11   O     O_R   0.678400 0.711630 0.491050 -0.595586
O12   O     O_R   0.355360 0.513470 0.630110 -0.569946
O13   O     O_R   0.644510 0.486530 0.615610 -0.637559
O14   O     O_R   0.321600 0.288370 0.508950 -0.564090
O15   O     O_R   0.610760 0.261430 0.494450 -0.602006
O16   O     O_R   0.355490 0.513470 0.384390 -0.618290
O17   O     O_R   0.644640 0.486530 0.369890 -0.608129
O18   O     O_2   0.167423 0.452348 0.879821 -0.592963
Zn1   Zn    Zn3+2 0.306930 0.517990 0.509680 1.053308
Zn2   Zn    Zn3+2 0.693070 0.482010 0.490320 1.016467

loop_
_geom_bond_atom_site_label_1
_geom_bond_atom_site_label_2
_ccdc_geom_bond_type
H25   N7    S    
H10   N10   S    
C7    C10   S    
C3    O12   A    
H5    O10   S    
O17   Zn2   S    
H13   N11   S    
C7    C8    S    
O1    Zn1   S    
H9    N9    S    
O13   Zn2   S    
C8    N11   S    
C6    C12   S    
C14   N1    S    
C17   C20   S    
C18   C19   S    
H2    O4    S    
C2    C13   S    
C11   O18   D    
C8    N10   S    
H21   N5    S    
H20   N5    S    
C13   O3    D    
C12   C17   S    
O14   Zn1   S    
C16   O9    D    
C4    O15   A    
C12   N5    S    
C15   O8    S    
C21   C22   T    
C7    N8    S    
N4    Zn1   S    
C18   N3    S    
C10   C21   S    
C1    O1    A    
C6    C11   S    
C15   O7    D    
H7    N8    S    
N1    Zn2   S    
C5    O16   A    
C2    C4    S    
C5    C9    S    
C9    C20   T    
C13   O4    S    
C10   C19   S    
N1    N4    D    
C14   O5    D    
H23   N6    S    
C17   C18   S    
C15   N4    S    
H19   O2    S    
C4    O14   A    
H14   N11   S    
H22   N6    S    
C1    C23   S    
O15   Zn2   S    
H24   N7    S    
O11   Zn2   S    
H3    O6    S    
C16   O10   S    
C1    O11   A    
C11   O2    S    
C6    C10   S    
C23   N7    S    
H15   N2    S    
H6    N8    S    
H17   N3    S    
C12   H1    S    
C8    C17   S    
H8    N9    S    
C5    O17   A    
C3    O13   A    
C19   H12   S    
C19   N2    S    
C14   O6    S    
C7    N9    S    
O16   Zn1   S    
H4    O8    S    
C18   N6    S    
C6    C16   S    
H16   N2    S    
C2    C23   D    
H11   N10   S    
C3    C22   S    
H18   N3    S    
O12   Zn1   S    
