data_mof_unit_32086.cif
_audit_creation_date              2012-12-11T15:56:41-0500
_audit_creation_method            fapswitch 2.2
_symmetry_space_group_name_H-M    P1
_symmetry_Int_Tables_number       1
_space_group_crystal_system       triclinic
_cell_length_a                    14.621062
_cell_length_b                    7.16623
_cell_length_c                    13.608065
_cell_angle_alpha                 90.0
_cell_angle_beta                  99.879675
_cell_angle_gamma                 90.000013
_cell_volume                      1404.67976694

loop_
_atom_site_label
_atom_site_type_symbol
_atom_type_description
_atom_site_fract_x
_atom_site_fract_y
_atom_site_fract_z
_atom_type_partial_charge
O1    O     O_R   0.336930 0.638190 0.166330 -0.507013
O2    O     O_R   0.663070 0.361810 0.833670 -0.500828
O3    O     O_R   0.163070 0.138190 0.333670 -0.507014
O4    O     O_R   0.836930 0.861810 0.666330 -0.500829
O5    O     O_R   0.147900 0.305430 0.139630 -0.519595
O6    O     O_R   0.852100 0.694570 0.860370 -0.511953
O7    O     O_R   0.352100 0.805430 0.360370 -0.519596
O8    O     O_R   0.647900 0.194570 0.639630 -0.511954
C1    C     C_R   0.115152 0.477613 0.113049 0.769032
C2    C     C_R   0.884740 0.522372 0.887080 0.733274
C3    C     C_R   0.384848 0.977613 0.386951 0.769032
C4    C     C_R   0.615260 0.022372 0.612920 0.733280
O9    O     O_R   0.335280 0.308290 0.154310 -0.539034
O10   O     O_R   0.664720 0.691710 0.845690 -0.545905
O11   O     O_R   0.164720 0.808290 0.345690 -0.539034
O12   O     O_R   0.835280 0.191710 0.654310 -0.545904
O13   O     O_R   0.351790 0.140890 0.348460 -0.539500
O14   O     O_R   0.648210 0.859110 0.651540 -0.545067
O15   O     O_R   0.148210 0.640890 0.151540 -0.539500
O16   O     O_R   0.851790 0.359110 0.848460 -0.545067
C5    C     C_R   0.366001 0.477389 0.135373 0.772385
C6    C     C_R   0.634022 0.522666 0.864683 0.768285
C7    C     C_R   0.133999 0.977389 0.364627 0.772386
C8    C     C_R   0.865978 0.022666 0.635317 0.768286
O17   O     O_3   0.255200 0.472570 0.313680 -0.373291
O18   O     O_3   0.744800 0.527430 0.686320 -0.367514
O19   O     O_3   0.244800 0.972570 0.186320 -0.373289
O20   O     O_3   0.755200 0.027430 0.813680 -0.367512
V1    V     V_3+5 0.249040 0.196590 0.238190 1.667279
V2    V     V_3+5 0.750960 0.803410 0.761810 1.626285
V3    V     V_3+5 0.250960 0.696590 0.261810 1.667279
V4    V     V_3+5 0.749040 0.303410 0.738190 1.626285
C9    C     C_R   0.072915 0.872175 0.515167 -0.231585
C10   C     C_R   0.927172 0.128331 0.484799 -0.249219
C11   C     C_R   0.427086 0.372173 0.984834 -0.231584
C12   C     C_R   0.572827 0.628333 0.015199 -0.249222
H1    H     H_    0.130229 0.774418 0.527839 0.194742
H2    H     H_    0.869814 0.225939 0.471985 0.200774
H3    H     H_    0.369772 0.274415 0.972162 0.194743
H4    H     H_    0.630185 0.725942 0.028013 0.200776
C13   C     C_R   0.011956 0.882683 0.584404 0.487253
C14   C     C_R   0.988228 0.117972 0.415679 0.492639
C15   C     C_R   0.488044 0.382682 0.915596 0.487252
C16   C     C_R   0.511771 0.617974 0.084320 0.492638
C17   C     C_R   0.936759 0.011087 0.568522 -0.243256
C18   C     C_R   0.063302 0.989291 0.431467 -0.230365
C19   C     C_R   0.563241 0.511087 0.931478 -0.243257
C20   C     C_R   0.436698 0.489291 0.068533 -0.230365
C21   C     C_1   0.534025 0.008179 0.533016 -0.100085
C22   C     C_1   0.466102 0.991795 0.466838 -0.084350
C23   C     C_1   0.965975 0.508179 0.966984 -0.100085
C24   C     C_1   0.033897 0.491795 0.033162 -0.084348
S1    S     S_3+6 0.035733 0.738382 0.691588 0.016328
O21   O     O_2   0.134972 0.673286 0.707197 -0.316428
O22   O     O_2   0.019463 0.844034 0.782434 -0.343984
O23   O     O_3   0.965135 0.551650 0.674345 -0.501448
H5    H     H_    0.995144 0.456913 0.722305 0.347967
S2    S     S_3+6 0.964141 0.261434 0.308235 -0.004285
O24   O     O_2   0.028320 0.426782 0.321535 -0.344553
O25   O     O_2   0.978386 0.152958 0.217517 -0.353227
O26   O     O_3   0.853753 0.337768 0.291989 -0.497019
H6    H     H_    0.846981 0.419433 0.232438 0.373255
S3    S     S_3+6 0.464268 0.238379 0.808413 0.016327
O27   O     O_2   0.365029 0.173280 0.792805 -0.316430
O28   O     O_2   0.480536 0.344030 0.717567 -0.343982
O29   O     O_3   0.534867 0.051650 0.825655 -0.501448
H7    H     H_    0.504855 0.956907 0.777701 0.347968
S4    S     S_3+6 0.535858 0.761439 0.191763 -0.004286
O30   O     O_2   0.471675 0.926783 0.178463 -0.344553
O31   O     O_2   0.521615 0.652963 0.282482 -0.353228
O32   O     O_3   0.646245 0.837780 0.208007 -0.497019
H8    H     H_    0.653016 0.919445 0.267558 0.373256

loop_
_geom_bond_atom_site_label_1
_geom_bond_atom_site_label_2
_ccdc_geom_bond_type
O2    C6    A    
C11   H3    S    
S3    O28   D    
O1    C5    A    
O14   V2    S    
O19   V1    S    
C11   C15   A    
O15   V3    S    
O3    C7    A    
C10   C14   A    
O1    V3    S    
O8    C4    A    
C5    C20   S    
C9    C13   A    
C14   S2    S    
S2    O26   S    
O20   V2    S    
C4    C21   S    
S3    O29   S    
C15   S3    S    
O32   H8    S    
O12   C8    A    
C10   C17   A    
S4    O30   D    
S1    O21   D    
O9    C5    A    
O7    C3    A    
C9    C18   A    
C13   S1    S    
O5    C1    A    
O26   H6    S    
C1    C24   S    
O10   V2    S    
S4    O32   S    
O12   V4    S    
C11   C20   A    
O11   C7    A    
O6    V2    S    
C8    C17   S    
C6    C19   S    
O5    V1    S    
S1    O22   D    
C14   C18   A    
O10   C6    A    
O4    C8    A    
O4    V2    S    
C16   S4    S    
C12   C16   A    
O6    C2    A    
C2    C23   S    
S2    O25   D    
C23   C24   T    
O8    V4    S    
O13   V1    S    
C12   H4    S    
O3    V1    S    
O7    V3    S    
O23   H5    S    
O11   V3    S    
C12   C19   A    
O2    V4    S    
C21   C22   T    
O16   V4    S    
S1    O23   S    
C4    O14   A    
O29   H7    S    
C7    C18   S    
S4    O31   D    
C3    C22   S    
O18   V4    S    
C3    O13   A    
C13   C17   A    
S2    O24   D    
C10   H2    S    
C15   C19   A    
O17   V3    S    
C1    O15   A    
C9    H1    S    
C16   C20   A    
O9    V1    S    
C2    O16   A    
S3    O27   D    
