data_mof_unit_30805.cif
_audit_creation_date              2012-12-10T17:43:36-0500
_audit_creation_method            fapswitch 2.2
_symmetry_space_group_name_H-M    P1
_symmetry_Int_Tables_number       1
_space_group_crystal_system       triclinic
_cell_length_a                    14.870838
_cell_length_b                    10.693041
_cell_length_c                    9.884331
_cell_angle_alpha                 88.573256
_cell_angle_beta                  90.421557
_cell_angle_gamma                 92.501764
_cell_volume                      1569.73593133

loop_
_atom_site_label
_atom_site_type_symbol
_atom_type_description
_atom_site_fract_x
_atom_site_fract_y
_atom_site_fract_z
_atom_type_partial_charge
C1    C     C_R   0.509319 0.260932 0.503435 0.868548
C2    C     C_R   0.183802 0.384559 0.482245 -0.244759
C3    C     C_R   0.231924 0.497738 0.498540 -0.025625
C4    C     C_R   0.327126 0.498905 0.499586 0.858179
C5    C     C_R   0.189817 0.609931 0.513901 -0.259548
C6    C     C_R   0.517393 0.102576 0.772220 0.487299
C7    C     C_R   0.474919 0.036538 0.879576 -0.213171
C8    C     C_R   0.424925 0.926558 0.857097 -0.245616
C9    C     C_R   0.423932 0.875395 0.729381 -0.158878
C10   C     C_R   0.473001 0.934677 0.621675 0.043386
C11   C     C_R   0.506805 0.057965 0.636479 -0.035571
C12   C     C_R   0.909729 0.608287 0.513104 0.156694
C13   C     C_R   0.523018 0.128457 0.513558 -0.122549
C14   C     C_R   0.534486 0.068382 0.391236 -0.218972
C15   C     C_R   0.521853 0.941035 0.385757 -0.217402
C16   C     C_R   0.494022 0.739874 0.498965 0.866959
C17   C     C_R   0.490480 0.873850 0.499686 -0.101790
C18   C     C_R   0.379734 0.336417 0.143142 -0.152830
C19   C     C_R   0.320528 0.256055 0.073979 -0.205750
C20   C     C_R   0.320846 0.255898 0.933931 -0.205880
C21   C     C_R   0.380462 0.335985 0.862271 -0.101548
C22   C     C_R   0.440953 0.419200 0.929004 0.204291
C23   C     C_R   0.947043 0.266108 0.475236 0.499360
C24   C     C_R   0.440838 0.419286 0.073773 0.154561
C25   C     C_R   0.556244 0.577743 0.070109 -0.121313
C26   C     C_R   0.556062 0.577929 0.926803 -0.139224
C27   C     C_R   0.672767 0.497467 0.500410 0.879762
C28   C     C_R   0.816852 0.607655 0.514780 -0.256369
C29   C     C_R   0.767915 0.495284 0.501035 -0.045925
C30   C     C_R   0.809012 0.381952 0.485352 -0.258785
C31   C     C_R   0.902529 0.379371 0.487552 -0.007560
C32   C     C_R   0.952987 0.494037 0.500774 -0.004199
C33   C     C_3   0.658162 0.196587 0.802053 0.069945
C34   C     C_R   0.040856 0.269488 0.469422 -0.314929
C35   C     C_3   0.702704 0.299272 0.888420 -0.291456
C36   C     C_3   0.805128 0.301585 0.883475 -0.969871
C37   C     C_3   0.874210 0.097561 0.582189 0.052238
C38   C     C_3   0.954433 0.049194 0.664293 -0.386768
C39   C     C_3   0.923353 0.962375 0.781445 -0.936734
C40   C     C_R   0.090540 0.382322 0.483756 0.053479
C41   C     C_R   0.046670 0.495247 0.499730 0.052488
C42   C     C_R   0.096729 0.609891 0.513128 0.147631
C43   C     C_R   0.053083 0.722323 0.523996 -0.212885
C44   C     C_R   0.959733 0.721470 0.522404 -0.218715
H1    H     H_    0.782317 0.694281 0.525181 0.124496
H2    H     H_    0.378163 0.328670 0.755070 0.197173
H3    H     H_    0.767706 0.296955 0.472442 0.153978
H4    H     H_    0.601905 0.641387 0.871541 0.152542
H5    H     H_    0.074846 0.183179 0.455151 0.161631
H6    H     H_    0.219160 0.298894 0.470061 0.119881
H7    H     H_    0.229678 0.696596 0.525222 0.121706
H8    H     H_    0.091108 0.810615 0.532323 0.141064
H9    H     H_    0.926293 0.808974 0.527184 0.160561
H10   H     H_    0.551611 0.120177 0.298626 0.172798
H11   H     H_    0.677084 0.103548 0.844402 0.116775
H12   H     H_    0.479343 0.072735 0.980920 0.167102
H13   H     H_    0.681842 0.207872 0.695863 0.133732
H14   H     H_    0.680106 0.392027 0.852576 0.252158
H15   H     H_    0.680815 0.284475 0.995170 0.217773
H16   H     H_    0.830124 0.208241 0.911443 0.265790
H17   H     H_    0.833169 0.370401 0.956587 0.275089
H18   H     H_    0.828948 0.331205 0.781089 0.266820
H19   H     H_    0.836135 0.162386 0.643350 0.126158
H20   H     H_    0.826935 0.017158 0.560313 0.170018
H21   H     H_    0.998955 0.998182 0.597217 0.225151
H22   H     H_    0.994266 0.129581 0.706620 0.217345
H23   H     H_    0.389164 0.878797 0.939684 0.167350
H24   H     H_    0.881621 0.013014 0.852682 0.260315
H25   H     H_    0.982947 0.928071 0.837009 0.271048
H26   H     H_    0.883145 0.880429 0.743693 0.258527
H27   H     H_    0.384375 0.789218 0.715602 0.166971
H28   H     H_    0.535823 0.895531 0.291903 0.166817
H29   H     H_    0.602166 0.641137 0.122908 0.148892
H30   H     H_    0.375420 0.330790 0.250542 0.206388
H31   H     H_    0.274317 0.193235 0.129585 0.154007
H32   H     H_    0.275243 0.192506 0.880337 0.153716
N1    N     N_R   0.499150 0.498800 0.142780 -0.121556
N2    N     N_R   0.499120 0.498720 0.857170 -0.114297
O1    O     O_R   0.500000 0.316780 0.614690 -0.586489
O2    O     O_3   0.900535 0.152776 0.455978 -0.643745
O3    O     O_R   0.499990 0.316750 0.385360 -0.649600
O4    O     O_R   0.367850 0.499980 0.614680 -0.647011
O5    O     O_R   0.367840 0.499960 0.385350 -0.630425
O6    O     O_R   0.500010 0.683250 0.614640 -0.622299
O7    O     O_R   0.500000 0.683220 0.385310 -0.618747
O8    O     O_R   0.632160 0.500040 0.614650 -0.619432
O9    O     O_R   0.632150 0.500020 0.385320 -0.612186
O10   O     O_3   0.564632 0.211688 0.805625 -0.628544
Zn1   Zn    Zn3+2 0.500010 0.500020 0.653130 0.947106
Zn2   Zn    Zn3+2 0.499990 0.499980 0.346870 0.933257

loop_
_geom_bond_atom_site_label_1
_geom_bond_atom_site_label_2
_ccdc_geom_bond_type
C33   H11   S    
C5    C42   A    
C27   C29   S    
C41   C42   A    
C19   C20   A    
C7    C8    A    
C15   H28   S    
C29   C30   A    
O4    Zn1   S    
C12   C28   A    
C35   H14   S    
C25   N1    A    
C28   C29   A    
C33   O10   S    
C30   C31   A    
C43   H8    S    
C10   C17   A    
C1    O3    A    
C16   O6    A    
C6    O10   S    
C20   H32   S    
C35   H15   S    
C18   C19   A    
C39   H24   S    
C2    H6    S    
C44   H9    S    
C38   H22   S    
C8    C9    A    
C32   C41   A    
C18   C24   A    
C23   O2    S    
C9    C10   A    
C25   H29   S    
C26   H4    S    
C18   H30   S    
C13   C14   A    
C12   C32   A    
C7    H12   S    
C36   H18   S    
C37   H19   S    
N2    Zn1   S    
N1    Zn2   S    
C37   O2    S    
C28   H1    S    
C30   H3    S    
C22   N2    A    
C6    C11   A    
C16   C17   S    
C3    C5    A    
C25   C26   A    
C35   C36   S    
C23   C31   A    
C27   O8    A    
C43   C44   A    
C37   C38   S    
C31   C32   A    
C38   H21   S    
C23   C34   A    
C39   H25   S    
C26   N2    A    
C27   O9    A    
O3    Zn2   S    
C40   C41   A    
C14   H10   S    
C16   O7    A    
C1    O1    A    
C34   C40   A    
C1    C13   S    
C42   C43   A    
C36   H17   S    
C37   H20   S    
C21   H2    S    
C15   C17   A    
O5    Zn2   S    
C34   H5    S    
C33   H13   S    
C9    H27   S    
C36   H16   S    
O8    Zn1   S    
O7    Zn2   S    
C6    C7    A    
C19   H31   S    
C2    C3    A    
C12   C44   A    
C11   C13   A    
C38   C39   S    
C4    O5    A    
C33   C35   S    
C39   H26   S    
C22   C24   A    
O1    Zn1   S    
C10   C11   A    
C2    C40   A    
C24   N1    A    
C4    O4    A    
C20   C21   A    
C8    H23   S    
O6    Zn1   S    
O9    Zn2   S    
C14   C15   A    
C5    H7    S    
C21   C22   A    
C3    C4    S    
