data_mof_unit_12730.cif
_audit_creation_date              2012-12-10T19:01:19-0500
_audit_creation_method            fapswitch 2.2
_symmetry_space_group_name_H-M    P1
_symmetry_Int_Tables_number       1
_space_group_crystal_system       triclinic
_cell_length_a                    9.548043
_cell_length_b                    10.867565
_cell_length_c                    15.562593
_cell_angle_alpha                 89.366648
_cell_angle_beta                  74.150974
_cell_angle_gamma                 90.278501
_cell_volume                      1553.30097176

loop_
_atom_site_label
_atom_site_type_symbol
_atom_type_description
_atom_site_fract_x
_atom_site_fract_y
_atom_site_fract_z
_atom_type_partial_charge
C1    C     C_R   0.998907 0.262789 0.501372 0.809628
C2    C     C_R   0.669843 0.522295 0.904753 0.093961
C3    C     C_R   0.769290 0.564314 0.951260 0.165965
C4    C     C_R   0.518961 0.510192 0.950335 0.069926
C5    C     C_R   0.472503 0.528907 0.044183 0.066531
C6    C     C_R   0.575465 0.571345 0.087673 -0.222013
C7    C     C_R   0.720468 0.589507 0.041839 -0.239419
C8    C     C_R   0.412558 0.483483 0.904999 -0.220935
C9    C     C_R   0.266460 0.470369 0.950684 -0.241823
C10   C     C_R   0.220763 0.481502 0.043117 0.168699
C11   C     C_R   0.323617 0.508100 0.091072 0.092520
C12   C     C_R   0.917978 0.501671 0.671827 0.806174
C13   C     C_R   0.072921 0.465418 0.088360 -0.213124
C14   C     C_R   0.025797 0.474558 0.181012 -0.199313
C15   C     C_R   0.274359 0.509552 0.184758 -0.253868
C16   C     C_R   0.111260 0.062910 0.516161 0.049819
C17   C     C_R   0.995984 0.130299 0.502883 -0.078699
C18   C     C_R   0.876078 0.064300 0.489636 -0.215647
C19   C     C_R   0.877101 0.935222 0.488830 -0.215271
C20   C     C_R   0.998716 0.870196 0.500229 -0.118040
C21   C     C_R   0.114011 0.939035 0.513235 0.108811
C22   C     C_3   0.261016 0.932429 0.529068 0.289482
C23   C     C_R   0.000175 0.737389 0.499948 0.822124
C24   C     C_3   0.255840 0.073936 0.534520 -0.523307
C25   C     C_R   0.607860 0.529054 0.424093 0.256397
C26   C     C_R   0.541682 0.459254 0.572276 -0.086655
C27   C     C_R   0.393009 0.459572 0.572361 -0.090437
C28   C     C_R   0.460545 0.528507 0.423947 0.266464
C29   C     C_3   0.478775 0.646821 0.372836 -0.518446
C30   C     C_3   0.637527 0.647379 0.373017 -0.510456
C31   C     C_R   0.081952 0.498716 0.327954 0.794001
C32   C     C_R   0.871836 0.514544 0.769041 -0.047160
C33   C     C_R   0.126882 0.495238 0.229810 -0.047784
C34   C     C_R   0.916924 0.582102 0.906387 -0.216669
C35   C     C_R   0.967969 0.557634 0.815669 -0.185479
C36   C     C_R   0.725403 0.493875 0.814055 -0.249818
Cu1   Cu    Cu3+1 0.140670 0.499980 0.500000 0.953106
Cu2   Cu    Cu3+1 0.859330 0.500020 0.500000 0.937230
H1    H     H_    0.795057 0.623342 0.077832 0.146055
H2    H     H_    0.993821 0.444762 0.052121 0.143844
H3    H     H_    0.782260 0.111648 0.479401 0.161715
H4    H     H_    0.783352 0.887205 0.478794 0.149821
H5    H     H_    0.344413 0.898559 0.469694 0.039546
H6    H     H_    0.247154 0.110259 0.602277 0.214584
H7    H     H_    0.337841 0.120778 0.479006 0.169455
H8    H     H_    0.569861 0.427220 0.631302 0.137819
H9    H     H_    0.311200 0.428395 0.631429 0.137548
H10   H     H_    0.463465 0.636589 0.305460 0.183746
H11   H     H_    0.349733 0.517396 0.224452 0.144317
H12   H     H_    0.414441 0.721252 0.412015 0.204089
H13   H     H_    0.713574 0.635747 0.305444 0.194187
H14   H     H_    0.665778 0.723530 0.412453 0.202014
H15   H     H_    0.911176 0.462035 0.214483 0.151715
H16   H     H_    0.188881 0.449997 0.913240 0.146689
H17   H     H_    0.992449 0.617078 0.941223 0.142321
H18   H     H_    0.081451 0.575133 0.781719 0.151970
H19   H     H_    0.657215 0.454674 0.776519 0.137996
H20   H     H_    0.546744 0.596091 0.156827 0.135452
H21   H     H_    0.437443 0.475769 0.833497 0.134603
N1    N     N_R   0.648210 0.500930 0.499430 -0.185832
N2    N     N_R   0.352300 0.500890 0.499430 -0.182522
O1    O     O_R   0.118810 0.319640 0.500000 -0.576303
O2    O     O_R   0.881230 0.319680 0.499990 -0.588560
O3    O     O_R   0.055580 0.499970 0.629840 -0.587343
O4    O     O_R   0.818000 0.500010 0.629830 -0.592788
O5    O     O_R   0.118770 0.680320 0.500010 -0.565235
O6    O     O_R   0.881190 0.680360 0.500000 -0.587425
O7    O     O_R   0.182000 0.499990 0.370170 -0.587494
O8    O     O_R   0.944420 0.500030 0.370160 -0.585430
O9    O     O_3   0.253600 0.873955 0.611773 -0.543573
C37   C     C_3   0.395102 0.840958 0.614595 0.091008
H22   H     H_    0.465506 0.924286 0.609330 0.136073
H23   H     H_    0.445534 0.776632 0.559801 0.140008
C38   C     C_3   0.386580 0.775236 0.702705 -0.759412
H24   H     H_    0.319212 0.690349 0.708583 0.237667
H25   H     H_    0.497605 0.749327 0.705614 0.203548
H26   H     H_    0.337364 0.836476 0.759463 0.247653

loop_
_geom_bond_atom_site_label_1
_geom_bond_atom_site_label_2
_ccdc_geom_bond_type
C8    C9    A    
C30   H13   S    
C16   C21   A    
C6    H20   S    
C19   C20   A    
C4    C8    A    
C1    O1    A    
C14   C33   A    
Cu1   O1    S    
C25   C28   A    
C26   C27   A    
C29   C30   S    
C38   H25   S    
C24   H7    S    
C32   C36   A    
C23   O5    A    
C28   C29   S    
C5    C11   A    
C3    C7    A    
C8    H21   S    
C5    C6    A    
C12   O3    A    
C27   H9    S    
Cu1   O7    S    
C34   C35   A    
C23   O6    A    
C13   H2    S    
C27   N2    A    
C11   C15   A    
C16   C17   A    
C38   H26   S    
C31   C33   S    
O9    C37   S    
C25   N1    A    
C9    C10   A    
C19   H4    S    
C28   N2    A    
Cu2   O8    S    
C34   H17   S    
C16   C24   S    
C13   C14   A    
C12   C32   S    
C1    O2    A    
C29   H12   S    
C31   O7    A    
C38   H24   S    
C29   H10   S    
C32   C35   A    
C36   H19   S    
C18   H3    S    
C37   H23   S    
C18   C19   A    
C3    C34   A    
C2    C4    A    
Cu1   Cu2   S    
C22   H5    S    
C20   C23   S    
Cu1   O5    S    
C17   C18   A    
Cu2   O6    S    
Cu2   N1    S    
C24   H6    S    
C22   C24   S    
Cu1   O3    S    
Cu2   O2    S    
C2    C36   A    
C25   C30   S    
C30   H14   S    
C35   H18   S    
C4    C5    A    
C10   C13   A    
C37   C38   S    
Cu1   N2    S    
C6    C7    A    
C12   O4    A    
C1    C17   S    
C2    C3    A    
C37   H22   S    
C22   O9    S    
C15   H11   S    
C10   C11   A    
C26   H8    S    
C31   O8    A    
C14   H15   S    
C20   C21   A    
C7    H1    S    
C9    H16   S    
C21   C22   S    
Cu2   O4    S    
C26   N1    A    
C15   C33   A    
