data_mof_unit_32290.cif
_audit_creation_date              2012-12-10T17:03:40-0500
_audit_creation_method            fapswitch 2.2
_symmetry_space_group_name_H-M    P1
_symmetry_Int_Tables_number       1
_space_group_crystal_system       triclinic
_cell_length_a                    10.03698
_cell_length_b                    10.723182
_cell_length_c                    13.134649
_cell_angle_alpha                 90.037161
_cell_angle_beta                  69.956672
_cell_angle_gamma                 89.535644
_cell_volume                      1327.98813915

loop_
_atom_site_label
_atom_site_type_symbol
_atom_type_description
_atom_site_fract_x
_atom_site_fract_y
_atom_site_fract_z
_atom_type_partial_charge
C1    C     C_R   0.501633 0.737220 0.495457 0.899247
C2    C     C_R   0.369395 0.509158 0.822165 -0.118835
C3    C     C_2   0.614039 0.066371 0.479599 -0.294970
C4    C     C_R   0.421025 0.505028 0.704112 0.844048
C5    C     C_2   0.493796 0.132023 0.524258 0.352542
C6    C     C_2   0.616228 0.932815 0.487173 -0.166272
C7    C     C_2   0.507635 0.868215 0.479184 -0.257518
C8    C     C_2   0.106542 0.437493 0.430538 -0.113506
C9    C     C_2   0.958136 0.443075 0.427008 -0.140281
C10   C     C_R   0.498887 0.262903 0.504146 0.800059
C11   C     C_R   0.578845 0.500455 0.295885 0.866137
C12   C     C_R   0.432322 0.515725 0.984562 0.085491
C13   C     C_R   0.761707 0.635575 0.022238 -0.200133
C14   C     C_R   0.626197 0.517873 0.179549 -0.061918
C15   C     C_R   0.241542 0.450207 0.879536 -0.210799
C16   C     C_R   0.205820 0.428619 0.989797 -0.152410
C17   C     C_R   0.301374 0.457793 0.041776 -0.192884
C18   C     C_3   0.326575 0.120076 0.696037 0.108600
C19   C     C_3   0.406526 0.048819 0.758875 -0.366965
C20   C     C_3   0.359535 0.091689 0.876828 -0.951902
C21   C     C_R   0.457332 0.554717 0.877319 0.094363
C22   C     C_R   0.539306 0.536512 0.029987 0.082112
C23   C     C_R   0.658149 0.611681 0.975173 0.175855
C24   C     C_R   0.670113 0.664061 0.875525 -0.262120
C25   C     C_R   0.570831 0.636265 0.827144 -0.205961
C26   C     C_R   0.532022 0.483328 0.128250 -0.251925
C27   C     C_R   0.744297 0.590665 0.125534 -0.205298
H1    H     H_    0.817902 0.618386 0.165223 0.158297
H2    H     H_    0.449278 0.418882 0.169793 0.140096
H3    H     H_    0.171819 0.416652 0.838425 0.156440
H4    H     H_    0.268395 0.436804 0.127085 0.128009
H5    H     H_    0.106547 0.383925 0.034189 0.145437
H6    H     H_    0.583115 0.680270 0.750370 0.164180
H7    H     H_    0.714134 0.111604 0.436661 0.147187
H8    H     H_    0.211395 0.102051 0.735014 0.163169
H9    H     H_    0.339617 0.222537 0.702413 0.120626
H10   H     H_    0.386547 0.947269 0.755987 0.230844
H11   H     H_    0.522360 0.064500 0.720950 0.223509
H12   H     H_    0.708030 0.888394 0.498140 0.172929
H13   H     H_    0.383367 0.192121 0.881304 0.276383
H14   H     H_    0.417556 0.037230 0.920493 0.269475
H15   H     H_    0.243955 0.076862 0.917273 0.261882
H16   H     H_    0.421764 0.912089 0.459265 0.197704
H17   H     H_    0.183420 0.379712 0.370420 0.154428
H18   H     H_    0.078100 0.558277 0.552436 0.158326
H19   H     H_    0.938852 0.395540 0.360523 0.152855
H20   H     H_    0.868322 0.538495 0.564794 0.166799
H21   H     H_    0.757386 0.725132 0.834159 0.145906
H22   H     H_    0.852228 0.693493 0.981383 0.140396
N1    N     N_2   0.148270 0.498670 0.498870 -0.187738
N2    N     N_2   0.852610 0.498640 0.498840 -0.187007
O1    O     O_R   0.386950 0.680940 0.500020 -0.606605
O2    O     O_R   0.613110 0.680900 0.499980 -0.618414
O3    O     O_R   0.330780 0.500000 0.653640 -0.613076
O4    O     O_R   0.556930 0.499960 0.653610 -0.605200
O5    O     O_R   0.386890 0.319100 0.500020 -0.590579
O6    O     O_R   0.613050 0.319060 0.499980 -0.628824
O7    O     O_R   0.443070 0.500040 0.346390 -0.607253
O8    O     O_R   0.669220 0.500000 0.346360 -0.612842
O9    O     O_3   0.367413 0.076924 0.587543 -0.648425
Zn1   Zn    Zn3+2 0.349000 0.500030 0.500020 0.945346
Zn2   Zn    Zn3+2 0.651000 0.499970 0.499980 0.930982

loop_
_geom_bond_atom_site_label_1
_geom_bond_atom_site_label_2
_ccdc_geom_bond_type
C12   C17   A    
C20   H15   S    
C23   C24   A    
C6    C7    D    
O3    Zn1   S    
C7    H16   S    
C14   C27   A    
C16   H5    S    
C11   O7    A    
C10   O5    A    
C18   H8    S    
C2    C4    S    
C19   C20   S    
C5    O9    S    
C8    N1    D    
C3    C6    S    
C2    C21   A    
C20   H14   S    
C5    C10   S    
C14   C26   A    
C2    C15   A    
C16   C17   A    
N2    Zn2   S    
H18   N1    S    
O7    Zn1   S    
C13   H22   S    
C18   O9    S    
C11   C14   S    
C17   H4    S    
C26   H2    S    
C9    H19   S    
O1    Zn1   S    
C22   C23   A    
C4    O4    A    
C22   C26   A    
C20   H13   S    
C1    O1    A    
C11   O8    A    
C15   C16   A    
C24   H21   S    
O4    Zn2   S    
C12   C22   A    
O6    Zn2   S    
C10   O6    A    
C24   C25   A    
C13   C23   A    
C15   H3    S    
C18   C19   S    
O2    Zn2   S    
C19   H11   S    
C27   H1    S    
C6    H12   S    
N1    Zn1   S    
C1    O2    A    
O5    Zn1   S    
C13   C27   A    
O8    Zn2   S    
C21   C25   A    
C19   H10   S    
C3    H7    S    
C4    O3    A    
C1    C7    S    
C18   H9    S    
C12   C21   A    
H20   N2    S    
C8    H17   S    
C25   H6    S    
C8    C9    S    
C3    C5    D    
C9    N2    D    
