data_mof_unit_14354.cif
_audit_creation_date              2012-12-10T18:23:50-0500
_audit_creation_method            fapswitch 2.2
_symmetry_space_group_name_H-M    P1
_symmetry_Int_Tables_number       1
_space_group_crystal_system       triclinic
_cell_length_a                    15.741596
_cell_length_b                    14.954509
_cell_length_c                    14.101823
_cell_angle_alpha                 91.122847
_cell_angle_beta                  88.834481
_cell_angle_gamma                 89.495342
_cell_volume                      3318.21479092

loop_
_atom_site_label
_atom_site_type_symbol
_atom_type_description
_atom_site_fract_x
_atom_site_fract_y
_atom_site_fract_z
_atom_type_partial_charge
Br1   Br    Br    0.323512 0.742774 0.455303 -0.570868
Br2   Br    Br    0.666203 0.255183 0.576472 -0.573240
C1    C     C_R   0.499386 0.327045 0.499293 0.999939
C2    C     C_R   0.491908 0.047196 0.518744 0.052220
C3    C     C_R   0.420330 0.905581 0.492025 0.039286
C4    C     C_R   0.564410 0.094657 0.548211 0.036849
C5    C     C_R   0.633023 0.956149 0.593222 -0.080856
C6    C     C_R   0.342799 0.044991 0.472092 -0.081147
C7    C     C_R   0.632080 0.048900 0.588739 -0.112018
C8    C     C_R   0.345550 0.951969 0.471805 -0.111786
C9    C     C_R   0.439731 0.548870 0.800797 0.056352
C10   C     C_R   0.560278 0.451161 0.199177 0.056698
C11   C     C_R   0.558698 0.450024 0.795217 -0.041438
C12   C     C_R   0.500748 0.672816 0.500959 1.006029
C13   C     C_R   0.441186 0.549836 0.204786 -0.044921
C14   C     C_R   0.559549 0.446364 0.895782 -0.069292
C15   C     C_R   0.440268 0.553439 0.104209 -0.069003
C16   C     C_R   0.338016 0.500488 0.500884 0.980731
C17   C     C_R   0.661985 0.498849 0.499108 0.976622
C18   C     C_R   0.499695 0.499165 0.949392 0.085555
C19   C     C_R   0.500161 0.500691 0.050593 0.084986
C20   C     C_R   0.439296 0.550648 0.901744 -0.035473
C21   C     C_R   0.560601 0.449254 0.098232 -0.035521
C22   C     C_R   0.618655 0.392769 0.944397 -0.043161
C23   C     C_R   0.499651 0.768322 0.504883 -0.130394
C24   C     C_R   0.381056 0.606912 0.055582 -0.041902
C25   C     C_R   0.618370 0.395360 0.044209 -0.126497
C26   C     C_R   0.381429 0.604416 0.955764 -0.126876
C27   C     C_3   0.969688 0.424563 0.542258 -0.304712
C28   C     C_3   0.030346 0.572845 0.458058 -0.304571
C29   C     C_3   0.029730 0.425908 0.453946 -0.046926
C30   C     C_3   0.970330 0.571499 0.546366 -0.045867
C31   C     C_1   0.249305 0.499794 0.502771 -0.018967
C32   C     C_1   0.750716 0.498671 0.497260 -0.023902
C33   C     C_3   0.024350 0.497490 0.590208 -0.057165
C34   C     C_R   0.497935 0.231330 0.499592 -0.134312
C35   C     C_3   0.975709 0.499922 0.410097 -0.058207
C36   C     C_3   0.083441 0.497905 0.502452 0.142143
C37   C     C_3   0.916604 0.499511 0.497850 0.142040
C38   C     C_1   0.174172 0.498900 0.503300 0.107660
C39   C     C_1   0.825862 0.498927 0.496860 0.105042
C40   C     C_R   0.422979 0.812267 0.487700 0.144257
C41   C     C_R   0.566543 0.187350 0.540216 0.155042
C42   C     C_2   0.060735 0.343169 0.401984 0.423206
C43   C     C_2   0.939401 0.654202 0.598450 0.422605
C44   C     C_2   0.679890 0.331080 0.893760 0.429431
C45   C     C_R   0.573163 0.814478 0.531441 -0.139405
C46   C     C_2   0.319569 0.668339 0.106203 0.428988
C47   C     C_2   0.950749 0.501732 0.308208 0.434940
C48   C     C_2   0.049371 0.495693 0.692079 0.437131
C49   C     C_2   0.657842 0.768952 0.525939 0.382093
C50   C     C_2   0.363533 0.230788 0.406416 0.400970
C51   C     C_2   0.697684 0.913693 0.653880 0.425297
C52   C     C_2   0.257585 0.088709 0.469809 0.426768
C53   C     C_2   0.374642 0.598998 0.749317 0.449331
C54   C     C_2   0.625526 0.401240 0.250623 0.446204
C55   C     C_R   0.425951 0.185344 0.467639 -0.146393
C56   C     C_R   0.567268 0.907269 0.549053 -0.050775
C57   C     C_R   0.419216 0.093220 0.485611 -0.046409
C58   C     C_R   0.492957 0.953299 0.520571 0.051501
H1    H     H_    0.662761 0.352416 0.079621 0.212378
H2    H     H_    0.984995 0.699624 0.629336 0.094718
H3    H     H_    0.670012 0.308956 0.821345 0.089405
H4    H     H_    0.329197 0.690312 0.178714 0.081107
H5    H     H_    0.999651 0.501147 0.252909 0.083227
H6    H     H_    0.000501 0.496213 0.747412 0.083546
H7    H     H_    0.712073 0.803896 0.496319 0.113552
H8    H     H_    0.340918 0.196442 0.343416 0.100750
H9    H     H_    0.685154 0.849767 0.686125 0.107843
H10   H     H_    0.246692 0.153398 0.504226 0.116960
H11   H     H_    0.392658 0.650922 0.700918 0.093299
H12   H     H_    0.336986 0.647295 0.920343 0.212487
H13   H     H_    0.607655 0.349600 0.299416 0.087085
H14   H     H_    0.943916 0.364042 0.576549 0.184163
H15   H     H_    0.056113 0.633374 0.423775 0.184258
H16   H     H_    0.683801 0.085003 0.620412 0.234508
H17   H     H_    0.287486 0.916339 0.458319 0.234672
H18   H     H_    0.604633 0.413853 0.751306 0.152552
H19   H     H_    0.395244 0.585973 0.248721 0.147549
H20   H     H_    0.015204 0.297859 0.370799 0.093633
N1    N     N_R   0.500040 0.500070 0.750030 -0.135757
N2    N     N_R   0.499960 0.499930 0.249970 -0.136065
O1    O     O_R   0.500020 0.367860 0.580280 -0.599372
O2    O     O_2   0.863582 0.670921 0.606476 -0.520185
O3    O     O_2   0.742482 0.302525 0.933523 -0.519439
O4    O     O_2   0.257012 0.696830 0.066324 -0.521344
O5    O     O_2   0.876066 0.503922 0.286875 -0.488944
O6    O     O_2   0.124071 0.493593 0.713359 -0.488371
O7    O     O_2   0.668735 0.694480 0.557430 -0.543785
O8    O     O_2   0.334112 0.304357 0.427711 -0.543338
O9    O     O_2   0.765003 0.950428 0.670070 -0.518722
O10   O     O_2   0.198056 0.052077 0.431244 -0.522807
O11   O     O_2   0.299420 0.582249 0.760931 -0.505576
O12   O     O_R   0.499980 0.632140 0.419720 -0.609273
O13   O     O_2   0.700722 0.417887 0.238582 -0.506896
O14   O     O_R   0.500020 0.367840 0.419730 -0.645464
O15   O     O_R   0.499980 0.632160 0.580270 -0.631638
O16   O     O_R   0.376770 0.500000 0.580260 -0.616603
O17   O     O_R   0.623230 0.500000 0.419740 -0.618719
O18   O     O_R   0.376780 0.499980 0.419710 -0.596637
O19   O     O_R   0.623220 0.500020 0.580290 -0.593139
O20   O     O_2   0.136549 0.326269 0.394444 -0.521348
Zn1   Zn    Zn3+2 0.499990 0.500020 0.607200 1.013575
Zn2   Zn    Zn3+2 0.500010 0.499980 0.392800 1.004243

loop_
_geom_bond_atom_site_label_1
_geom_bond_atom_site_label_2
_ccdc_geom_bond_type
C54   O13   D    
C28   C30   S    
C3    C40   A    
C30   C43   S    
C47   O5    D    
C50   O8    D    
C22   C25   A    
C53   O11   D    
C51   H9    S    
C4    C7    A    
C37   C39   S    
C9    N1    A    
C10   C21   A    
O1    Zn1   S    
C15   C24   A    
C6    C57   A    
C55   C57   A    
C56   C58   A    
O16   Zn1   S    
C11   N1    A    
C43   H2    S    
O18   Zn2   S    
C28   C36   S    
C13   C15   A    
C30   C37   S    
C25   H1    S    
C13   H19   S    
C51   O9    D    
C1    O14   A    
C7    H16   S    
C21   C25   A    
C23   C45   A    
C5    C56   A    
C50   H8    S    
C48   O6    D    
C44   O3    D    
O17   Zn2   S    
O12   Zn2   S    
O19   Zn1   S    
C20   C26   A    
C27   C29   S    
C27   C37   S    
C26   H12   S    
C32   C39   T    
C16   O18   A    
C8    H17   S    
C13   N2    A    
C31   C38   T    
C29   C42   S    
C30   C33   S    
C42   H20   S    
C33   C36   S    
C2    C4    A    
C34   C55   A    
C6    C52   S    
C17   O17   A    
C45   C49   S    
C27   H14   S    
C15   C19   A    
C29   C35   S    
C28   C35   S    
C52   O10   D    
C35   C47   S    
C52   H10   S    
Br2   C41   S    
C14   C18   A    
C2    C58   A    
C33   C48   S    
C10   N2    A    
C10   C54   S    
C48   H6    S    
O15   Zn1   S    
C47   H5    S    
C18   C20   A    
C4    C41   A    
O14   Zn2   S    
C1    O1    A    
C46   O4    D    
C43   O2    D    
C5    C51   S    
C9    C53   S    
C12   O15   A    
N1    Zn1   S    
C5    C7    A    
C11   H18   S    
C42   O20   D    
C54   H13   S    
C3    C58   A    
C17   C32   S    
C23   C40   A    
C24   C46   S    
C27   C33   S    
C9    C20   A    
C24   C26   A    
C29   C36   S    
C44   H3    S    
C22   C44   S    
C19   C21   A    
C3    C8    A    
C35   C37   S    
C49   O7    D    
C45   C56   A    
C36   C38   S    
C28   H15   S    
C17   O19   A    
C49   H7    S    
C1    C34   S    
C2    C57   A    
C12   C23   S    
C16   C31   S    
C14   C22   A    
C46   H4    S    
C50   C55   S    
Br1   C40   S    
C18   C19   A    
C6    C8    A    
C11   C14   A    
N2    Zn2   S    
C34   C41   A    
C16   O16   A    
C12   O12   A    
C53   H11   S    
