data_mof_unit_17504.cif
_audit_creation_date              2012-12-10T18:22:32-0500
_audit_creation_method            fapswitch 2.2
_symmetry_space_group_name_H-M    P1
_symmetry_Int_Tables_number       1
_space_group_crystal_system       triclinic
_cell_length_a                    23.528465
_cell_length_b                    10.615503
_cell_length_c                    9.440093
_cell_angle_alpha                 90.856663
_cell_angle_beta                  90.061436
_cell_angle_gamma                 89.451291
_cell_volume                      2357.44623284

loop_
_atom_site_label
_atom_site_type_symbol
_atom_type_description
_atom_site_fract_x
_atom_site_fract_y
_atom_site_fract_z
_atom_type_partial_charge
C1    C     C_R   0.499860 0.259471 0.499054 0.782151
C2    C     C_R   0.702998 0.563913 0.396026 0.215621
C3    C     C_R   0.237040 0.449460 0.388573 -0.123538
C4    C     C_R   0.762479 0.564665 0.404616 -0.158744
C5    C     C_R   0.208873 0.495149 0.509658 0.298910
C6    C     C_R   0.790733 0.504493 0.515733 0.312858
C7    C     C_3   0.549267 0.042604 0.553589 -0.158807
C8    C     C_3   0.450876 0.957417 0.446227 -0.162474
C9    C     C_3   0.543695 0.955732 0.421459 -0.152233
C10   C     C_3   0.456448 0.044261 0.578362 -0.158590
C11   C     C_3   0.500339 0.877550 0.502238 0.013759
C12   C     C_R   0.500195 0.740530 0.500920 0.795376
C13   C     C_3   0.499795 0.122458 0.497615 0.016000
C14   C     C_3   0.505947 0.962148 0.634414 -0.132948
C15   C     C_3   0.494197 0.037876 0.365407 -0.134835
C16   C     C_R   0.391028 0.496863 0.499855 0.804687
C17   C     C_R   0.608883 0.501488 0.500084 0.829701
C18   C     C_3   0.527306 0.596195 0.052729 -0.129872
C19   C     C_3   0.472670 0.403830 0.947281 -0.134709
C20   C     C_3   0.476138 0.599805 0.952798 0.123834
C21   C     C_3   0.523878 0.400144 0.047222 0.132437
C22   C     C_3   0.551500 0.495074 0.949183 -0.078178
C23   C     C_R   0.240183 0.537754 0.626252 -0.111770
C24   C     C_3   0.448526 0.504922 0.050754 -0.075975
C25   C     C_R   0.880333 0.614482 0.533616 0.535003
C26   C     C_R   0.119294 0.384519 0.507954 0.534597
C27   C     C_R   0.880262 0.389960 0.510141 0.539622
C28   C     C_R   0.119406 0.609387 0.525598 0.540575
C29   C     C_R   0.939872 0.386187 0.511544 -0.017091
C30   C     C_R   0.059800 0.612897 0.529653 -0.017794
C31   C     C_R   0.969837 0.500151 0.522165 -0.017866
C32   C     C_R   0.029826 0.498836 0.520765 -0.017775
C33   C     C_R   0.939962 0.615459 0.533405 -0.014578
C34   C     C_R   0.759310 0.445110 0.620807 -0.098429
C35   C     C_R   0.059689 0.383492 0.509802 -0.014890
C36   C     C_R   0.970087 0.271615 0.501171 -0.161109
C37   C     C_R   0.029582 0.727391 0.541280 -0.161136
C38   C     C_R   0.029378 0.270262 0.500669 -0.161117
C39   C     C_R   0.970286 0.728637 0.543493 -0.160978
C40   C     C_2   0.448075 0.716851 0.899855 0.392897
C41   C     C_2   0.551503 0.282523 0.100224 0.376367
C42   C     C_3   0.296005 0.365616 0.132382 -0.696019
C43   C     C_3   0.680423 0.575021 0.147419 -0.633221
C44   C     C_R   0.299214 0.536534 0.621646 -0.241494
C45   C     C_R   0.700195 0.444597 0.614150 -0.280442
C46   C     C_R   0.328253 0.492268 0.500421 -0.121134
C47   C     C_R   0.671437 0.502843 0.501800 -0.059709
C48   C     C_R   0.296894 0.445402 0.382529 0.231960
Cu1   Cu    Cu3+1 0.500010 0.499990 0.643150 0.962229
Cu2   Cu    Cu3+1 0.499990 0.500010 0.356850 0.980113
H1    H     H_    0.948058 0.182660 0.493156 0.189301
H2    H     H_    0.780782 0.399327 0.707830 0.156879
H3    H     H_    0.322192 0.571414 0.713266 0.217825
H4    H     H_    0.676865 0.397629 0.696636 0.164130
H5    H     H_    0.211503 0.415232 0.301105 0.153540
H6    H     H_    0.786910 0.612051 0.324488 0.153421
H7    H     H_    0.579422 0.916333 0.357494 0.138876
H8    H     H_    0.420718 0.083578 0.642353 0.138984
H9    H     H_    0.589528 0.080708 0.597287 0.140361
H10   H     H_    0.410609 0.919360 0.402516 0.144600
H11   H     H_    0.511348 0.929333 0.744585 0.128465
H12   H     H_    0.051613 0.816387 0.548480 0.189456
H13   H     H_    0.488837 0.070802 0.255248 0.128790
H14   H     H_    0.466141 0.807960 0.925263 0.012288
H15   H     H_    0.534040 0.191604 0.071210 0.014564
H16   H     H_    0.355546 0.321109 0.289587 0.253192
H17   H     H_    0.326996 0.338153 0.048549 0.222534
H18   H     H_    0.273304 0.452112 0.097771 0.239721
H19   H     H_    0.265672 0.287091 0.145300 0.238496
H20   H     H_    0.686350 0.725824 0.287036 0.249710
H21   H     H_    0.655606 0.631194 0.070368 0.205627
H22   H     H_    0.663623 0.477755 0.147440 0.279602
H23   H     H_    0.549599 0.677710 0.101564 0.131766
H24   H     H_    0.725552 0.572688 0.112824 0.212382
H25   H     H_    0.449989 0.322749 0.898631 0.122454
H26   H     H_    0.594748 0.489470 0.902571 0.127317
H27   H     H_    0.405288 0.511727 0.096887 0.168911
H28   H     H_    0.051328 0.180306 0.492311 0.189552
H29   H     H_    0.948333 0.818563 0.552278 0.189210
H30   H     H_    0.218648 0.571988 0.720782 0.158641
N1    N     N_R   0.851757 0.502935 0.520916 -0.461732
N2    N     N_R   0.147863 0.496383 0.514792 -0.462085
N3    N     N_3   0.500040 0.499970 0.858290 -0.163519
N4    N     N_3   0.499960 0.500030 0.141710 -0.164917
N5    N     N_2   0.326050 0.389571 0.263811 -0.424328
N6    N     N_2   0.675243 0.632058 0.286957 -0.430194
O1    O     O_R   0.500030 0.316850 0.620870 -0.593681
O2    O     O_2   0.148522 0.274621 0.500240 -0.534826
O3    O     O_2   0.851003 0.281748 0.496128 -0.529978
O4    O     O_2   0.148702 0.718033 0.530814 -0.528234
O5    O     O_2   0.404563 0.710655 0.829951 -0.548014
O6    O     O_2   0.593997 0.287921 0.174031 -0.541282
O7    O     O_R   0.499970 0.683150 0.379130 -0.589330
O8    O     O_R   0.500000 0.316860 0.379090 -0.572331
O9    O     O_R   0.500000 0.683140 0.620910 -0.569684
O10   O     O_R   0.417890 0.499960 0.620920 -0.545944
O11   O     O_R   0.582110 0.500040 0.379080 -0.508113
O12   O     O_R   0.417870 0.499970 0.379140 -0.578906
O13   O     O_R   0.582130 0.500030 0.620860 -0.607574
O14   O     O_2   0.851109 0.724016 0.546998 -0.537164

loop_
_geom_bond_atom_site_label_1
_geom_bond_atom_site_label_2
_ccdc_geom_bond_type
C1    O1    A    
C42   H18   S    
C43   H22   S    
C27   C29   A    
Cu1   O1    S    
C22   H26   S    
H16   N5    S    
C37   H12   S    
Cu2   N4    S    
C29   C36   A    
C33   C39   A    
C19   C21   S    
C20   C40   S    
C11   C14   S    
C3    C48   A    
C3    H5    S    
C44   H3    S    
C7    C14   S    
C20   C24   S    
C1    O8    A    
C18   N4    S    
C31   C33   A    
C12   O9    A    
C2    N6    S    
C23   H30   S    
C9    H7    S    
C43   H24   S    
C26   N2    A    
C6    N1    S    
C21   C22   S    
C4    H6    S    
C25   N1    A    
C19   N3    S    
C7    H9    S    
C44   C46   A    
C45   C47   A    
C37   C39   A    
C46   C48   A    
C16   O10   A    
Cu2   O12   S    
C28   N2    A    
C32   C35   A    
C27   N1    A    
C35   C38   A    
C4    C6    A    
C10   C14   S    
C16   C46   S    
C42   N5    S    
Cu2   O8    S    
C41   H15   S    
C38   H28   S    
C14   H11   S    
C42   H19   S    
C23   C44   A    
C6    C34   A    
C30   C37   A    
C39   H29   S    
C2    C4    A    
Cu1   O13   S    
C9    C11   S    
C24   H27   S    
C25   O14   S    
C31   C32   A    
C5    C23   A    
C21   N4    S    
C34   C45   A    
Cu1   O9    S    
C17   O13   A    
C36   H1    S    
C21   C41   S    
C8    C10   S    
C45   H4    S    
C40   O5    D    
C8    C15   S    
C13   C15   S    
C42   H17   S    
C12   O7    A    
C1    C13   S    
H20   N6    S    
C7    C9    S    
Cu2   O11   S    
C43   H21   S    
C10   H8    S    
C18   C22   S    
C43   N6    S    
C17   C47   S    
C3    C5    A    
C10   C13   S    
C11   C12   S    
Cu2   O7    S    
C2    C47   A    
C18   H23   S    
C34   H2    S    
C40   H14   S    
C22   N3    S    
Cu1   N3    S    
C36   C38   A    
C19   C24   S    
C24   N4    S    
C28   C30   A    
C29   C31   A    
C8    H10   S    
C30   C32   A    
C5    N2    S    
C16   O12   A    
C8    C11   S    
C19   H25   S    
C27   O3    S    
C18   C20   S    
Cu1   O10   S    
C9    C15   S    
C26   C35   A    
C7    C13   S    
C41   O6    D    
C26   O2    S    
Cu1   Cu2   S    
C20   N3    S    
C15   H13   S    
C48   N5    S    
C28   O4    S    
C17   O11   A    
C25   C33   A    
