data_mof_unit_61791.cif
_audit_creation_date              2012-12-10T16:51:57-0500
_audit_creation_method            fapswitch 2.2
_symmetry_space_group_name_H-M    P1
_symmetry_Int_Tables_number       1
_space_group_crystal_system       triclinic
_cell_length_a                    18.414647
_cell_length_b                    18.352607
_cell_length_c                    18.388524
_cell_angle_alpha                 90.90752
_cell_angle_beta                  119.432638
_cell_angle_gamma                 119.647547
_cell_volume                      4420.11220746

loop_
_atom_site_label
_atom_site_type_symbol
_atom_type_description
_atom_site_fract_x
_atom_site_fract_y
_atom_site_fract_z
_atom_type_partial_charge
C1    C     C_R   0.777000 0.638788 0.638556 0.510859
C2    C     C_2   0.112392 0.303947 0.313187 -0.099966
C3    C     C_2   0.432739 0.161978 0.719788 -0.154234
C4    C     C_R   0.222913 0.360879 0.361485 0.501600
C5    C     C_2   0.496596 0.196073 0.808519 -0.118453
C6    C     C_2   0.424359 0.217382 0.663605 0.009904
C7    C     C_2   0.500726 0.304574 0.692902 -0.085887
C8    C     C_2   0.056239 0.778618 0.718860 -0.158675
C9    C     C_2   0.112357 0.803665 0.807809 -0.095059
C10   C     C_2   0.943863 0.720149 0.662652 -0.158367
C11   C     C_2   0.887732 0.696489 0.695500 -0.094687
C12   C     C_3   0.593502 0.827078 0.801642 -0.124427
C13   C     C_2   0.451414 0.165892 0.229926 -0.138198
C14   C     C_2   0.477140 0.193200 0.173661 0.040267
C15   C     C_2   0.441082 0.217235 0.278685 -0.165619
C16   C     C_R   0.500413 0.638784 0.361844 0.509828
C17   C     C_2   0.514109 0.303938 0.319803 -0.089396
C18   C     C_2   0.442821 0.780068 0.223998 -0.159380
C19   C     C_2   0.498853 0.803417 0.191093 -0.094871
C20   C     C_2   0.440453 0.721450 0.277770 -0.159688
C21   C     C_2   0.504393 0.696579 0.308879 -0.095025
C22   C     C_R   0.499775 0.138879 0.861839 0.509340
C23   C     C_3   0.525482 0.792237 0.698763 -0.123698
C24   C     C_R   0.499818 0.861263 0.138196 0.510866
C25   C     C_R   0.776956 0.138861 0.135856 0.517895
C26   C     C_R   0.223086 0.861281 0.861632 0.511332
C27   C     C_R   0.496761 0.140994 0.137714 0.516195
C28   C     C_R   0.498626 0.360927 0.638167 0.515590
C29   C     C_R   0.500037 0.858388 0.858239 0.504009
C30   C     C_R   0.502547 0.358903 0.361824 0.512424
C31   C     C_R   0.500105 0.641717 0.641810 0.504837
C32   C     C_3   0.568516 0.733212 0.801606 -0.107504
C33   C     C_3   0.474757 0.707958 0.801308 -0.122927
C34   C     C_3   0.431723 0.766985 0.698465 -0.107378
C35   C     C_3   0.499793 0.801004 0.800579 0.063901
C36   C     C_3   0.470009 0.264221 0.134402 -0.265661
C37   C     C_3   0.360676 0.238165 0.080049 -0.435972
C38   C     C_3   0.920752 0.271046 0.136049 -0.270096
C39   C     C_3   0.863712 0.237903 0.035042 -0.426552
C40   C     C_3   0.094702 0.170730 0.243686 -0.237105
C41   C     C_3   0.012841 0.080655 0.167973 -0.449366
C42   C     C_3   0.406736 0.673122 0.698435 -0.123125
C43   C     C_3   0.500434 0.699183 0.699487 0.063705
C44   C     C_2   0.943403 0.168110 0.221486 -0.123725
C45   C     C_2   0.884607 0.193783 0.169642 0.018826
C46   C     C_2   0.052893 0.217836 0.260705 -0.019321
Cl1   Cl    Cl    0.308384 0.161604 0.556427 -0.066079
H1    H     H_    0.453928 0.674183 0.844234 0.113438
H2    H     H_    0.444083 0.106641 0.245346 0.141790
H3    H     H_    0.624784 0.718692 0.843400 0.128342
H4    H     H_    0.374828 0.183879 0.281122 0.154064
H5    H     H_    0.583559 0.334932 0.322338 0.108512
H6    H     H_    0.395346 0.803735 0.210468 0.155217
H7    H     H_    0.544978 0.779454 0.200976 0.105892
H8    H     H_    0.384309 0.699095 0.292861 0.155716
H9    H     H_    0.563137 0.719219 0.297460 0.106453
H10   H     H_    0.670178 0.891122 0.844854 0.109364
H11   H     H_    0.546312 0.826014 0.655838 0.113204
H12   H     H_    0.077587 0.334154 0.321338 0.096655
H13   H     H_    0.375461 0.781516 0.656680 0.128370
H14   H     H_    0.330057 0.609086 0.655242 0.113530
H15   H     H_    0.910224 0.107893 0.236674 0.137947
H16   H     H_    0.308316 0.171263 0.028202 0.153519
H17   H     H_    0.334501 0.237261 0.123188 0.161336
H18   H     H_    0.357217 0.287537 0.046897 0.136696
H19   H     H_    0.522042 0.331230 0.185216 0.139522
H20   H     H_    0.494160 0.272077 0.088624 0.159076
H21   H     H_    0.873842 0.188186 0.014623 0.143789
H22   H     H_    0.781000 0.207071 0.001349 0.167189
H23   H     H_    0.381231 0.090084 0.686479 0.161566
H24   H     H_    0.894677 0.294957 0.013090 0.134679
H25   H     H_    0.907970 0.319014 0.155393 0.156360
H26   H     H_    0.002891 0.308646 0.163757 0.145928
H27   H     H_    0.962848 0.031862 0.185302 0.155145
H28   H     H_    0.965930 0.088555 0.105737 0.159755
H29   H     H_    0.050073 0.053841 0.156307 0.135528
H30   H     H_    0.147123 0.213748 0.225584 0.157933
H31   H     H_    0.138064 0.159779 0.305150 0.179138
H32   H     H_    0.544672 0.267057 0.844328 0.104828
H33   H     H_    0.570482 0.336710 0.759169 0.084130
H34   H     H_    0.093560 0.800749 0.684922 0.155802
H35   H     H_    0.078430 0.781382 0.844085 0.105859
H36   H     H_    0.906553 0.696797 0.591358 0.156243
H37   H     H_    0.921650 0.720016 0.765754 0.105619
O1    O     O_3   0.500000 0.500000 0.500000 -0.442007
O2    O     O_R   0.270900 0.886160 0.946260 -0.542197
O3    O     O_R   0.560160 0.177420 0.117340 -0.548843
O4    O     O_R   0.729180 0.615300 0.675360 -0.542097
O5    O     O_R   0.440020 0.882760 0.822680 -0.548118
O6    O     O_R   0.439990 0.057240 0.117340 -0.549355
O7    O     O_R   0.560190 0.882760 0.942820 -0.543674
O8    O     O_R   0.729270 0.053840 0.113900 -0.548373
O9    O     O_R   0.270910 0.884750 0.824690 -0.541074
O10   O     O_R   0.560170 0.175430 0.946260 -0.547808
O11   O     O_R   0.440000 0.886160 0.115330 -0.541399
O12   O     O_R   0.439910 0.615300 0.386140 -0.541651
O13   O     O_R   0.270820 0.446200 0.386140 -0.540856
O14   O     O_R   0.560090 0.613880 0.384720 -0.541803
O15   O     O_R   0.439920 0.324620 0.553780 -0.522993
O16   O     O_R   0.560100 0.442800 0.382710 -0.543395
O17   O     O_R   0.560070 0.617290 0.677370 -0.547044
O18   O     O_R   0.439930 0.322630 0.382710 -0.548659
O19   O     O_R   0.439900 0.617290 0.557220 -0.542933
O20   O     O_R   0.560080 0.446200 0.675360 -0.543826
O21   O     O_R   0.729180 0.613880 0.553780 -0.541071
O22   O     O_R   0.270820 0.324620 0.384720 -0.550828
O23   O     O_3   0.500090 0.000040 0.000040 -0.440276
O24   O     O_R   0.440010 0.053840 0.824690 -0.540857
O25   O     O_R   0.560180 0.884750 0.113900 -0.541950
O26   O     O_R   0.729260 0.175430 0.115330 -0.543319
Zn1   Zn    Zn3+2 0.414150 0.543930 0.458110 0.931955
Zn2   Zn    Zn3+2 0.585850 0.541910 0.456060 0.934637
Zn3   Zn    Zn3+2 0.414160 0.370220 0.456060 0.930830
Zn4   Zn    Zn3+2 0.585840 0.543930 0.629770 0.935442
Zn5   Zn    Zn3+2 0.585940 0.956110 0.041940 0.929226
Zn6   Zn    Zn3+2 0.585930 0.129820 0.043980 0.924139
Zn7   Zn    Zn3+2 0.414240 0.958130 0.043980 0.932754
Zn8   Zn    Zn3+2 0.414250 0.956110 0.870280 0.928353

loop_
_geom_bond_atom_site_label_1
_geom_bond_atom_site_label_2
_ccdc_geom_bond_type
C23   H11   S    
C16   C21   S    
O17   Zn4   S    
O26   Zn6   S    
C39   H21   S    
C34   C42   S    
O1    Zn2   S    
C29   O5    A    
C36   H20   S    
O11   Zn7   S    
C40   C46   S    
C12   C23   S    
C31   C43   S    
C33   C42   S    
C31   O17   A    
C36   C37   S    
C18   C19   D    
C14   C36   S    
C38   C39   S    
O13   Zn1   S    
C36   H19   S    
C30   O16   A    
C10   H36   S    
C23   C43   S    
C27   O6    A    
O19   Zn1   S    
C34   C35   S    
C38   C45   S    
C18   H6    S    
C41   H27   S    
C5    C22   S    
C8    C9    D    
C37   H18   S    
C15   H4    S    
C14   C27   S    
C5    H32   S    
O23   Zn8   S    
C18   C20   S    
C9    H35   S    
C3    C6    S    
C26   O9    A    
C13   C14   D    
C12   C32   S    
C34   H13   S    
C17   C30   S    
C22   O10   A    
C20   H8    S    
C17   H5    S    
C37   H16   S    
C44   C46   S    
C9    C26   S    
O12   Zn1   S    
C38   H25   S    
C16   O12   A    
O14   Zn2   S    
C6    Cl1   S    
O22   Zn3   S    
C8    H34   S    
O6    Zn7   S    
O24   Zn8   S    
C3    H23   S    
C24   O11   A    
O10   Zn6   S    
C2    H12   S    
O1    Zn1   S    
C4    O22   A    
C2    C46   D    
C7    C28   S    
C31   O19   A    
C2    C4    S    
C41   H28   S    
C28   O20   A    
C26   O2    A    
C23   C34   S    
O23   Zn5   S    
C30   O18   A    
C39   H22   S    
O5    Zn8   S    
C12   C35   S    
C27   O3    A    
C42   H14   S    
C32   H3    S    
O3    Zn6   S    
C25   O26   A    
C13   H2    S    
C12   H10   S    
C19   H7    S    
C40   C41   S    
O21   Zn2   S    
O16   Zn2   S    
C13   C15   S    
O20   Zn4   S    
C42   C43   S    
C25   C45   S    
C29   O7    A    
C37   H17   S    
C44   C45   D    
C28   O15   A    
C15   C17   D    
O1    Zn4   S    
C25   O8    A    
C24   O25   A    
C3    C5    D    
O15   Zn3   S    
C21   H9    S    
C6    C7    D    
C11   H37   S    
C29   C35   S    
C44   H15   S    
C32   C33   S    
O1    Zn3   S    
C19   C24   S    
O18   Zn3   S    
C41   H29   S    
C16   O14   A    
C1    O4    A    
C22   O24   A    
C33   C35   S    
C32   C43   S    
O7    Zn5   S    
O2    Zn7   S    
C40   H31   S    
O4    Zn4   S    
O8    Zn5   S    
O23   Zn6   S    
C10   C11   D    
O25   Zn5   S    
C20   C21   D    
C8    C10   S    
O9    Zn8   S    
C33   H1    S    
C39   H24   S    
C40   H30   S    
C1    C11   S    
C4    O13   A    
O23   Zn7   S    
C1    O21   A    
C7    H33   S    
C38   H26   S    
