data_mof_unit_55878.cif
_audit_creation_date              2012-12-10T20:46:35-0500
_audit_creation_method            fapswitch 2.2
_symmetry_space_group_name_H-M    P1
_symmetry_Int_Tables_number       1
_space_group_crystal_system       triclinic
_cell_length_a                    10.467689
_cell_length_b                    8.938971
_cell_length_c                    8.107653
_cell_angle_alpha                 90.000738
_cell_angle_beta                  102.404302
_cell_angle_gamma                 89.982999
_cell_volume                      740.926559505

loop_
_atom_site_label
_atom_site_type_symbol
_atom_type_description
_atom_site_fract_x
_atom_site_fract_y
_atom_site_fract_z
_atom_type_partial_charge
C1    C     C_R   0.499975 0.217950 0.499992 0.939812
C2    C     C_1   0.500116 0.934814 0.500029 -0.193747
C3    C     C_3   0.974346 0.445835 0.735254 -0.943009
C4    C     C_3   0.028418 0.428793 0.274720 -0.927526
C5    C     C_R   0.500182 0.782049 0.500048 0.925618
C6    C     C_R   0.256399 0.506426 0.432506 0.904611
C7    C     C_R   0.743696 0.506077 0.567590 0.929947
C8    C     C_2   0.115664 0.529802 0.400070 -0.024180
C9    C     C_2   0.883931 0.534035 0.599437 -0.003193
C10   C     C_2   0.066987 0.634575 0.491821 0.077175
C11   C     C_2   0.928682 0.632539 0.497750 0.142696
C12   C     C_1   0.500037 0.065156 0.500008 -0.195988
H1    H     H_    0.873805 0.842503 0.421338 0.185947
H2    H     H_    0.966639 0.496997 0.173782 0.254168
H3    H     H_    0.848908 0.713919 0.265404 0.193628
H4    H     H_    0.206451 0.699501 0.696185 0.219181
H5    H     H_    0.204964 0.798616 0.515676 0.168956
H6    H     H_    0.918179 0.372387 0.804475 0.247053
H7    H     H_    0.040038 0.373980 0.678580 0.257671
H8    H     H_    0.034155 0.523624 0.827414 0.262010
H9    H     H_    0.087144 0.350637 0.214401 0.246750
H10   H     H_    0.964755 0.360957 0.338911 0.253533
N1    N     N_1   0.500020 0.500000 0.073650 -0.030241
N2    N     N_1   0.499980 0.500000 0.926350 -0.033747
N3    N     N_3   0.841433 0.733448 0.390077 -0.448062
N4    N     N_3   0.146831 0.747908 0.589739 -0.462571
O1    O     O_R   0.499990 0.285340 0.636850 -0.608612
O2    O     O_R   0.500010 0.714660 0.363150 -0.606728
O3    O     O_R   0.500010 0.285340 0.363150 -0.611491
O4    O     O_R   0.499990 0.714660 0.636850 -0.621034
O5    O     O_R   0.317810 0.500000 0.585760 -0.630002
O6    O     O_R   0.682190 0.500000 0.414240 -0.606139
O7    O     O_R   0.317820 0.500000 0.312020 -0.606451
O8    O     O_R   0.682180 0.500000 0.687980 -0.610794
Zn1   Zn    Zn3+2 0.499990 0.500000 0.682780 0.971291
Zn2   Zn    Zn3+2 0.500010 0.500000 0.317220 0.983469

loop_
_geom_bond_atom_site_label_1
_geom_bond_atom_site_label_2
_ccdc_geom_bond_type
N1    N2    T    
C3    H7    S    
C3    C9    S    
N1    Zn2   S    
C5    O2    A    
C4    H10   S    
C6    O7    A    
C4    C8    S    
C2    C12   T    
C10   N4    S    
C1    O3    A    
C6    O5    A    
C3    H8    S    
H4    N4    S    
C4    H9    S    
C9    C11   D    
O3    Zn2   S    
H1    N3    S    
C1    C12   S    
O4    Zn1   S    
H5    N4    S    
O6    Zn2   S    
O8    Zn1   S    
C4    H2    S    
C7    O8    A    
O5    Zn1   S    
H3    N3    S    
C2    C5    S    
C10   C11   S    
C11   N3    S    
N2    Zn1   S    
C7    C9    S    
O7    Zn2   S    
O2    Zn2   S    
C3    H6    S    
C8    C10   D    
C5    O4    A    
C1    O1    A    
C6    C8    S    
C7    O6    A    
O1    Zn1   S    
