data_mof_unit_47417.cif
_audit_creation_date              2013-03-05T15:51:22-0500
_audit_creation_method            fapswitch 2.2
_symmetry_space_group_name_H-M    P1
_symmetry_Int_Tables_number       1
_space_group_crystal_system       triclinic
_cell_length_a                    10.733644
_cell_length_b                    10.794008
_cell_length_c                    9.605304
_cell_angle_alpha                 89.890927
_cell_angle_beta                  89.832217
_cell_angle_gamma                 92.593686
_cell_volume                      1111.71416005

loop_
_atom_site_label
_atom_site_type_symbol
_atom_site_description
_atom_site_fract_x
_atom_site_fract_y
_atom_site_fract_z
_atom_type_partial_charge
O1    O     O_R   0.499990 0.319640 0.618810 -0.573500
O2    O     O_R   0.500000 0.319660 0.381240 -0.573827
C1    C     C_R   0.493858 0.262546 0.500333 0.789603
O3    O     O_R   0.317680 0.499970 0.618790 -0.592558
O4    O     O_R   0.317700 0.499990 0.381210 -0.582761
C2    C     C_R   0.259918 0.499877 0.499848 0.738813
Cu1   Cu    Cu3+1 0.499990 0.499990 0.640660 0.931930
Cu2   Cu    Cu3+1 0.500010 0.500010 0.359340 0.933070
O5    O     O_R   0.500000 0.680340 0.618760 -0.599378
O6    O     O_R   0.500010 0.680360 0.381190 -0.588459
O7    O     O_R   0.682300 0.500010 0.618790 -0.596729
O8    O     O_R   0.682320 0.500030 0.381210 -0.602675
C3    C     C_R   0.495812 0.737100 0.499984 0.764999
C4    C     C_R   0.739970 0.499987 0.499617 0.740112
C5    C     C_3   0.066227 0.384713 0.577383 -0.358560
H1    H     H_    0.098789 0.386756 0.687044 0.221323
H2    H     H_    0.098667 0.298293 0.528826 0.156108
C6    C     C_3   0.922414 0.383544 0.575515 -0.341143
H3    H     H_    0.885067 0.298015 0.522767 0.157683
H4    H     H_    0.886671 0.381094 0.684438 0.196089
H5    H     H_    0.111651 0.623863 0.679578 0.172279
H6    H     H_    0.899811 0.620139 0.682129 0.174810
C7    C     C_3   0.076719 0.618479 0.570690 -0.377958
C8    C     C_3   0.071493 0.496849 0.347135 -0.353877
C9    C     C_3   0.121716 0.499986 0.498806 0.127268
H7    H     H_    0.110310 0.578386 0.287449 0.179615
H8    H     H_    0.101034 0.411759 0.293129 0.180583
C10   C     C_3   0.877959 0.499909 0.498590 0.135453
C11   C     C_3   0.932958 0.617610 0.572365 -0.388162
C12   C     C_3   0.928890 0.498519 0.346972 -0.362883
H9    H     H_    0.890200 0.415396 0.290600 0.184474
H10   H     H_    0.899928 0.582075 0.289500 0.170339
H11   H     H_    0.114127 0.702303 0.514195 0.161830
H12   H     H_    0.900986 0.702320 0.519503 0.148149
H13   H     H_    0.632897 0.119484 0.348792 0.155548
C13   C     C_R   0.306147 0.118669 0.666774 -0.291202
H14   H     H_    0.299653 0.218175 0.665614 0.165936
C14   C     C_R   0.219013 0.048931 0.747627 0.401339
C15   C     C_R   0.219929 0.919630 0.743953 -0.216681
H15   H     H_    0.152848 0.863581 0.803882 0.173295
C16   C     C_R   0.307212 0.860624 0.663460 -0.264378
H16   H     H_    0.301184 0.760695 0.662852 0.174044
C17   C     C_R   0.397481 0.929216 0.584302 0.116143
C18   C     C_R   0.396793 0.060195 0.585279 0.049830
C19   C     C_R   0.484602 0.128243 0.500932 -0.079841
C20   C     C_R   0.566603 0.067475 0.414164 -0.186294
H17   H     H_    0.634138 0.894810 0.348416 0.141926
C21   C     C_R   0.567338 0.939766 0.413871 -0.204781
C22   C     C_R   0.485934 0.870475 0.500189 -0.077013
H18   H     H_    0.358699 0.359760 0.129664 0.155542
C23   C     C_R   0.665961 0.664629 0.143136 -0.161245
H19   H     H_    0.673608 0.672273 0.252835 0.190786
C24   C     C_R   0.747395 0.744938 0.070638 -0.207068
H20   H     H_    0.810997 0.807567 0.126541 0.159010
C25   C     C_R   0.747355 0.745136 0.927165 -0.189669
H21   H     H_    0.810972 0.807903 0.870758 0.173946
C26   C     C_R   0.665860 0.665024 0.855328 -0.149950
H22   H     H_    0.673455 0.673083 0.745565 0.195216
C27   C     C_R   0.581485 0.581103 0.924827 0.214130
C28   C     C_R   0.581519 0.580971 0.074358 0.217878
N1    N     N_R   0.501200 0.501210 0.147910 -0.205551
C29   C     C_R   0.422397 0.422967 0.074266 -0.043694
H23   H     H_    0.359364 0.359754 0.871505 0.177571
C30   C     C_R   0.422575 0.422961 0.926433 -0.043990
N2    N     N_R   0.501250 0.501290 0.852040 -0.208263
N3    N     N_R   0.129375 0.109010 0.832851 0.113808
O9    O     O_R   0.148205 0.224289 0.869539 -0.431833
O10   O     O_R   0.032198 0.046753 0.881998 -0.386553

loop_
_geom_bond_atom_site_label_1
_geom_bond_atom_site_label_2
_geom_bond_distance
_ccdc_geom_bond_type
C5    C6    1.543274 S    
N3    O10   1.301884 A    
C25   H21   1.083242 S    
Cu2   O6    1.958377 S    
C23   H19   1.060205 S    
H6    C11   1.112519 S    
Cu1   N2    2.030526 S    
C16   H16   1.077679 S    
C29   C30   1.419975 A    
H17   C21   1.083908 S    
C8    H8    1.113736 S    
Cu2   O8    1.968696 S    
Cu2   N1    2.030865 S    
C17   C18   1.414191 A    
C4    C10   1.481166 S    
C30   N2    1.366792 A    
C13   C14   1.405101 A    
O2    C1    1.298526 A    
C6    C10   1.550506 S    
Cu1   Cu2   2.702163 S    
C15   C16   1.390241 A    
C25   C26   1.387948 A    
O1    Cu1   1.958377 S    
C24   H20   1.083116 S    
C27   N2    1.382517 A    
C12   H10   1.113236 S    
C16   C17   1.411976 A    
C26   H22   1.060317 S    
C12   H9    1.113611 S    
C21   C22   1.394465 A    
O3    Cu1   1.968696 S    
C3    C22   1.448339 S    
O4    C2    1.295777 A    
C7    C11   1.542717 S    
C10   C12   1.554403 S    
C13   H14   1.079509 S    
C8    H7    1.113715 S    
Cu1   O7    1.967472 S    
C6    H4    1.113166 S    
C24   C25   1.378098 A    
H5    C7    1.112842 S    
N1    C29   1.367562 A    
H18   C29   1.081836 S    
O7    C4    1.299750 A    
C20   C21   1.378882 A    
C26   C27   1.416441 A    
C8    C12   1.531571 S    
C5    C9    1.548961 S    
C14   N3    1.438835 S    
C17   C22   1.417084 A    
C5    H1    1.110714 S    
C2    C9    1.483525 S    
Cu1   O5    1.957630 S    
C27   C28   1.436282 A    
C7    C9    1.550238 S    
N3    O9    1.301036 A    
C8    C9    1.554765 S    
C7    H11   1.112796 S    
O3    C2    1.301437 A    
C6    H3    1.113186 S    
C15   H15   1.082883 S    
C5    H2    1.113114 S    
O4    Cu2   1.967472 S    
C10   C11   1.550074 S    
O5    C3    1.295806 A    
C23   C28   1.416004 A    
O1    C1    1.295615 A    
C19   C20   1.396279 A    
H13   C20   1.084277 S    
C11   H12   1.113239 S    
C1    C19   1.448575 S    
C13   C18   1.418018 A    
O2    Cu2   1.957630 S    
C18   C19   1.419445 A    
H23   C30   1.079698 S    
O8    C4    1.296375 A    
C28   N1    1.382219 A    
C23   C24   1.387787 A    
O6    C3    1.297686 A    
C14   C15   1.396675 A    
