data_mof_unit_7007.cif
_audit_creation_date              2012-12-10T17:32:16-0500
_audit_creation_method            fapswitch 2.2
_symmetry_space_group_name_H-M    P1
_symmetry_Int_Tables_number       1
_space_group_crystal_system       triclinic
_cell_length_a                    12.412474
_cell_length_b                    13.153792
_cell_length_c                    15.018375
_cell_angle_alpha                 75.05488
_cell_angle_beta                  100.74764
_cell_angle_gamma                 117.03043
_cell_volume                      2103.48228471

loop_
_atom_site_label
_atom_site_type_symbol
_atom_type_description
_atom_site_fract_x
_atom_site_fract_y
_atom_site_fract_z
_atom_type_partial_charge
C1    C     C_R   0.854989 0.284899 0.514303 0.753814
C2    C     C_R   0.010594 0.599517 0.071914 0.096739
C3    C     C_R   0.997241 0.305670 0.086879 -0.201982
C4    C     C_R   0.001462 0.308241 0.994540 -0.230104
C5    C     C_R   0.001505 0.403473 0.927075 0.122740
C6    C     C_R   0.000790 0.499147 0.952637 0.085443
C7    C     C_R   0.999379 0.594806 0.883887 0.116468
C8    C     C_R   0.002351 0.690997 0.908902 -0.230196
C9    C     C_R   0.009329 0.694113 0.001603 -0.201304
C10   C     C_R   0.002861 0.404901 0.834196 -0.260383
C11   C     C_R   0.998715 0.498791 0.766739 -0.055688
C12   C     C_R   0.999271 0.499182 0.670641 0.798258
C13   C     C_R   0.995656 0.592901 0.790995 -0.248588
C14   C     C_R   0.285033 0.041058 0.401563 -0.236229
C15   C     C_R   0.225151 0.840833 0.481849 -0.095750
C16   C     C_R   0.805824 0.077886 0.601784 0.149724
C17   C     C_R   0.717045 0.964193 0.627387 -0.132999
C18   C     C_R   0.597611 0.931824 0.592076 -0.243467
C19   C     C_R   0.561848 0.008872 0.523341 0.088032
C20   C     C_R   0.652492 0.119203 0.487924 0.004019
C21   C     C_R   0.438758 0.980335 0.489344 0.063158
C22   C     C_R   0.408134 0.063804 0.422975 0.058700
C23   C     C_R   0.144184 0.714785 0.489951 0.783052
C24   C     C_R   0.500369 0.167322 0.379231 0.131336
C25   C     C_R   0.621246 0.189540 0.409577 -0.179284
C26   C     C_R   0.344892 0.870137 0.518182 -0.256551
C27   C     C_R   0.192463 0.931793 0.432851 0.100308
C28   C     C_R   0.772648 0.157999 0.531706 -0.161833
C29   C     C_R   0.339109 0.320302 0.652722 0.073885
C30   C     C_R   0.748718 0.623218 0.360536 0.056934
C31   C     C_R   0.637170 0.611412 0.314281 -0.275631
C32   C     C_R   0.532442 0.543310 0.360619 -0.174034
C33   C     C_R   0.539102 0.501490 0.456829 0.001198
C34   C     C_R   0.999672 0.498891 0.329530 0.799133
C35   C     C_R   0.650752 0.497318 0.495569 0.288121
C36   C     C_R   0.437885 0.454396 0.513598 -0.083932
C37   C     C_R   0.439753 0.375077 0.597762 0.116085
C38   C     C_R   0.543923 0.354579 0.626319 -0.271055
C39   C     C_R   0.647795 0.417072 0.578269 -0.182976
C40   C     C_R   0.341477 0.491182 0.495425 0.220740
C41   C     C_R   0.243961 0.354117 0.627925 -0.015070
C42   C     C_R   0.021820 0.603165 0.166446 0.077541
C43   C     C_R   0.001042 0.498839 0.232830 -0.144222
C44   C     C_R   0.983545 0.395255 0.207366 0.070763
C45   C     C_R   0.994606 0.399412 0.114419 0.096962
C46   C     C_R   0.001786 0.499284 0.046639 -0.027531
Cu1   Cu    Cu3+1 0.098270 0.475420 0.521130 0.903626
Cu2   Cu    Cu3+1 0.901730 0.524580 0.478870 0.905945
H1    H     H_    0.259165 0.108504 0.360799 0.130381
H2    H     H_    0.362109 0.802311 0.566480 0.152102
H3    H     H_    0.535916 0.845298 0.621861 0.129212
H4    H     H_    0.736823 0.899329 0.678942 0.154897
H5    H     H_    0.692490 0.263204 0.372556 0.184372
H6    H     H_    0.167208 0.313919 0.669312 0.131571
H7    H     H_    0.549221 0.293350 0.688679 0.164056
H8    H     H_    0.828309 0.667820 0.322222 0.137868
H9    H     H_    0.447824 0.515328 0.318862 0.141726
H10   H     H_    0.631094 0.647104 0.241014 0.148665
H11   H     H_    0.721841 0.395182 0.605909 0.201075
H12   H     H_    0.997613 0.229629 0.135875 0.153155
H13   H     H_    0.003348 0.234832 0.975803 0.141310
H14   H     H_    0.004736 0.332266 0.813980 0.130330
H15   H     H_    0.993739 0.665712 0.737635 0.139378
H16   H     H_    0.000992 0.764849 0.856700 0.144969
H17   H     H_    0.012139 0.771250 0.016654 0.152492
N1    N     N_R   0.246280 0.438190 0.553160 -0.204836
N2    N     N_R   0.754320 0.561190 0.447410 -0.210560
O1    O     O_R   0.972510 0.318130 0.526570 -0.595055
O2    O     O_R   0.806530 0.359650 0.490890 -0.580306
O3    O     O_R   0.082980 0.479210 0.647590 -0.578594
O4    O     O_R   0.917000 0.520730 0.611900 -0.599878
O5    O     O_R   0.193470 0.640350 0.509110 -0.588150
O6    O     O_R   0.027490 0.681870 0.473430 -0.588261
O7    O     O_R   0.083000 0.479270 0.388100 -0.604036
O8    O     O_R   0.917020 0.520790 0.352410 -0.593784
C47   C     C_3   0.062724 0.718890 0.196654 -0.412727
C48   C     C_3   0.194973 0.800122 0.178110 -0.856771
H18   H     H_    0.253857 0.755736 0.212504 0.254489
H19   H     H_    0.207319 0.827001 0.103052 0.258863
H20   H     H_    0.224215 0.879636 0.206495 0.239331
H21   H     H_    0.002385 0.761601 0.162490 0.184897
H22   H     H_    0.058169 0.708155 0.271414 0.202820
C49   C     C_3   0.467886 0.251797 0.300756 -0.405798
C50   C     C_3   0.572673 0.351286 0.247730 -0.833512
H23   H     H_    0.640865 0.406973 0.294574 0.277410
H24   H     H_    0.615986 0.316350 0.212834 0.242829
H25   H     H_    0.537064 0.406529 0.193870 0.239572
H26   H     H_    0.402309 0.201913 0.249117 0.198517
H27   H     H_    0.422799 0.290924 0.329711 0.204564
C51   C     C_3   0.932811 0.115071 0.651869 -0.364879
C52   C     C_3   0.954214 0.024067 0.730753 -0.930729
H28   H     H_    0.890779 0.994771 0.785005 0.256154
H29   H     H_    0.944130 0.948631 0.704080 0.253115
H30   H     H_    0.047901 0.063319 0.763223 0.251246
H31   H     H_    0.999445 0.141297 0.600710 0.222026
H32   H     H_    0.952575 0.190725 0.682524 0.200680
C53   C     C_3   0.328742 0.225009 0.737552 -0.425528
C54   C     C_3   0.298208 0.110079 0.710286 -0.823896
H33   H     H_    0.211698 0.083226 0.665740 0.254070
H34   H     H_    0.287647 0.041186 0.773428 0.239321
H35   H     H_    0.371016 0.117979 0.672202 0.259156
H36   H     H_    0.413029 0.250922 0.784416 0.201692
H37   H     H_    0.255801 0.210195 0.779125 0.189843
C55   C     C_3   0.947713 0.279827 0.277737 -0.395904
C56   C     C_3   0.817379 0.193329 0.255714 -0.868939
H38   H     H_    0.755745 0.236486 0.241899 0.253808
H39   H     H_    0.809811 0.157311 0.194586 0.258798
H40   H     H_    0.786782 0.119766 0.315595 0.242494
H41   H     H_    0.012108 0.241580 0.281253 0.187889
H42   H     H_    0.951812 0.290028 0.349100 0.220058
C57   C     C_3   0.351957 0.597597 0.418997 -0.329397
C58   C     C_3   0.462021 0.710292 0.437747 -0.362654
C59   C     C_3   0.471729 0.813533 0.359070 -0.840188
H43   H     H_    0.482935 0.796785 0.293336 0.251615
H44   H     H_    0.389259 0.828939 0.350627 0.259022
H45   H     H_    0.551945 0.893096 0.374554 0.253348
H46   H     H_    0.453041 0.728225 0.503178 0.220370
H47   H     H_    0.548728 0.702788 0.446860 0.231548
H48   H     H_    0.347596 0.582799 0.349787 0.148457
H49   H     H_    0.273637 0.615378 0.406639 0.255910
C60   C     C_3   0.064517 0.922812 0.418417 -0.381888
C61   C     C_3   0.013792 0.921879 0.317339 -0.353389
C62   C     C_3   0.893467 0.931574 0.300847 -0.879610
H50   H     H_    0.827271 0.861862 0.348886 0.264460
H51   H     H_    0.908324 0.017239 0.311951 0.263691
H52   H     H_    0.855179 0.924018 0.228623 0.240397
H53   H     H_    0.078670 0.995845 0.270545 0.212844
H54   H     H_    0.000220 0.840240 0.299539 0.214602
H55   H     H_    0.001940 0.847316 0.465059 0.219050
H56   H     H_    0.067232 0.999837 0.438381 0.188836

loop_
_geom_bond_atom_site_label_1
_geom_bond_atom_site_label_2
_ccdc_geom_bond_type
C16   C28   A    
C55   H42   S    
C21   C26   A    
C16   C51   S    
C57   C58   S    
C50   H25   S    
C60   H56   S    
C33   C36   A    
C53   C54   S    
C27   C60   S    
C62   H50   S    
C48   H18   S    
C2    C46   A    
C56   H39   S    
C31   H10   S    
C36   C37   A    
C19   C21   A    
C24   C49   S    
C50   H24   S    
C26   H2    S    
C5    C6    A    
C62   H51   S    
C14   H1    S    
C20   C25   A    
C41   N1    A    
C1    O1    A    
C57   H48   S    
C18   C19   A    
C61   H53   S    
C58   C59   S    
C38   H7    S    
Cu1   Cu2   S    
C16   C17   A    
C1    C28   S    
C14   C27   A    
Cu2   O2    S    
Cu1   N1    S    
C30   N2    A    
C34   O8    A    
C59   H45   S    
C3    H12   S    
C15   C23   S    
C49   H26   S    
C40   N1    A    
C21   C22   A    
C25   H5    S    
Cu2   O8    S    
C10   H14   S    
C32   H9    S    
C23   O6    A    
C23   O5    A    
C17   H4    S    
C55   C56   S    
C18   H3    S    
C40   C57   S    
C47   C48   S    
C48   H19   S    
C44   C55   S    
C49   H27   S    
C56   H40   S    
C36   C40   A    
C50   H23   S    
C47   H22   S    
C52   H28   S    
C8    C9    A    
C62   H52   S    
C20   C28   A    
C45   C46   A    
C30   H8    S    
C4    H13   S    
C3    C45   A    
C1    O2    A    
C57   H49   S    
C35   C39   A    
C43   C44   A    
Cu1   O3    S    
C37   C38   A    
C52   H29   S    
C15   C27   A    
C49   C50   S    
C13   H15   S    
C35   N2    A    
C30   C31   A    
C39   H11   S    
C17   C18   A    
C24   C25   A    
C60   C61   S    
C53   H37   S    
C8    H16   S    
C12   O4    A    
C34   O7    A    
C54   H34   S    
C22   C24   A    
C42   C43   A    
Cu2   O4    S    
C3    C4    A    
Cu1   O1    S    
C44   C45   A    
C59   H43   S    
C48   H20   S    
C12   O3    A    
C6    C46   A    
C29   C41   A    
Cu2   O6    S    
C31   C32   A    
C34   C43   S    
C53   H36   S    
Cu1   O7    S    
C60   H55   S    
C4    C5    A    
C15   C26   A    
C51   H31   S    
C47   H21   S    
C11   C12   S    
C51   H32   S    
C6    C7    A    
C54   H35   S    
C56   H38   S    
C42   C47   S    
C29   C53   S    
C58   H46   S    
C32   C33   A    
C14   C22   A    
C19   C20   A    
C5    C10   A    
C52   H30   S    
C58   H47   S    
C11   C13   A    
C51   C52   S    
C38   C39   A    
C2    C42   A    
C33   C35   A    
Cu2   N2    S    
C61   H54   S    
C9    H17   S    
C41   H6    S    
C7    C8    A    
C10   C11   A    
C7    C13   A    
Cu1   O5    S    
C54   H33   S    
C29   C37   A    
C55   H41   S    
C61   C62   S    
C2    C9    A    
C59   H44   S    
