data_mof_unit_53935.cif
_audit_creation_date              2012-12-11T16:52:10-0500
_audit_creation_method            fapswitch 2.2
_symmetry_space_group_name_H-M    P1
_symmetry_Int_Tables_number       1
_space_group_crystal_system       triclinic
_cell_length_a                    7.209432
_cell_length_b                    25.960938
_cell_length_c                    28.8578
_cell_angle_alpha                 90.000081
_cell_angle_beta                  89.999398
_cell_angle_gamma                 89.999977
_cell_volume                      5401.13023118

loop_
_atom_site_label
_atom_site_type_symbol
_atom_type_description
_atom_site_fract_x
_atom_site_fract_y
_atom_site_fract_z
_atom_type_partial_charge
O1    O     O_R   0.601030 0.796770 0.202460 -0.537926
O2    O     O_R   0.398970 0.203230 0.797540 -0.534556
O3    O     O_R   0.398970 0.203230 0.702460 -0.537818
O4    O     O_R   0.601030 0.796770 0.297540 -0.534648
O5    O     O_R   0.101030 0.703230 0.297540 -0.537803
O6    O     O_R   0.898970 0.296770 0.702460 -0.534667
O7    O     O_R   0.898970 0.296770 0.797540 -0.537918
O8    O     O_R   0.101030 0.703230 0.202460 -0.534565
O9    O     O_R   0.271290 0.802910 0.297210 -0.539173
O10   O     O_R   0.728710 0.197090 0.702790 -0.537628
O11   O     O_R   0.728710 0.197090 0.797210 -0.539095
O12   O     O_R   0.271290 0.802910 0.202790 -0.537726
O13   O     O_R   0.771290 0.697090 0.202790 -0.539105
O14   O     O_R   0.228710 0.302910 0.797210 -0.537719
O15   O     O_R   0.228710 0.302910 0.702790 -0.539189
O16   O     O_R   0.771290 0.697090 0.297210 -0.537613
C1    C     C_R   0.439882 0.815160 0.312489 0.698119
C2    C     C_R   0.560038 0.184907 0.687394 0.698092
C3    C     C_R   0.560120 0.184847 0.812488 0.697945
C4    C     C_R   0.439966 0.815094 0.187389 0.698171
C5    C     C_R   0.939881 0.684847 0.187512 0.697920
C6    C     C_R   0.060035 0.315094 0.812611 0.698192
C7    C     C_R   0.060117 0.315161 0.687511 0.698109
C8    C     C_R   0.939962 0.684908 0.312605 0.698087
O17   O     O_3   0.434520 0.717290 0.250000 -0.374165
O18   O     O_3   0.565480 0.282710 0.750000 -0.374375
O19   O     O_3   0.934520 0.782710 0.250000 -0.374368
O20   O     O_3   0.065480 0.217290 0.750000 -0.374164
V1    V     V_3+5 0.159680 0.756060 0.250000 1.404754
V2    V     V_3+5 0.840320 0.243940 0.750000 1.404855
V3    V     V_3+5 0.659680 0.743940 0.250000 1.404897
V4    V     V_3+5 0.340320 0.256060 0.750000 1.404709
C9    C     C_R   0.909369 0.391203 0.649912 -0.224949
C10   C     C_R   0.092941 0.651263 0.384223 -0.222606
C11   C     C_R   0.089343 0.608456 0.150196 -0.224812
C12   C     C_R   0.905861 0.349071 0.883958 -0.222857
C13   C     C_R   0.410718 0.108441 0.849793 -0.224803
C14   C     C_R   0.594195 0.849089 0.116055 -0.222865
C15   C     C_R   0.590388 0.891266 0.350037 -0.224931
C16   C     C_R   0.406847 0.151199 0.615825 -0.222648
H1    H     H_    0.809339 0.392275 0.677924 0.135352
H2    H     H_    0.194451 0.681911 0.381630 0.132084
H3    H     H_    0.188374 0.607116 0.178419 0.134956
H4    H     H_    0.803414 0.318689 0.881143 0.132401
H5    H     H_    0.311735 0.107088 0.821559 0.134939
H6    H     H_    0.696685 0.818720 0.118879 0.132419
H7    H     H_    0.690232 0.892390 0.321985 0.135277
H8    H     H_    0.305170 0.181800 0.618456 0.132163
C17   C     C_R   0.900049 0.428814 0.615039 0.431933
C18   C     C_R   0.102099 0.617433 0.422062 0.430036
C19   C     C_R   0.098516 0.570831 0.115332 0.432245
C20   C     C_R   0.896572 0.382890 0.921802 0.429755
C21   C     C_R   0.401551 0.070816 0.884658 0.432260
C22   C     C_R   0.603491 0.882909 0.078213 0.429741
C23   C     C_R   0.599680 0.928878 0.384910 0.431995
C24   C     C_R   0.397665 0.117368 0.577988 0.429990
C25   C     C_R   0.024733 0.426925 0.576951 -0.013973
C26   C     C_R   0.975418 0.575744 0.425451 -0.013062
C27   C     C_R   0.975194 0.573070 0.076983 -0.013927
C28   C     C_R   0.024507 0.424248 0.925485 -0.013103
C29   C     C_R   0.524809 0.073073 0.923018 -0.013926
C30   C     C_R   0.475497 0.924252 0.074517 -0.013106
C31   C     C_R   0.475251 0.926921 0.423048 -0.013966
C32   C     C_R   0.524573 0.075738 0.574549 -0.013074
C33   C     C_R   0.164831 0.389017 0.577223 -0.186884
C34   C     C_R   0.833818 0.571882 0.391904 -0.188300
C35   C     C_R   0.836399 0.611347 0.076978 -0.187305
C36   C     C_R   0.167288 0.427790 0.892223 -0.187923
C37   C     C_R   0.663543 0.111368 0.923035 -0.187320
C38   C     C_R   0.332660 0.927778 0.107765 -0.187907
C39   C     C_R   0.335393 0.888944 0.422825 -0.186955
C40   C     C_R   0.666386 0.071935 0.608045 -0.188230
H9    H     H_    0.262307 0.386094 0.548811 0.129199
H10   H     H_    0.734593 0.540620 0.393133 0.130293
H11   H     H_    0.739994 0.614543 0.048364 0.129068
H12   H     H_    0.267494 0.458798 0.893681 0.130455
H13   H     H_    0.759898 0.114577 0.951659 0.129064
H14   H     H_    0.232409 0.958773 0.106297 0.130465
H15   H     H_    0.238116 0.885969 0.451275 0.129180
H16   H     H_    0.765788 0.040719 0.606776 0.130323
C41   C     C_R   0.179242 0.353595 0.613624 -0.156040
C42   C     C_R   0.819794 0.607685 0.355760 -0.158208
C43   C     C_R   0.821962 0.646782 0.113368 -0.156175
C44   C     C_R   0.181284 0.391997 0.856069 -0.158039
C45   C     C_R   0.677982 0.146802 0.886644 -0.156181
C46   C     C_R   0.318666 0.891984 0.143918 -0.158035
C47   C     C_R   0.320978 0.853521 0.386425 -0.156063
C48   C     C_R   0.680403 0.107739 0.644189 -0.158175
H17   H     H_    0.288155 0.324860 0.612649 0.123700
H18   H     H_    0.709170 0.603564 0.330636 0.132244
H19   H     H_    0.714067 0.675803 0.112190 0.123245
H20   H     H_    0.292841 0.395875 0.831173 0.132617
H21   H     H_    0.785829 0.175836 0.887831 0.123220
H22   H     H_    0.207065 0.895850 0.168804 0.132641
H23   H     H_    0.212253 0.824733 0.387436 0.123600
H24   H     H_    0.791193 0.103663 0.669272 0.132319
C49   C     C_R   0.050118 0.353917 0.649947 -0.104437
C50   C     C_R   0.950710 0.647317 0.351216 -0.107224
C51   C     C_R   0.949859 0.646099 0.149953 -0.103885
C52   C     C_R   0.049255 0.352689 0.851230 -0.107715
C53   C     C_R   0.550143 0.146101 0.850047 -0.103862
C54   C     C_R   0.450746 0.852691 0.148770 -0.107734
C55   C     C_R   0.449875 0.853913 0.350053 -0.104330
C56   C     C_R   0.549286 0.147314 0.648783 -0.107315
C57   C     C_R   0.172872 0.483818 0.516339 -0.191082
C58   C     C_R   0.826938 0.516427 0.484142 -0.190959
C59   C     C_R   0.827161 0.516592 0.016045 -0.190844
C60   C     C_R   0.173034 0.483119 0.984532 -0.191281
C61   C     C_R   0.672836 0.016616 0.983973 -0.190832
C62   C     C_R   0.326968 0.983103 0.015454 -0.191299
C63   C     C_R   0.327133 0.983734 0.483724 -0.191032
C64   C     C_R   0.673061 0.016501 0.515792 -0.191020
H25   H     H_    0.308904 0.472577 0.528595 0.119717
H26   H     H_    0.690962 0.528988 0.472930 0.120257
H27   H     H_    0.691117 0.528175 0.028032 0.119255
H28   H     H_    0.308946 0.470218 0.973584 0.120783
H29   H     H_    0.808880 0.028216 0.971999 0.119232
H30   H     H_    0.191060 0.970186 0.026388 0.120810
H31   H     H_    0.191098 0.972429 0.471517 0.119624
H32   H     H_    0.809026 0.029126 0.526956 0.120356
C65   C     C_R   0.161389 0.518792 0.479522 -0.119466
C66   C     C_R   0.838375 0.480041 0.519849 -0.121823
C67   C     C_R   0.838682 0.481617 0.979230 -0.119255
C68   C     C_R   0.161641 0.519503 0.020241 -0.121882
C69   C     C_R   0.661314 0.981642 0.020788 -0.119248
C70   C     C_R   0.338359 0.019487 0.979744 -0.121886
C71   C     C_R   0.338625 0.018706 0.520540 -0.119431
C72   C     C_R   0.661631 0.980117 0.480085 -0.121834
H33   H     H_    0.288938 0.531630 0.463500 0.146495
H34   H     H_    0.710767 0.464365 0.533646 0.146734
H35   H     H_    0.711239 0.469122 0.962939 0.146369
H36   H     H_    0.289304 0.534838 0.034313 0.146869
H37   H     H_    0.788751 0.969164 0.037092 0.146365
H38   H     H_    0.210693 0.034805 0.965659 0.146876
H39   H     H_    0.211097 0.031481 0.536613 0.146467
H40   H     H_    0.789249 0.964505 0.466235 0.146753
C73   C     C_R   0.988322 0.536645 0.463573 0.097179
C74   C     C_R   0.011531 0.464094 0.537300 0.094963
C75   C     C_R   0.011662 0.463335 0.963619 0.097250
C76   C     C_R   0.988459 0.535887 0.037345 0.094946
C77   C     C_R   0.488339 0.963339 0.036384 0.097250
C78   C     C_R   0.511542 0.035891 0.962657 0.094946
C79   C     C_R   0.511679 0.036638 0.536426 0.097177
C80   C     C_R   0.488467 0.964090 0.462698 0.094962
O21   O     O_3   0.763800 0.466173 0.618242 -0.585752
C81   C     C_3   0.841592 0.512749 0.634820 0.069432
H41   H     H_    0.759199 0.544922 0.619956 0.146233
H42   H     H_    0.987817 0.519110 0.623402 0.112068
C82   C     C_3   0.828513 0.515324 0.687766 -0.316769
H43   H     H_    0.682271 0.509135 0.698629 0.204819
H44   H     H_    0.915400 0.484513 0.703331 0.186086
C83   C     C_3   0.894833 0.567329 0.705989 -0.832900
H45   H     H_    0.041805 0.573946 0.696067 0.231547
H46   H     H_    0.884350 0.567908 0.744374 0.233704
H47   H     H_    0.807625 0.598873 0.691781 0.229397
O22   O     O_3   0.239518 0.625110 0.454791 -0.586440
C84   C     C_3   0.165844 0.651955 0.493338 0.071117
H48   H     H_    0.244693 0.639446 0.524445 0.146253
H49   H     H_    0.017193 0.642758 0.500480 0.110244
C85   C     C_3   0.191507 0.710191 0.487250 -0.318933
H50   H     H_    0.339626 0.718680 0.479745 0.206137
H51   H     H_    0.106512 0.723924 0.457626 0.182627
C86   C     C_3   0.132842 0.739502 0.530663 -0.831010
H52   H     H_    0.984291 0.732104 0.538434 0.231718
H53   H     H_    0.152153 0.781475 0.525015 0.232108
H54   H     H_    0.218690 0.727516 0.560755 0.229815
O23   O     O_3   0.233285 0.533091 0.118818 -0.585666
C87   C     C_3   0.153210 0.486727 0.135200 0.069460
H55   H     H_    0.235096 0.454333 0.120551 0.146215
H56   H     H_    0.007257 0.480755 0.123403 0.112205
C88   C     C_3   0.163995 0.484125 0.188177 -0.316846
H57   H     H_    0.309989 0.489916 0.199418 0.204795
H58   H     H_    0.077561 0.515173 0.203517 0.186113
C89   C     C_3   0.095078 0.432307 0.206228 -0.832807
H59   H     H_    0.948300 0.426091 0.195926 0.231597
H60   H     H_    0.103941 0.431704 0.244639 0.233696
H61   H     H_    0.181747 0.400523 0.192248 0.229392
O24   O     O_3   0.757812 0.375546 0.954238 -0.586549
C90   C     C_3   0.829161 0.348355 0.992861 0.071137
H62   H     H_    0.749955 0.361056 0.023849 0.146278
H63   H     H_    0.977994 0.357026 0.000294 0.110060
C91   C     C_3   0.801091 0.290227 0.986602 -0.318851
H64   H     H_    0.652862 0.282269 0.978770 0.206180
H65   H     H_    0.886457 0.276269 0.957129 0.182413
C92   C     C_3   0.856970 0.260608 0.030074 -0.831178
H66   H     H_    0.005568 0.267477 0.038174 0.231660
H67   H     H_    0.835989 0.218718 0.024294 0.232107
H68   H     H_    0.770640 0.272812 0.060008 0.229848
O25   O     O_3   0.266851 0.033059 0.881159 -0.585662
C93   C     C_3   0.347033 0.986704 0.864789 0.069458
H69   H     H_    0.265169 0.954300 0.879429 0.146213
H70   H     H_    0.492971 0.980750 0.876605 0.112213
C94   C     C_3   0.336360 0.984098 0.811811 -0.316848
H71   H     H_    0.190380 0.989869 0.800551 0.204796
H72   H     H_    0.422774 0.015156 0.796480 0.186120
C95   C     C_3   0.405400 0.932287 0.793771 -0.832793
H73   H     H_    0.552167 0.926090 0.804092 0.231600
H74   H     H_    0.396615 0.931681 0.755359 0.233699
H75   H     H_    0.318755 0.900493 0.807742 0.229390
O26   O     O_3   0.742318 0.875583 0.045791 -0.586554
C96   C     C_3   0.671080 0.848381 0.007161 0.071128
H76   H     H_    0.750306 0.861094 0.976181 0.146279
H77   H     H_    0.522240 0.857029 0.999715 0.110053
C97   C     C_3   0.699260 0.790258 0.013424 -0.318834
H78   H     H_    0.847493 0.782324 0.021271 0.206183
H79   H     H_    0.613875 0.776287 0.042888 0.182408
C98   C     C_3   0.643513 0.760629 0.969946 -0.831188
H80   H     H_    0.494915 0.767474 0.961831 0.231655
H81   H     H_    0.664572 0.718743 0.975728 0.232116
H82   H     H_    0.729867 0.772847 0.940021 0.229848
O27   O     O_3   0.735652 0.966310 0.381655 -0.585734
C99   C     C_3   0.657423 0.012848 0.365120 0.069436
H83   H     H_    0.739737 0.045061 0.379941 0.146228
H84   H     H_    0.511257 0.019137 0.376616 0.112097
C100  C     C_3   0.670033 0.015433 0.312167 -0.316787
H85   H     H_    0.816223 0.009321 0.301226 0.204815
H86   H     H_    0.583221 0.984578 0.296646 0.186099
C101  C     C_3   0.603206 0.067404 0.293983 -0.832874
H87   H     H_    0.456276 0.073945 0.303984 0.231556
H88   H     H_    0.613356 0.067992 0.255592 0.233705
H89   H     H_    0.690323 0.098993 0.308145 0.229395
O28   O     O_3   0.260001 0.124982 0.545311 -0.586456
C102  C     C_3   0.333270 0.151871 0.506741 0.071093
H90   H     H_    0.254329 0.139324 0.475660 0.146259
H91   H     H_    0.481943 0.142754 0.499545 0.110222
C103  C     C_3   0.307237 0.210092 0.512845 -0.318887
H92   H     H_    0.159106 0.218500 0.520408 0.206148
H93   H     H_    0.392317 0.223867 0.542438 0.182612
C104  C     C_3   0.365431 0.239440 0.469413 -0.831037
H94   H     H_    0.513985 0.232123 0.461584 0.231701
H95   H     H_    0.345863 0.281403 0.475074 0.232136
H96   H     H_    0.279482 0.227412 0.439353 0.229816

loop_
_geom_bond_atom_site_label_1
_geom_bond_atom_site_label_2
_ccdc_geom_bond_type
O17   V3    S    
C24   O28   S    
C88   H57   S    
C48   H24   S    
O18   V4    S    
C84   H48   S    
O12   V1    S    
C38   H14   S    
C96   H77   S    
C96   H76   S    
C19   O23   S    
C102  H90   S    
C10   H2    S    
C59   C67   A    
C62   H30   S    
C39   H15   S    
O21   C81   S    
C97   H79   S    
C102  C103  S    
C17   C25   A    
O15   V4    S    
O16   V3    S    
C35   C43   A    
C88   H58   S    
O11   C3    A    
C93   H69   S    
C58   H26   S    
C8    C50   S    
O8    V1    S    
C64   C79   A    
C57   H25   S    
O22   C84   S    
C86   H53   S    
C71   H39   S    
C104  H96   S    
C100  H86   S    
C5    C51   S    
C87   H56   S    
C92   H67   S    
O19   V1    S    
C9    C17   A    
C34   H10   S    
C67   C75   A    
O1    V3    S    
C33   H9    S    
C99   H83   S    
C68   H36   S    
O3    C2    A    
C63   H31   S    
C22   O26   S    
C65   C73   A    
C59   C76   A    
C103  C104  S    
C91   H64   S    
C20   C28   A    
C93   C94   S    
C27   C35   A    
C57   C74   A    
C89   H59   S    
C37   H13   S    
C26   C34   A    
C87   C88   S    
C15   C23   A    
C86   H52   S    
O11   V2    S    
C18   O22   S    
O26   C96   S    
C16   C24   A    
C23   C31   A    
C98   H82   S    
C31   C80   S    
C24   C32   A    
C61   C78   A    
C11   H3    S    
C81   H42   S    
C12   C20   A    
O9    V1    S    
C14   C54   A    
C90   C91   S    
C41   H17   S    
O15   C7    A    
C84   H49   S    
O7    V2    S    
C43   C51   A    
C13   C21   A    
C42   C50   A    
C30   C38   A    
O12   C4    A    
O25   C93   S    
C21   C29   A    
C60   C68   A    
C95   H75   S    
C11   C51   A    
C70   H38   S    
C40   C48   A    
C68   C76   A    
O24   C90   S    
C19   C27   A    
O5    V1    S    
C46   H22   S    
C88   C89   S    
C10   C18   A    
C6    C52   S    
C61   H29   S    
C98   H80   S    
C36   C44   A    
C85   C86   S    
C86   H54   S    
C66   C74   A    
C95   H74   S    
C100  C101  S    
C69   C77   A    
O23   C87   S    
C64   H32   S    
C64   C72   A    
C58   C73   A    
C2    C56   S    
C22   C30   A    
C94   H72   S    
C67   H35   S    
C70   C78   A    
C47   H23   S    
C91   C92   S    
C44   C52   A    
C62   C77   A    
C100  H85   S    
O27   C99   S    
C104  H94   S    
C17   O21   S    
C37   C45   A    
C34   C42   A    
C81   C82   S    
O10   V2    S    
C101  H88   S    
C45   H21   S    
C14   C22   A    
C83   H47   S    
C94   C95   S    
C25   C33   A    
C58   C66   A    
O8    C5    A    
C18   C26   A    
C57   C65   A    
O3    V4    S    
C12   C52   A    
C71   C79   A    
O9    C1    A    
O2    V4    S    
C72   C80   A    
C89   H61   S    
C59   H27   S    
C63   C80   A    
C62   C70   A    
C47   C55   A    
O4    C1    A    
C26   C73   S    
C61   C69   A    
C87   H55   S    
O6    V2    S    
C31   C39   A    
C94   H71   S    
C84   C85   S    
C103  H93   S    
C11   C19   A    
C104  H95   S    
C96   C97   S    
C39   C47   A    
C82   C83   S    
C35   H11   S    
C30   C77   S    
C13   H5    S    
C46   C54   A    
C45   C53   A    
C101  H89   S    
C15   H7    S    
C81   H41   S    
C83   H46   S    
C69   H37   S    
C16   H8    S    
C65   H33   S    
O1    C4    A    
C93   H70   S    
C7    C49   S    
O2    C3    A    
C99   C100  S    
O13   V3    S    
O14   V4    S    
C95   H73   S    
C92   H68   S    
C60   C75   A    
C102  H91   S    
C15   C55   A    
C32   C79   S    
C36   H12   S    
O7    C6    A    
C43   H19   S    
C63   C71   A    
C92   H66   S    
C42   H18   S    
C29   C37   A    
C85   H50   S    
C60   H28   S    
C72   H40   S    
C16   C56   A    
C1    C55   S    
C9    H1    S    
C40   H16   S    
C82   H43   S    
O13   C5    A    
C13   C53   A    
C3    C53   S    
O14   C6    A    
C101  H87   S    
O5    C8    A    
C41   C49   A    
C27   C76   S    
O10   C2    A    
O6    C7    A    
O20   V2    S    
C10   C50   A    
C89   H60   S    
C25   C74   S    
C97   C98   S    
C9    C49   A    
C32   C40   A    
O28   C102  S    
C91   H65   S    
C14   H6    S    
O4    V3    S    
C12   H4    S    
C99   H84   S    
C28   C75   S    
C23   O27   S    
C90   H62   S    
C82   H44   S    
C29   C78   S    
C4    C54   S    
C97   H78   S    
C28   C36   A    
O16   C8    A    
C103  H92   S    
C98   H81   S    
C33   C41   A    
C83   H45   S    
C44   H20   S    
C20   O24   S    
C21   O25   S    
C48   C56   A    
C66   H34   S    
C85   H51   S    
C90   H63   S    
C38   C46   A    
