data_mof_unit_56562.cif
_audit_creation_date              2013-03-05T16:07:23-0500
_audit_creation_method            fapswitch 2.2
_symmetry_space_group_name_H-M    P1
_symmetry_Int_Tables_number       1
_space_group_crystal_system       triclinic
_cell_length_a                    9.572787
_cell_length_b                    10.89492
_cell_length_c                    17.061936
_cell_angle_alpha                 85.841893
_cell_angle_beta                  94.590893
_cell_angle_gamma                 89.88485
_cell_volume                      1769.0374942

loop_
_atom_site_label
_atom_site_type_symbol
_atom_site_description
_atom_site_fract_x
_atom_site_fract_y
_atom_site_fract_z
_atom_type_partial_charge
O1    O     O_R   0.618740 0.319660 0.500000 -0.553884
O2    O     O_R   0.381260 0.680340 0.500000 -0.578505
O3    O     O_R   0.381170 0.319630 0.500010 -0.544194
O4    O     O_R   0.618830 0.680370 0.499990 -0.514319
C1    C     C_R   0.499260 0.262466 0.497755 0.824072
C2    C     C_R   0.500409 0.737969 0.498250 0.872755
O5    O     O_R   0.631780 0.498870 0.613920 -0.581504
O6    O     O_R   0.368220 0.501130 0.386080 -0.506727
O7    O     O_R   0.394210 0.498840 0.613930 -0.544057
O8    O     O_R   0.605790 0.501160 0.386070 -0.585060
C3    C     C_R   0.518507 0.501837 0.651297 0.828502
C4    C     C_R   0.481481 0.496921 0.348664 0.798448
Cu1   Cu    Cu3+1 0.640660 0.500020 0.500000 1.017236
Cu2   Cu    Cu3+1 0.359340 0.499980 0.500000 1.034989
C5    C     C_R   0.530784 0.497921 0.738853 -0.117119
C6    C     C_R   0.473019 0.488661 0.261530 -0.149619
C7    C     C_R   0.412484 0.462843 0.778160 -0.234916
C8    C     C_R   0.597801 0.458787 0.229201 -0.256433
C9    C     C_R   0.420454 0.438457 0.859826 -0.005762
C10   C     C_R   0.613004 0.478052 0.148841 -0.004086
C11   C     C_R   0.550460 0.448882 0.903765 0.206883
C12   C     C_R   0.494834 0.512277 0.097065 0.197821
C13   C     C_R   0.670573 0.486507 0.865995 -0.089859
C14   C     C_R   0.363808 0.531406 0.127021 -0.103681
C15   C     C_R   0.659155 0.518666 0.783756 -0.044440
C16   C     C_R   0.352011 0.519488 0.209705 -0.063215
N1    N     N_2   0.556929 0.434748 0.987103 -0.284263
N2    N     N_2   0.502663 0.525154 0.014167 -0.272948
H1    H     H_    0.688816 0.429047 0.267829 0.197276
H2    H     H_    0.312999 0.452174 0.744748 0.230803
C17   C     C_R   0.370264 0.063662 0.485848 0.450596
C18   C     C_R   0.628575 0.938780 0.493633 0.429984
C19   C     C_R   0.374517 0.935684 0.491011 -0.337119
C20   C     C_R   0.625029 0.066010 0.493715 -0.287819
H3    H     H_    0.277040 0.886139 0.490814 0.179823
H4    H     H_    0.723201 0.115080 0.492990 0.217181
C21   C     C_R   0.502058 0.872310 0.494793 -0.173724
C22   C     C_R   0.497452 0.128998 0.493223 -0.186961
C23   C     C_R   0.084259 0.423399 0.553307 0.483151
C24   C     C_R   0.916092 0.580180 0.449385 0.440755
C25   C     C_R   0.934173 0.423528 0.552993 -0.093888
C26   C     C_R   0.065588 0.584396 0.452212 -0.041447
N3    N     N_R   0.852070 0.500030 0.499980 -0.237706
N4    N     N_R   0.147930 0.499970 0.500020 -0.214111
C27   C     C_2   0.755656 0.474282 0.121230 0.396448
H5    H     H_    0.778098 0.526433 0.067436 0.119944
O9    O     O_2   0.850434 0.416187 0.159444 -0.518982
C28   C     C_2   0.292947 0.399693 0.899123 0.372813
H6    H     H_    0.301114 0.363904 0.960333 0.112773
O10   O     O_2   0.176827 0.407859 0.863791 -0.559378
C29   C     C_2   0.805913 0.492963 0.914493 0.378215
H7    H     H_    0.834446 0.419847 0.959554 0.109438
O11   O     O_2   0.883877 0.580800 0.906773 -0.510104
C30   C     C_2   0.240508 0.562743 0.069600 0.341168
H8    H     H_    0.255761 0.609463 0.012599 0.124576
O12   O     O_2   0.121662 0.532972 0.083609 -0.513355
C31   C     C_2   0.778664 0.579296 0.746872 0.427252
H9    H     H_    0.885186 0.547155 0.762779 0.111385
O13   O     O_2   0.759236 0.669809 0.700869 -0.590214
C32   C     C_2   0.214931 0.545195 0.239515 0.576490
H10   H     H_    0.161134 0.631476 0.221067 0.068951
O14   O     O_2   0.156836 0.467643 0.280343 -0.546150
O15   O     O_3   0.242222 0.124953 0.477298 -0.624044
C33   C     C_3   0.171120 0.107447 0.402842 0.036873
H11   H     H_    0.063852 0.146389 0.403350 0.174888
H12   H     H_    0.157567 0.008522 0.392208 0.126184
C34   C     C_3   0.243660 0.174594 0.335122 -0.360059
H13   H     H_    0.264724 0.270888 0.349151 0.272830
H14   H     H_    0.345572 0.129113 0.328370 0.196352
C35   C     C_3   0.153502 0.173977 0.257237 -0.765391
H15   H     H_    0.133497 0.077911 0.241784 0.232120
H16   H     H_    0.208907 0.222999 0.209626 0.271601
H17   H     H_    0.051858 0.221435 0.261487 0.289823
O16   O     O_3   0.754999 0.882279 0.484672 -0.588795
C36   C     C_3   0.829835 0.855512 0.558894 0.151809
H18   H     H_    0.846149 0.754320 0.566314 0.222202
H19   H     H_    0.774764 0.882061 0.610593 0.149745
C37   C     C_3   0.972458 0.918340 0.560150 -0.403502
H20   H     H_    0.008492 0.928530 0.499986 0.229748
H21   H     H_    0.961725 0.012268 0.579995 0.226678
C38   C     C_3   0.082133 0.844841 0.614424 -0.884221
H22   H     H_    0.047105 0.830877 0.674909 0.281774
H23   H     H_    0.182744 0.895066 0.616876 0.260557
H24   H     H_    0.100077 0.753625 0.591636 0.250340
O17   O     O_3   0.167326 0.375110 0.618782 -0.610468
C39   C     C_3   0.161452 0.245699 0.631597 0.068194
H25   H     H_    0.261418 0.206257 0.615844 0.200075
H26   H     H_    0.075805 0.202359 0.595738 0.167421
C40   C     C_3   0.151354 0.214097 0.720034 -0.349779
H27   H     H_    0.249812 0.241927 0.752674 0.230571
H28   H     H_    0.063333 0.265930 0.740998 0.248113
C41   C     C_3   0.130299 0.077461 0.740115 -0.869509
H29   H     H_    0.028474 0.047909 0.712262 0.276583
H30   H     H_    0.128748 0.059872 0.804980 0.268307
H31   H     H_    0.217946 0.023622 0.720502 0.256149
O18   O     O_3   0.834673 0.671501 0.406592 -0.560646
C42   C     C_3   0.844997 0.669314 0.324279 0.065599
H32   H     H_    0.750349 0.625570 0.298555 0.180997
H33   H     H_    0.936940 0.617235 0.307515 0.155937
C43   C     C_3   0.846510 0.801163 0.286780 -0.351654
H34   H     H_    0.753584 0.852228 0.302948 0.248826
H35   H     H_    0.942048 0.849221 0.309117 0.211050
C44   C     C_3   0.843100 0.802886 0.197095 -0.879711
H36   H     H_    0.935628 0.753206 0.179382 0.268539
H37   H     H_    0.845133 0.899543 0.171658 0.263150
H38   H     H_    0.745940 0.758813 0.172925 0.253492
C45   C     C_2   0.868955 0.352131 0.616643 0.481363
H39   H     H_    0.870600 0.386964 0.674358 0.027085
O19   O     O_2   0.820845 0.250406 0.606752 -0.595109
C46   C     C_2   0.125814 0.696910 0.415152 0.422656
H40   H     H_    0.080682 0.785017 0.424451 0.033477
O20   O     O_2   0.217701 0.694086 0.370146 -0.562396

loop_
_geom_bond_atom_site_label_1
_geom_bond_atom_site_label_2
_geom_bond_distance
_ccdc_geom_bond_type
C45   O19   1.218858 D    
C36   H18   1.109853 S    
C42   C43   1.530143 S    
C37   H21   1.108072 S    
C42   H32   1.099592 S    
C23   C25   1.436319 A    
C27   H5    1.080659 S    
O5    C3    1.302721 A    
C15   C31   1.482966 S    
O1    C1    1.302781 A    
C9    C11   1.409726 A    
C14   C16   1.420857 A    
C18   O16   1.381031 S    
C19   H3    1.078841 S    
C39   H26   1.110235 S    
C31   O13   1.219328 D    
C14   C30   1.494758 S    
C32   O14   1.219417 D    
O4    Cu1   1.975548 S    
C46   H40   1.079200 S    
C43   H34   1.111983 S    
C42   H33   1.113664 S    
C3    C5    1.486572 S    
C24   N3    1.364136 A    
C4    C6    1.491655 S    
C45   H39   1.079679 S    
C17   C19   1.391009 A    
C35   H15   1.111023 S    
C40   H28   1.110161 S    
C20   H4    1.082629 S    
C10   C27   1.481215 S    
C28   O10   1.221281 D    
C11   N1    1.415446 S    
C12   N2    1.419185 S    
Cu1   Cu2   2.693016 S    
C7    H2    1.081033 S    
C25   N3    1.380144 A    
O2    C2    1.304476 A    
C26   N4    1.384959 A    
C24   O18   1.389570 S    
C43   H35   1.109464 S    
C38   H23   1.108058 S    
C38   H22   1.110584 S    
C27   O9    1.221492 D    
C6    C16   1.424050 A    
C30   O12   1.220834 D    
O16   C36   1.415036 S    
C29   H7    1.084875 S    
C33   C34   1.536328 S    
C17   O15   1.386914 S    
O4    C2    1.291827 A    
C39   H25   1.108568 S    
C20   C22   1.398801 A    
O17   C39   1.412949 S    
C39   C40   1.533903 S    
C41   H31   1.109707 S    
C19   C21   1.396098 A    
C34   H13   1.108213 S    
C32   H10   1.084963 S    
C34   H14   1.111250 S    
C33   H12   1.111994 S    
O7    Cu2   1.944944 S    
C36   H19   1.118249 S    
C13   C29   1.485047 S    
O6    C4    1.303850 A    
O18   C42   1.417666 S    
C35   H17   1.110891 S    
C41   H30   1.110705 S    
C2    C21   1.460720 S    
C44   H37   1.110335 S    
C8    H1    1.083709 S    
C18   C21   1.413121 A    
C40   C41   1.520632 S    
O7    C3    1.305786 A    
O3    Cu2   1.975550 S    
O8    C4    1.307072 A    
C28   H6    1.084706 S    
C10   C12   1.410548 A    
C11   C13   1.409825 A    
C12   C14   1.412408 A    
O1    Cu1   1.976599 S    
C23   O17   1.388518 S    
Cu1   N3    2.023811 S    
C38   H24   1.111010 S    
Cu2   N4    2.023811 S    
C5    C7    1.401592 A    
C30   H8    1.085133 S    
O6    Cu2   1.951478 S    
C25   C45   1.470437 S    
C9    C28   1.486527 S    
O3    C1    1.294175 A    
O8    Cu1   1.944944 S    
C23   N4    1.369238 A    
C17   C22   1.413107 A    
C34   C35   1.525955 S    
C33   H11   1.111175 S    
C26   C46   1.477725 S    
C37   H20   1.106952 S    
C37   C38   1.527900 S    
C31   H9    1.084701 S    
C24   C26   1.428978 A    
C41   H29   1.108570 S    
C7    C9    1.395397 A    
C44   H38   1.111218 S    
C8    C10   1.391198 A    
C43   C44   1.526684 S    
O2    Cu2   1.976599 S    
C36   C37   1.527818 S    
C46   O20   1.214812 D    
C5    C15   1.422560 A    
O15   C33   1.417993 S    
O5    Cu1   1.951474 S    
C13   C15   1.416895 A    
C6    C8    1.402501 A    
C44   H36   1.110626 S    
C35   H16   1.110689 S    
C29   O11   1.220859 D    
C40   H27   1.109968 S    
C1    C22   1.461830 S    
C16   C32   1.478220 S    
C18   C20   1.386620 A    
N1    N2    1.247211 D    
