data_mof_unit_57361.cif
_audit_creation_date              2012-12-10T18:59:54-0500
_audit_creation_method            fapswitch 2.2
_symmetry_space_group_name_H-M    P1
_symmetry_Int_Tables_number       1
_space_group_crystal_system       triclinic
_cell_length_a                    10.808658
_cell_length_b                    10.584346
_cell_length_c                    9.892641
_cell_angle_alpha                 89.915828
_cell_angle_beta                  91.308419
_cell_angle_gamma                 90.049355
_cell_volume                      1131.44692033

loop_
_atom_site_label
_atom_site_type_symbol
_atom_type_description
_atom_site_fract_x
_atom_site_fract_y
_atom_site_fract_z
_atom_type_partial_charge
C1    C     C_R   0.498963 0.260462 0.499963 0.935468
C2    C     C_R   0.501030 0.739538 0.500037 0.935461
C3    C     C_R   0.872625 0.498746 0.504595 -0.081951
C4    C     C_R   0.127376 0.501269 0.495409 -0.081973
C5    C     C_R   0.942716 0.484923 0.625416 0.004008
C6    C     C_R   0.057285 0.515098 0.374590 0.004002
C7    C     C_R   0.607592 0.066631 0.468397 -0.265570
C8    C     C_R   0.392405 0.933367 0.531610 -0.265579
C9    C     C_R   0.610217 0.936746 0.468831 0.291101
C10   C     C_R   0.389791 0.063252 0.531193 0.291102
C11   C     C_R   0.501855 0.871832 0.500104 -0.139008
C12   C     C_R   0.498135 0.128167 0.499892 -0.138985
C13   C     C_R   0.512297 0.610090 0.071794 -0.026350
C14   C     C_R   0.487703 0.389910 0.928206 -0.026341
C15   C     C_R   0.512652 0.610039 0.928463 -0.077509
C16   C     C_R   0.487347 0.389961 0.071537 -0.077516
C17   C     C_R   0.260006 0.500894 0.498193 0.902869
C18   C     C_R   0.739994 0.499109 0.501807 0.902879
C19   C     C_R   0.196205 0.655861 0.061607 -0.170625
C20   C     C_R   0.803797 0.344152 0.938393 -0.170611
C21   C     C_R   0.149049 0.645315 0.191453 -0.052118
C22   C     C_R   0.850956 0.354703 0.808549 -0.052117
C23   C     C_R   0.110024 0.527350 0.239179 0.086099
C24   C     C_R   0.889979 0.472670 0.760828 0.086092
C25   C     C_R   0.117286 0.420664 0.156088 -0.155426
C26   C     C_R   0.882715 0.579355 0.843922 -0.155404
C27   C     C_R   0.164973 0.431212 0.026673 0.299121
C28   C     C_R   0.835024 0.568802 0.973336 0.299103
C29   C     C_R   0.204539 0.548976 0.979503 -0.185377
C30   C     C_R   0.795460 0.451034 0.020501 -0.185384
C31   C     C_R   0.930763 0.513728 0.381167 -0.167461
C32   C     C_R   0.069237 0.486287 0.618837 -0.167484
H1    H     H_    0.243345 0.557983 0.880343 0.168343
H2    H     H_    0.756649 0.442023 0.119657 0.168344
H3    H     H_    0.523059 0.698491 0.875213 0.160584
H4    H     H_    0.476940 0.301509 0.124787 0.160581
H5    H     H_    0.227119 0.746664 0.024878 0.163651
H6    H     H_    0.772884 0.253347 0.975116 0.163647
H7    H     H_    0.142884 0.728452 0.254641 0.155741
H8    H     H_    0.857121 0.271568 0.745359 0.155741
H9    H     H_    0.086394 0.329546 0.192283 0.174182
H10   H     H_    0.913605 0.670474 0.807731 0.174199
H11   H     H_    0.877890 0.525468 0.288306 0.196189
H12   H     H_    0.122106 0.474534 0.711694 0.196200
H13   H     H_    0.690453 0.119592 0.445259 0.172391
H14   H     H_    0.309563 0.880407 0.554779 0.172406
N1    N     N_R   0.499970 0.499970 0.857200 -0.095763
N2    N     N_R   0.500030 0.500030 0.142800 -0.095762
O1    O     O_R   0.499990 0.316750 0.614620 -0.607864
O2    O     O_R   0.500010 0.683250 0.385380 -0.607879
O3    O     O_R   0.499990 0.316780 0.385290 -0.628222
O4    O     O_R   0.500010 0.683220 0.614710 -0.628212
O5    O     O_R   0.316760 0.500000 0.614660 -0.616994
O6    O     O_R   0.683240 0.500000 0.385340 -0.617001
O7    O     O_R   0.316760 0.500020 0.385330 -0.613833
O8    O     O_R   0.683240 0.499980 0.614670 -0.613825
Zn1   Zn    Zn3+2 0.500000 0.499980 0.653120 0.978154
Zn2   Zn    Zn3+2 0.500000 0.500020 0.346880 0.978143
Br1   Br    Br    0.177032 0.283633 0.917045 -0.513793
Br2   Br    Br    0.822950 0.716381 0.082971 -0.513816
Br3   Br    Br    0.762922 0.852158 0.431979 -0.463213
Br4   Br    Br    0.237158 0.147832 0.568172 -0.463204
H15   H     H_    0.522214 0.698587 0.125312 0.173182
H16   H     H_    0.477788 0.301413 0.874689 0.173189

loop_
_geom_bond_atom_site_label_1
_geom_bond_atom_site_label_2
_ccdc_geom_bond_type
C13   N2    A    
N2    Zn2   S    
C14   N1    A    
C14   C16   A    
C18   O8    A    
N1    Zn1   S    
C20   H6    S    
C19   H5    S    
C17   O7    A    
C26   C28   A    
C21   H7    S    
C13   C15   A    
C15   N1    A    
C5    C32   A    
C22   H8    S    
C7    C9    A    
C16   N2    A    
C28   C30   A    
C6    C31   A    
C32   H12   S    
C17   O5    A    
C14   H16   S    
C7    H13   S    
O3    Zn2   S    
C20   C30   A    
C16   H4    S    
C2    C11   S    
C3    C31   A    
C9    C11   A    
C10   Br4   S    
C5    C24   S    
C2    O4    A    
C8    C11   A    
C9    Br3   S    
C6    C23   S    
C10   C12   A    
C8    C10   A    
C19   C21   A    
C24   C26   A    
C8    H14   S    
C13   H15   S    
C28   Br2   S    
O5    Zn1   S    
C7    C12   A    
C22   C24   A    
C19   C29   A    
C27   C29   A    
O4    Zn1   S    
C30   H2    S    
C4    C32   A    
O2    Zn2   S    
C29   H1    S    
C23   C25   A    
O1    Zn1   S    
O8    Zn1   S    
C26   H10   S    
C3    C18   S    
C4    C6    A    
O6    Zn2   S    
O7    Zn2   S    
C25   H9    S    
C15   H3    S    
C18   O6    A    
C27   Br1   S    
C1    O3    A    
C2    O2    A    
C1    O1    A    
C21   C23   A    
C31   H11   S    
C1    C12   S    
C20   C22   A    
C3    C5    A    
C25   C27   A    
C4    C17   S    
