data_mof_unit_32246.cif
_audit_creation_date              2012-12-10T18:47:06-0500
_audit_creation_method            fapswitch 2.2
_symmetry_space_group_name_H-M    P1
_symmetry_Int_Tables_number       1
_space_group_crystal_system       triclinic
_cell_length_a                    10.683498
_cell_length_b                    9.841157
_cell_length_c                    14.967049
_cell_angle_alpha                 89.452771
_cell_angle_beta                  89.812116
_cell_angle_gamma                 90.072526
_cell_volume                      1573.52375912

loop_
_atom_site_label
_atom_site_type_symbol
_atom_type_description
_atom_site_fract_x
_atom_site_fract_y
_atom_site_fract_z
_atom_type_partial_charge
C1    C     C_R   0.259944 0.499952 0.499654 0.834673
C2    C     C_R   0.127510 0.499673 0.500757 -0.015159
C3    C     C_R   0.605512 0.071485 0.521577 -0.106229
C4    C     C_R   0.394951 0.928321 0.477059 -0.057366
C5    C     C_R   0.394878 0.072081 0.477261 -0.082655
C6    C     C_R   0.605247 0.927861 0.522293 -0.063828
C7    C     C_R   0.500693 0.500564 0.326962 0.991263
C8    C     C_R   0.502106 0.499202 0.673133 1.011271
C9    C     C_R   0.601177 0.433936 0.814779 0.328562
C10   C     C_R   0.409581 0.578189 0.185630 0.359601
C11   C     C_R   0.502506 0.497803 0.768862 -0.309024
C12   C     C_R   0.740086 0.499985 0.500374 0.897937
C13   C     C_R   0.500796 0.501925 0.231394 -0.306646
C14   C     C_R   0.405480 0.564863 0.813666 0.377955
C15   C     C_R   0.595001 0.430490 0.186483 0.328459
C16   C     C_R   0.413800 0.580808 0.906128 0.007904
C17   C     C_R   0.604088 0.443391 0.093858 0.019490
C18   C     C_R   0.510822 0.514500 0.953272 -0.021525
C19   C     C_R   0.510697 0.515635 0.046740 -0.017821
C20   C     C_R   0.606794 0.445017 0.907374 0.041121
C21   C     C_R   0.415938 0.586878 0.092744 0.031432
C22   C     C_R   0.328278 0.662425 0.952276 -0.214872
C23   C     C_R   0.329289 0.665375 0.044803 -0.189358
C24   C     C_R   0.705178 0.386676 0.047515 -0.220138
C25   C     C_3   0.661514 0.233554 0.748853 0.139200
C26   C     C_3   0.741162 0.131420 0.801327 -0.411704
C27   C     C_3   0.725275 0.987691 0.765475 -0.932321
C28   C     C_3   0.224371 0.563868 0.265335 0.103626
C29   C     C_3   0.115208 0.553465 0.199653 -0.414792
C30   C     C_3   0.005001 0.476087 0.240935 -0.882050
C31   C     C_3   0.195811 0.540112 0.778989 0.053206
C32   C     C_3   0.203557 0.398353 0.737204 -0.377372
C33   C     C_3   0.075427 0.329573 0.735421 -0.909621
C34   C     C_R   0.707194 0.388957 0.955051 -0.189536
C35   C     C_3   0.650818 0.217682 0.232859 0.113698
C36   C     C_3   0.737782 0.139341 0.295541 -0.340564
C37   C     C_3   0.707376 0.987706 0.296679 -0.935470
C38   C     C_R   0.063957 0.380070 0.480121 -0.205939
C39   C     C_R   0.936084 0.619009 0.522604 -0.211081
C40   C     C_R   0.935945 0.379977 0.480565 -0.194103
C41   C     C_R   0.064163 0.618964 0.522451 -0.201890
C42   C     C_R   0.872515 0.499685 0.501247 0.000164
H1    H     H_    0.259018 0.722691 0.917184 0.172537
H2    H     H_    0.310917 0.874414 0.458376 0.131816
H3    H     H_    0.310796 0.126293 0.458771 0.123190
H4    H     H_    0.689653 0.873692 0.540025 0.122791
H5    H     H_    0.680124 0.219114 0.676800 0.184903
H6    H     H_    0.560289 0.209982 0.760398 0.128037
H7    H     H_    0.841483 0.160612 0.796629 0.237831
H8    H     H_    0.712295 0.131465 0.872646 0.217956
H9    H     H_    0.625283 0.956685 0.768082 0.274851
H10   H     H_    0.780588 0.915424 0.806819 0.267935
H11   H     H_    0.759409 0.982527 0.695429 0.250422
H12   H     H_    0.782533 0.339155 0.082339 0.171683
H13   H     H_    0.188744 0.609777 0.327845 0.173151
H14   H     H_    0.258271 0.460038 0.283303 0.101092
H15   H     H_    0.083534 0.657133 0.180288 0.231790
H16   H     H_    0.146563 0.499679 0.138630 0.217093
H17   H     H_    0.033948 0.371852 0.261075 0.252905
H18   H     H_    0.928439 0.468446 0.191277 0.280713
H19   H     H_    0.968884 0.530491 0.300360 0.277358
H20   H     H_    0.117650 0.596656 0.747008 0.182377
H21   H     H_    0.170893 0.529672 0.850867 0.133151
H22   H     H_    0.239728 0.406983 0.668176 0.243541
H23   H     H_    0.260134 0.726976 0.078445 0.181052
H24   H     H_    0.268967 0.333478 0.776312 0.202094
H25   H     H_    0.037591 0.318632 0.804341 0.254993
H26   H     H_    0.084291 0.227047 0.705732 0.260081
H27   H     H_    0.008962 0.390092 0.694288 0.286998
H28   H     H_    0.661372 0.176267 0.164349 0.128047
H29   H     H_    0.552327 0.200944 0.255297 0.155775
H30   H     H_    0.836440 0.154174 0.273664 0.215151
H31   H     H_    0.727776 0.179740 0.364173 0.239402
H32   H     H_    0.609072 0.970587 0.318477 0.278576
H33   H     H_    0.770578 0.934237 0.344089 0.259907
H34   H     H_    0.786793 0.344627 0.921357 0.175762
H35   H     H_    0.720838 0.944295 0.229095 0.264445
H36   H     H_    0.112737 0.287507 0.462786 0.147795
H37   H     H_    0.887245 0.711640 0.539738 0.148308
H38   H     H_    0.887128 0.287212 0.463748 0.144929
H39   H     H_    0.113200 0.711548 0.539539 0.160923
H40   H     H_    0.690852 0.124939 0.537276 0.115882
N1    N     N_R   0.500000 0.857200 0.500000 -0.078825
N2    N     N_R   0.500000 0.142800 0.500000 -0.081511
O1    O     O_R   0.316770 0.614620 0.499990 -0.625694
O2    O     O_3   0.319164 0.651480 0.231492 -0.637706
O3    O     O_3   0.306232 0.618232 0.764844 -0.633812
O4    O     O_3   0.683274 0.357129 0.234529 -0.642623
O5    O     O_R   0.683230 0.385380 0.500010 -0.641266
O6    O     O_R   0.683230 0.614620 0.500010 -0.643828
O7    O     O_R   0.316770 0.385380 0.499990 -0.646302
O8    O     O_R   0.499980 0.614680 0.367850 -0.587430
O9    O     O_R   0.500020 0.385320 0.632150 -0.651240
O10   O     O_R   0.500020 0.614680 0.632150 -0.580895
O11   O     O_R   0.499980 0.385320 0.367850 -0.626030
O12   O     O_3   0.696756 0.368918 0.768987 -0.654568
Zn1   Zn    Zn3+2 0.500000 0.653120 0.500000 0.978126
Zn2   Zn    Zn3+2 0.500000 0.346880 0.500000 0.927863

loop_
_geom_bond_atom_site_label_1
_geom_bond_atom_site_label_2
_ccdc_geom_bond_type
C37   H32   S    
C35   C36   S    
C3    C6    A    
C28   H14   S    
O11   Zn2   S    
C39   C41   A    
C28   C29   S    
C26   C27   S    
C12   O6    A    
C36   C37   S    
C19   C21   A    
C14   O3    S    
C18   C19   A    
C26   H8    S    
C11   C14   A    
C2    C41   A    
C24   H12   S    
C1    C2    S    
C12   C42   S    
C31   C32   S    
C35   H28   S    
C30   H18   S    
C40   H38   S    
C25   H5    S    
O6    Zn1   S    
C33   H27   S    
C20   C34   A    
C40   C42   A    
C37   H33   S    
C35   H29   S    
C1    O7    A    
C31   H20   S    
C28   H13   S    
C27   H9    S    
O8    Zn1   S    
C39   C42   A    
C10   C21   A    
C1    O1    A    
C17   C24   A    
C31   O3    S    
C31   H21   S    
C12   O5    A    
C8    O10   A    
C32   H22   S    
C26   H7    S    
C5    N2    A    
C38   H36   S    
O10   Zn1   S    
C25   C26   S    
C37   H35   S    
C24   C34   A    
C39   H37   S    
C29   C30   S    
C35   O4    S    
C2    C38   A    
C9    C20   A    
C22   H1    S    
C25   H6    S    
C41   H39   S    
C30   H17   S    
C3    H40   S    
C9    C11   A    
C9    O12   S    
C4    H2    S    
C29   H15   S    
C13   C15   A    
C28   O2    S    
C14   C16   A    
C27   H10   S    
C33   H25   S    
C32   H24   S    
C15   C17   A    
C10   O2    S    
C16   C22   A    
C6    N1    A    
C6    H4    S    
C8    O9    A    
C4    C5    A    
C10   C13   A    
C27   H11   S    
C7    O11   A    
O5    Zn2   S    
N2    Zn2   S    
C32   C33   S    
C23   H23   S    
C21   C23   A    
C38   C40   A    
C4    N1    A    
C5    H3    S    
C8    C11   S    
C7    O8    A    
C17   C19   A    
C18   C20   A    
O7    Zn2   S    
O1    Zn1   S    
C36   H31   S    
C7    C13   S    
C29   H16   S    
C25   O12   S    
C16   C18   A    
N1    Zn1   S    
C30   H19   S    
C3    N2    A    
C22   C23   A    
O9    Zn2   S    
C36   H30   S    
C33   H26   S    
C34   H34   S    
C15   O4    S    
