data_mof_unit_47304.cif
_audit_creation_date              2012-10-26T20:33:01-0400
_audit_creation_method            fapswitch 2.2
_symmetry_space_group_name_H-M    P1
_symmetry_Int_Tables_number       1
_space_group_crystal_system       triclinic
_cell_length_a                    27.811041
_cell_length_b                    10.854232
_cell_length_c                    9.557866
_cell_angle_alpha                 90.27629
_cell_angle_beta                  90.505806
_cell_angle_gamma                 90.432567
_cell_volume                      2884.97990068

loop_
_atom_site_label
_atom_site_type_symbol
_atom_type_description
_atom_site_fract_x
_atom_site_fract_y
_atom_site_fract_z
_atom_type_partial_charge
C1    C     C_R   0.500213 0.262751 0.499664 0.563253
C2    C     C_R   0.974134 0.385755 0.548597 -0.022648
C3    C     C_R   0.973851 0.582861 0.421410 0.028350
C4    C     C_R   0.407482 0.499673 0.499405 0.562289
C5    C     C_R   0.948630 0.483731 0.485355 0.025474
C6    C     C_R   0.947552 0.285455 0.601925 -0.105621
C7    C     C_R   0.897526 0.283621 0.602152 0.253154
C8    C     C_R   0.871533 0.383959 0.546852 0.029714
C9    C     C_R   0.897389 0.482910 0.486204 -0.063557
C10   C     C_R   0.871959 0.581715 0.426299 0.032309
C11   C     C_R   0.821633 0.581264 0.427926 0.408887
C12   C     C_R   0.278943 0.482110 0.369635 -0.051848
C13   C     C_R   0.820674 0.389870 0.549246 0.432567
C14   C     C_R   0.718077 0.400668 0.423414 -0.058064
C15   C     C_R   0.668029 0.404879 0.426401 -0.178722
C16   C     C_R   0.500372 0.737251 0.500055 0.568972
C17   C     C_R   0.672233 0.591297 0.567993 0.205448
C18   C     C_R   0.722365 0.585970 0.565725 -0.005130
C19   C     C_R   0.745496 0.490803 0.493678 0.185577
C20   C     C_R   0.025261 0.389974 0.555139 0.021253
C21   C     C_R   0.050378 0.486725 0.487096 0.040087
C22   C     C_R   0.024958 0.581757 0.417413 0.021091
C23   C     C_R   0.253519 0.494444 0.494775 0.235553
C24   C     C_R   0.052414 0.301318 0.629312 -0.136636
C25   C     C_R   0.101746 0.672932 0.347315 -0.107247
C26   C     C_R   0.946876 0.680792 0.364550 -0.127608
C27   C     C_R   0.897078 0.679723 0.366573 -0.085714
C28   C     C_R   0.592275 0.500955 0.500331 0.585220
C29   C     C_R   0.051820 0.672654 0.345648 -0.137479
C30   C     C_R   0.499582 0.062592 0.620737 0.019188
C31   C     C_R   0.501043 0.130127 0.497966 0.020215
C32   C     C_R   0.503447 0.064037 0.370707 -0.129737
C33   C     C_R   0.503555 0.934839 0.370966 -0.143481
C34   C     C_R   0.101537 0.488610 0.489000 -0.027209
C35   C     C_R   0.501293 0.869893 0.498523 0.029076
C36   C     C_R   0.499785 0.938578 0.621026 0.034048
C37   C     C_3   0.496181 0.930402 0.776126 -0.254861
C38   C     C_3   0.495916 0.072307 0.775835 -0.257527
C39   C     C_R   0.524344 0.589181 0.074935 0.109936
C40   C     C_R   0.177827 0.400265 0.560836 0.402009
C41   C     C_R   0.471438 0.420693 0.071653 0.321206
C42   C     C_R   0.471844 0.420588 0.923302 0.021382
C43   C     C_R   0.524178 0.589564 0.927784 0.123940
C44   C     C_3   0.576692 0.617726 0.924042 -0.239018
C45   C     C_R   0.127337 0.396986 0.560649 0.024974
C46   C     C_3   0.576850 0.616461 0.082748 -0.269438
C47   C     C_R   0.177511 0.582936 0.423351 0.400578
C48   C     C_R   0.278725 0.508803 0.621497 -0.051319
C49   C     C_R   0.328874 0.510336 0.623219 -0.140533
C50   C     C_R   0.329067 0.484488 0.370976 -0.122387
C51   C     C_R   0.102341 0.304587 0.631139 -0.106371
C52   C     C_R   0.127029 0.582259 0.419465 0.025392
C53   C     C_R   0.354516 0.498346 0.497868 0.005683
C54   C     C_R   0.644827 0.499047 0.499896 0.017195
Cl1   Cl    Cl    0.645200 0.719774 0.646773 -0.616281
Cl2   Cl    Cl    0.432923 0.314423 0.152480 -0.623400
Cl3   Cl    Cl    0.870594 0.149277 0.671207 -0.489326
Cu1   Cu    Cu3+1 0.500000 0.499980 0.640670 0.972924
Cu2   Cu    Cu3+1 0.500000 0.500020 0.359330 1.022480
H1    H     H_    0.347814 0.474798 0.272779 0.175910
H2    H     H_    0.461579 0.888578 0.809736 0.148396
H3    H     H_    0.259791 0.470390 0.271275 0.144282
H4    H     H_    0.529006 0.890818 0.824780 0.154271
H5    H     H_    0.461133 0.112216 0.809214 0.156736
H6    H     H_    0.528562 0.114704 0.824390 0.156774
H7    H     H_    0.449769 0.355107 0.865514 0.145299
H8    H     H_    0.598122 0.541991 0.877736 0.187993
H9    H     H_    0.583892 0.710791 0.881059 0.186324
H10   H     H_    0.598061 0.539231 0.126920 0.167460
H11   H     H_    0.584509 0.708275 0.130290 0.148565
H12   H     H_    0.259392 0.519045 0.718662 0.142633
H13   H     H_    0.121312 0.234207 0.689118 0.171554
H14   H     H_    0.647319 0.334264 0.371945 0.132469
H15   H     H_    0.735609 0.327629 0.366113 0.165110
H16   H     H_    0.964685 0.204200 0.642020 0.147632
H17   H     H_    0.036308 0.229068 0.690228 0.118483
H18   H     H_    0.347502 0.521428 0.722518 0.140381
H19   H     H_    0.120492 0.744971 0.291166 0.171394
H20   H     H_    0.963012 0.761662 0.319601 0.119248
H21   H     H_    0.878274 0.757294 0.321485 0.184102
H22   H     H_    0.743499 0.656795 0.618305 0.182550
H23   H     H_    0.035513 0.744523 0.284789 0.116846
H24   H     H_    0.505059 0.111324 0.271329 0.173588
H25   H     H_    0.505181 0.886613 0.271655 0.139800
N1    N     N_R   0.201858 0.492543 0.493052 -0.397128
N2    N     N_R   0.797127 0.487040 0.489877 -0.409734
N3    N     N_R   0.500300 0.500930 0.147930 -0.223571
N4    N     N_R   0.500310 0.500890 0.852020 -0.263950
O1    O     O_R   0.500000 0.319640 0.618810 -0.518302
O2    O     O_R   0.569730 0.499960 0.618810 -0.476183
O3    O     O_R   0.569740 0.500000 0.381220 -0.516100
O4    O     O_2   0.202718 0.311253 0.627087 -0.487599
O5    O     O_2   0.794653 0.301194 0.612245 -0.394553
O6    O     O_2   0.202080 0.673917 0.359126 -0.490922
O7    O     O_2   0.797234 0.674235 0.367327 -0.466066
O8    O     O_R   0.500010 0.319680 0.381230 -0.458286
O9    O     O_R   0.430260 0.500000 0.618780 -0.516674
O10   O     O_R   0.430270 0.500040 0.381190 -0.454571
O11   O     O_R   0.499990 0.680320 0.618770 -0.489626
O12   O     O_R   0.500000 0.680360 0.381190 -0.512800

loop_
_geom_bond_atom_site_label_1
_geom_bond_atom_site_label_2
_ccdc_geom_bond_type
C10   C27   A    
C8    C13   A    
C22   C29   A    
C4    O10   A    
C4    C53   S    
C41   C42   A    
C35   C36   A    
C39   N3    A    
C19   N2    S    
C6    H16   S    
C12   C23   A    
C26   C27   A    
C43   N4    A    
C14   H15   S    
C36   C37   S    
C16   C35   S    
C30   C31   A    
C45   C51   A    
C11   N2    A    
C1    C31   S    
C18   H22   S    
C30   C38   S    
C18   C19   A    
C46   H10   S    
C20   C24   A    
C8    C9    A    
C13   N2    A    
C9    C10   A    
C17   Cl1   S    
C24   C51   A    
C21   C22   A    
Cu2   O12   S    
C2    C6    A    
Cu1   O9    S    
C37   H4    S    
C44   C46   S    
C38   H5    S    
C25   C29   A    
C40   C45   A    
C41   N3    A    
C50   C53   A    
C2    C20   A    
C25   H19   S    
C15   C54   A    
C7    C8    A    
C27   H21   S    
C28   C54   S    
C16   O12   A    
C39   C43   A    
C21   C34   A    
C3    C22   A    
Cu1   Cu2   S    
C13   O5    S    
C40   N1    A    
C43   C44   S    
C41   Cl2   S    
C5    C9    A    
C37   C38   S    
C12   H3    S    
C12   C50   A    
C31   C32   A    
C38   H6    S    
C17   C18   A    
C34   C45   A    
Cu2   O3    S    
C40   O4    S    
Cu1   O2    S    
C47   C52   A    
C39   C46   S    
C48   C49   A    
C15   H14   S    
C23   N1    S    
C44   H9    S    
C2    C5    A    
C42   N4    A    
C51   H13   S    
C48   H12   S    
C47   N1    A    
C11   O7    S    
C32   H24   S    
C1    O1    A    
C23   C48   A    
C14   C19   A    
C3    C26   A    
C24   H17   S    
Cu1   O11   S    
C3    C5    A    
Cu1   N4    S    
C37   H2    S    
C16   O11   A    
C6    C7    A    
C34   C52   A    
C26   H20   S    
C30   C36   A    
C50   H1    S    
C32   C33   A    
C25   C52   A    
C29   H23   S    
C1    O8    A    
C49   C53   A    
C33   C35   A    
C47   O6    S    
C49   H18   S    
Cu1   O1    S    
C28   O3    A    
C33   H25   S    
Cu2   N3    S    
C46   H11   S    
C10   C11   A    
C20   C21   A    
Cu2   O8    S    
C42   H7    S    
Cu2   O10   S    
C14   C15   A    
C44   H8    S    
C28   O2    A    
C4    O9    A    
C17   C54   A    
C7    Cl3   S    
