data_mof_unit_31835.cif
_audit_creation_date              2012-10-26T19:59:12-0400
_audit_creation_method            fapswitch 2.2
_symmetry_space_group_name_H-M    P1
_symmetry_Int_Tables_number       1
_space_group_crystal_system       triclinic
_cell_length_a                    7.429549
_cell_length_b                    8.750418
_cell_length_c                    15.877314
_cell_angle_alpha                 94.755957
_cell_angle_beta                  74.881634
_cell_angle_gamma                 103.221849
_cell_volume                      969.772599941

loop_
_atom_site_label
_atom_site_type_symbol
_atom_type_description
_atom_site_fract_x
_atom_site_fract_y
_atom_site_fract_z
_atom_type_partial_charge
C1    C     C_R   0.542508 0.799665 0.505163 0.539563
C2    C     C_R   0.616820 0.508457 0.333085 0.568740
C3    C     C_R   0.315847 0.497770 0.763640 -0.078651
C4    C     C_R   0.691097 0.519554 0.236451 -0.015675
C5    C     C_R   0.084219 0.372376 0.889354 0.413981
C6    C     C_R   0.935130 0.642157 0.112391 0.483507
C7    C     C_R   0.124582 0.430821 0.805926 0.232830
C8    C     C_R   0.883998 0.590077 0.197745 0.203860
C9    C     C_R   0.451276 0.544952 0.814697 0.256633
C10   C     C_R   0.561074 0.477975 0.182985 0.258943
C11   C     C_R   0.404609 0.498421 0.902493 0.021652
C12   C     C_R   0.457451 0.200329 0.494883 0.552376
C13   C     C_R   0.621590 0.511516 0.092617 -0.053264
C14   C     C_R   0.229790 0.389396 0.933411 -0.106926
C15   C     C_R   0.800893 0.613690 0.061638 -0.020033
C16   C     C_R   0.532839 0.545011 0.957923 0.033809
C17   C     C_R   0.501110 0.459908 0.034498 -0.042221
C18   C     C_R   0.351931 0.324775 0.050140 0.483601
C19   C     C_R   0.688275 0.676218 0.941573 0.458446
C20   C     C_R   0.209894 0.295741 0.004987 0.285568
C21   C     C_R   0.834997 0.695567 0.984593 0.307077
C22   C     C_2   0.555536 0.966578 0.517043 0.262486
C23   C     C_2   0.444356 0.033397 0.483053 0.265438
C24   C     C_R   0.384619 0.497450 0.666790 0.513071
Cu1   Cu    Cu3+1 0.322120 0.483240 0.490330 1.269630
Cu2   Cu    Cu3+1 0.677880 0.516760 0.509670 1.248585
F1    F     F_    0.901064 0.301631 0.927356 -0.570363
F2    F     F_    0.116621 0.723688 0.080442 -0.505491
F3    F     F_    0.348277 0.214422 0.106343 -0.482738
F4    F     F_    0.687417 0.797306 0.893492 -0.567047
F5    F     F_    0.016743 0.635901 0.583682 -0.537259
F6    F     F_    0.983511 0.364570 0.416081 -0.517704
H1    H     H_    0.027261 0.117440 0.975195 0.393892
H2    H     H_    0.010881 0.842598 0.899200 0.363702
H3    H     H_    0.294987 0.472884 0.195233 0.351890
H4    H     H_    0.631486 0.702290 0.740122 0.364845
H5    H     H_    0.012273 0.529511 0.275297 0.369606
H6    H     H_    0.997696 0.504802 0.731608 0.382784
H7    H     H_    0.730136 0.983521 0.592657 0.353803
H8    H     H_    0.269434 0.016353 0.407574 0.370218
N1    N     N_2   0.945180 0.542040 0.524240 0.202487
N2    N     N_2   0.054820 0.457960 0.475760 0.205325
O1    O     O_R   0.384450 0.714270 0.493720 -0.435400
O2    O     O_3   0.002510 0.806403 0.957915 -0.578952
O3    O     O_3   0.370899 0.422047 0.222535 -0.563581
O4    O     O_3   0.636842 0.616316 0.775862 -0.580351
O5    O     O_3   0.022134 0.625066 0.243730 -0.606011
O6    O     O_3   0.976503 0.410296 0.766131 -0.576481
O7    O     O_3   0.672740 0.054107 0.567015 -0.665018
O8    O     O_3   0.327065 0.945831 0.433126 -0.656100
O9    O     O_R   0.615550 0.285730 0.506280 -0.426713
O10   O     O_R   0.684880 0.742590 0.510050 -0.520306
O11   O     O_R   0.315120 0.257410 0.489950 -0.510381
O12   O     O_R   0.265540 0.477900 0.617090 -0.480664
O13   O     O_R   0.734460 0.522100 0.382910 -0.489280
O14   O     O_R   0.565970 0.506210 0.633420 -0.470087
O15   O     O_R   0.434030 0.493790 0.366580 -0.433573
O16   O     O_3   0.062938 0.166511 0.028602 -0.528076

loop_
_geom_bond_atom_site_label_1
_geom_bond_atom_site_label_2
_ccdc_geom_bond_type
Cu1   N2    S    
C2    C4    S    
H4    O4    S    
H1    O16   S    
C3    C9    A    
Cu2   O10   S    
C24   O14   A    
C21   O2    S    
N1    N2    D    
H6    O6    S    
C12   O11   A    
C13   C17   A    
C4    C8    A    
Cu1   Cu2   S    
C20   O16   S    
C7    O6    S    
Cu1   O1    S    
C10   O3    S    
C17   C18   A    
C5    C14   A    
C8    O5    S    
C1    C22   S    
C18   F3    S    
Cu2   O9    S    
Cu2   O13   S    
C9    C11   A    
C12   C23   S    
C3    C24   S    
C15   C21   A    
Cu1   O15   S    
C22   O7    S    
H8    O8    S    
C11   C14   A    
Cu1   O11   S    
C3    C7    A    
C2    O13   A    
C13   C15   A    
C16   C19   A    
C1    O10   A    
C2    O15   A    
H5    O5    S    
C24   O12   A    
H3    O3    S    
C14   C20   A    
C9    O4    S    
C12   O9    A    
H2    O2    S    
Cu1   O12   S    
C18   C20   A    
C11   C16   A    
C5    C7    A    
F6    N2    S    
C22   C23   D    
C23   O8    S    
C6    C8    A    
F5    N1    S    
H7    O7    S    
C6    C15   A    
C5    F1    S    
C19   F4    S    
C4    C10   A    
C1    O1    A    
C6    F2    S    
Cu2   N1    S    
C16   C17   A    
C19   C21   A    
C10   C13   A    
Cu2   O14   S    
