data_mof_unit_38738.cif
_audit_creation_date              2012-12-10T17:51:24-0500
_audit_creation_method            fapswitch 2.2
_symmetry_space_group_name_H-M    P1
_symmetry_Int_Tables_number       1
_space_group_crystal_system       triclinic
_cell_length_a                    14.663801
_cell_length_b                    14.750446
_cell_length_c                    17.300178
_cell_angle_alpha                 106.100269
_cell_angle_beta                  72.835099
_cell_angle_gamma                 115.678201
_cell_volume                      3173.33221074

loop_
_atom_site_label
_atom_site_type_symbol
_atom_type_description
_atom_site_fract_x
_atom_site_fract_y
_atom_site_fract_z
_atom_type_partial_charge
C1    C     C_R   0.119287 0.688249 0.512379 0.808820
C2    C     C_R   0.880487 0.311855 0.488081 0.807156
C3    C     C_R   0.185861 0.797152 0.519236 -0.110084
C4    C     C_R   0.811106 0.206117 0.496238 -0.106906
C5    C     C_R   0.211696 0.972304 0.523240 0.284044
C6    C     C_R   0.771646 0.049207 0.541716 0.283458
C7    C     C_R   0.148073 0.868632 0.517542 -0.266839
C8    C     C_R   0.843626 0.141958 0.517759 -0.276345
C9    C     C_R   0.287613 0.829638 0.527287 -0.194973
C10   C     C_R   0.707004 0.176083 0.496147 -0.190483
C11   C     C_R   0.350917 0.934056 0.540621 0.034733
C12   C     C_R   0.631397 0.090465 0.529387 0.032105
C13   C     C_R   0.313926 0.005512 0.534202 0.072350
C14   C     C_R   0.664807 0.023886 0.548964 0.073572
C15   C     C_R   0.452752 0.968064 0.554128 0.001462
C16   C     C_R   0.523691 0.067775 0.541089 0.002734
C17   C     C_R   0.483166 0.140857 0.542707 0.230674
C18   C     C_R   0.485933 0.907382 0.582145 0.219457
C19   C     C_R   0.379657 0.108419 0.538524 -0.263092
C20   C     C_R   0.590915 0.935599 0.578526 -0.261040
C21   C     C_R   0.285863 0.318765 0.368835 -0.118343
C22   C     C_R   0.712354 0.678840 0.633710 -0.127001
C23   C     C_R   0.987745 0.500739 0.652415 0.818871
C24   C     C_R   0.012648 0.499997 0.347776 0.811082
C25   C     C_R   0.203635 0.350859 0.391760 0.026988
C26   C     C_R   0.795720 0.648318 0.609213 0.013341
C27   C     C_R   0.289934 0.492924 0.483894 0.047181
C28   C     C_R   0.709861 0.506810 0.516488 0.043112
C29   C     C_R   0.372120 0.459823 0.469767 -0.041407
C30   C     C_R   0.626448 0.538549 0.532322 -0.042688
C31   C     C_R   0.376011 0.378523 0.403148 0.044471
C32   C     C_R   0.621890 0.618289 0.600033 0.051189
C33   C     C_R   0.452011 0.507578 0.517259 0.014860
C34   C     C_R   0.546094 0.490562 0.485447 0.002044
C35   C     C_R   0.557925 0.429418 0.406285 -0.106821
C36   C     C_R   0.440006 0.568276 0.596789 -0.107685
C37   C     C_R   0.471473 0.365874 0.370215 -0.077414
C38   C     C_R   0.525831 0.629024 0.634442 -0.087435
C39   C     C_R   0.978174 0.497871 0.738273 -0.124362
C40   C     C_R   0.023131 0.505326 0.262477 -0.125393
C41   C     C_R   0.009447 0.431603 0.759701 0.279391
C42   C     C_R   0.996088 0.575976 0.242654 0.278859
C43   C     C_R   0.000468 0.433995 0.842925 -0.236500
C44   C     C_R   0.002267 0.573390 0.159741 -0.226805
C45   C     C_R   0.964962 0.503322 0.903832 0.102284
C46   C     C_R   0.034895 0.502777 0.098016 0.100182
C47   C     C_R   0.931625 0.567347 0.882269 0.289586
C48   C     C_R   0.065785 0.435825 0.118142 0.291163
C49   C     C_R   0.937357 0.563139 0.799536 -0.308872
C50   C     C_R   0.060175 0.438121 0.200408 -0.303263
C51   C     C_2   0.962169 0.508034 0.990138 -0.206614
C52   C     C_2   0.038287 0.500139 0.012094 -0.208210
Cu1   Cu    Cu3+1 0.916740 0.524770 0.521640 0.947657
Cu2   Cu    Cu3+1 0.083260 0.475230 0.478360 0.949606
H1    H     H_    0.709612 0.436555 0.476019 0.145496
H2    H     H_    0.290961 0.563920 0.523401 0.141026
H3    H     H_    0.864474 0.693274 0.634777 0.135647
H4    H     H_    0.135112 0.306289 0.365839 0.134331
H5    H     H_    0.081581 0.384692 0.216044 0.162570
H6    H     H_    0.913252 0.613873 0.782955 0.164119
H7    H     H_    0.102096 0.486991 0.965974 0.185681
H8    H     H_    0.898519 0.521428 0.036326 0.187252
H9    H     H_    0.984332 0.627770 0.142229 0.155022
H10   H     H_    0.019361 0.380524 0.860846 0.157655
H11   H     H_    0.350979 0.164913 0.538569 0.182594
H12   H     H_    0.614074 0.888031 0.600132 0.190830
H13   H     H_    0.686693 0.221772 0.470275 0.187481
H14   H     H_    0.317393 0.771932 0.520263 0.189245
H15   H     H_    0.924486 0.164876 0.517982 0.151286
H16   H     H_    0.069686 0.843885 0.509584 0.156180
N1    N     N_R   0.208390 0.438070 0.445820 -0.188534
N2    N     N_R   0.791610 0.561930 0.554180 -0.187127
O1    O     O_R   0.020090 0.662480 0.528530 -0.595901
O2    O     O_R   0.979910 0.337520 0.471470 -0.595626
O3    O     O_R   0.160710 0.620650 0.491980 -0.587830
O4    O     O_R   0.839290 0.379350 0.508020 -0.578507
O5    O     O_R   0.921540 0.523360 0.633990 -0.589248
O6    O     O_R   0.078460 0.476640 0.366010 -0.587509
O7    O     O_R   0.062170 0.481520 0.597440 -0.547190
O8    O     O_R   0.937830 0.518480 0.402560 -0.551145
N3    N     N_2   0.045799 0.361150 0.697396 -0.396508
H17   H     H_    0.997005 0.312869 0.657865 0.241124
C53   C     C_3   0.111483 0.321119 0.713490 -0.671844
H18   H     H_    0.159176 0.298927 0.654513 0.233522
H19   H     H_    0.063494 0.253134 0.743565 0.211807
H20   H     H_    0.165395 0.379987 0.752696 0.245310
N4    N     N_2   0.967157 0.650393 0.306355 -0.395498
H21   H     H_    0.015892 0.689168 0.347488 0.243026
C54   C     C_3   0.921332 0.710323 0.289365 -0.669615
H22   H     H_    0.891869 0.752765 0.348064 0.224628
H23   H     H_    0.855049 0.659729 0.258938 0.245339
H24   H     H_    0.980091 0.766486 0.250300 0.215039
N5    N     N_2   0.541763 0.248128 0.557000 -0.453327
H25   H     H_    0.518175 0.290902 0.534896 0.249804
C55   C     C_3   0.557565 0.290409 0.640301 -0.649085
H26   H     H_    0.608005 0.372795 0.644637 0.231909
H27   H     H_    0.595943 0.251416 0.658559 0.241082
H28   H     H_    0.482337 0.282241 0.683313 0.221274
N6    N     N_2   0.414159 0.823649 0.622069 -0.452494
H29   H     H_    0.442297 0.769246 0.618165 0.252785
C56   C     C_3   0.362465 0.852269 0.704499 -0.629215
H30   H     H_    0.304882 0.782428 0.729104 0.239007
H31   H     H_    0.321073 0.900005 0.704572 0.230801
H32   H     H_    0.419462 0.895190 0.745143 0.237750
C57   C     C_1   0.487127 0.297346 0.293492 0.267007
N7    N     N_1   0.500757 0.243274 0.232353 -0.254906
C58   C     C_1   0.509372 0.692446 0.714090 0.246363
N8    N     N_1   0.495219 0.742438 0.777513 -0.264086
C59   C     C_1   0.270205 0.221324 0.314752 0.223902
N9    N     N_1   0.256609 0.142977 0.271733 -0.268091
C60   C     C_1   0.727207 0.776060 0.688028 0.227643
N10   N     N_1   0.740051 0.854255 0.731163 -0.261894
C61   C     C_1   0.659692 0.441505 0.355283 0.223308
N11   N     N_1   0.740313 0.450824 0.314147 -0.255225
C62   C     C_1   0.338565 0.561308 0.645775 0.211607
N12   N     N_1   0.258451 0.557059 0.685413 -0.259582
N13   N     N_2   0.893815 0.637150 0.943265 -0.440692
H33   H     H_    0.838383 0.650368 0.927810 0.255274
C63   C     C_3   0.973787 0.731313 0.971533 -0.687831
H34   H     H_    0.019395 0.774610 0.920260 0.227567
H35   H     H_    0.026234 0.715665 0.996367 0.242432
H36   H     H_    0.937857 0.779015 0.021378 0.228904
N14   N     N_2   0.100849 0.364885 0.056118 -0.442726
H37   H     H_    0.155032 0.348804 0.070637 0.254629
C64   C     C_3   0.018913 0.272936 0.027557 -0.685261
H38   H     H_    0.972358 0.229095 0.078378 0.230283
H39   H     H_    0.052929 0.224435 0.976860 0.226452
H40   H     H_    0.967743 0.291638 0.003771 0.243877
N15   N     N_2   0.173287 0.041846 0.514768 -0.435699
H41   H     H_    0.134152 0.014731 0.467159 0.259009
C65   C     C_3   0.113797 0.077687 0.590170 -0.734270
H42   H     H_    0.086930 0.131398 0.578383 0.229388
H43   H     H_    0.162086 0.118105 0.637558 0.240913
H44   H     H_    0.044840 0.012625 0.613270 0.232428
N16   N     N_2   0.806827 0.984831 0.562872 -0.428877
H45   H     H_    0.871234 0.024166 0.589011 0.254898
C66   C     C_3   0.818803 0.902503 0.497408 -0.708861
H46   H     H_    0.841616 0.853483 0.520100 0.230925
H47   H     H_    0.879930 0.933798 0.444876 0.224608
H48   H     H_    0.744983 0.854355 0.476226 0.238310

loop_
_geom_bond_atom_site_label_1
_geom_bond_atom_site_label_2
_ccdc_geom_bond_type
C15   C18   A    
N4    H21   S    
N5    H25   S    
C29   C33   A    
C27   C29   A    
C26   N2    A    
C2    C4    S    
C55   H26   S    
C4    C8    A    
C65   H44   S    
C7    H16   S    
N3    H17   S    
C55   H28   S    
C27   N1    A    
N14   H37   S    
C39   C41   A    
C10   H13   S    
C66   H47   S    
C8    H15   S    
C56   H30   S    
C49   H6    S    
C22   C32   A    
C50   H5    S    
C20   H12   S    
C35   C37   A    
N15   H41   S    
C3    C7    A    
C52   H7    S    
N13   C63   S    
C40   C50   A    
N14   C64   S    
C45   C51   S    
C15   C16   A    
C46   C52   S    
C33   C36   A    
Cu2   O6    S    
C34   C35   A    
C38   C58   S    
C17   C19   A    
Cu2   O2    S    
C11   C15   A    
C24   O8    A    
Cu2   N1    S    
C12   C16   A    
C16   C17   A    
C64   H40   S    
C58   N8    T    
C19   H11   S    
C25   N1    A    
C32   C38   A    
C54   H23   S    
C5    C13   A    
C2    O2    A    
C56   H31   S    
C40   C42   A    
N5    C55   S    
C41   C43   A    
C28   N2    A    
C51   H8    S    
C42   C44   A    
C48   N14   S    
N3    C53   S    
C28   H1    S    
C44   C46   A    
C43   H10   S    
C45   C47   A    
C44   H9    S    
C66   H48   S    
C46   C48   A    
C30   C34   A    
C51   C52   D    
C1    O3    A    
C14   C20   A    
N16   H45   S    
Cu1   O8    S    
C25   H4    S    
C47   C49   A    
C5    C7    A    
C13   C19   A    
C27   H2    S    
C6    C8    A    
Cu1   Cu2   S    
C31   C37   A    
C1    C3    S    
Cu1   O5    S    
C37   C57   S    
C6    N16   S    
C3    C9    A    
C6    C14   A    
C21   C31   A    
C53   H18   S    
C41   N3    S    
C33   C34   A    
C23   O5    A    
C54   H24   S    
C9    C11   A    
C63   H35   S    
C10   C12   A    
C24   O6    A    
C39   C49   A    
C12   C14   A    
C56   H32   S    
N4    C54   S    
C64   H38   S    
C5    N15   S    
Cu1   O4    S    
C17   N5    S    
C18   N6    S    
C4    C10   A    
C65   H42   S    
C2    O4    A    
C61   N11   T    
C57   N7    T    
C63   H36   S    
N16   C66   S    
C21   C25   A    
C36   C62   S    
C60   N10   T    
C53   H19   S    
Cu1   O1    S    
C65   H43   S    
C21   C59   S    
C63   H34   S    
C55   H27   S    
C66   H46   S    
N6    H29   S    
C1    O1    A    
C36   C38   A    
C9    H14   S    
C28   C30   A    
C43   C45   A    
N13   H33   S    
C30   C32   A    
C11   C13   A    
C23   C39   S    
C48   C50   A    
C24   C40   S    
C35   C61   S    
C18   C20   A    
C26   H3    S    
Cu2   O7    S    
Cu2   O3    S    
C47   N13   S    
C53   H20   S    
C29   C31   A    
C22   C60   S    
C22   C26   A    
C64   H39   S    
C42   N4    S    
C23   O7    A    
C54   H22   S    
C59   N9    T    
Cu1   N2    S    
N6    C56   S    
C62   N12   T    
N15   C65   S    
