data_mof_unit_17721.cif
_audit_creation_date              2012-12-10T18:58:14-0500
_audit_creation_method            fapswitch 2.2
_symmetry_space_group_name_H-M    P1
_symmetry_Int_Tables_number       1
_space_group_crystal_system       triclinic
_cell_length_a                    10.639618
_cell_length_b                    9.940801
_cell_length_c                    15.859328
_cell_angle_alpha                 89.802978
_cell_angle_beta                  91.439247
_cell_angle_gamma                 90.293986
_cell_volume                      1676.82239764

loop_
_atom_site_label
_atom_site_type_symbol
_atom_type_description
_atom_site_fract_x
_atom_site_fract_y
_atom_site_fract_z
_atom_type_partial_charge
C1    C     C_R   0.871993 0.501747 0.500699 -0.135952
C2    C     C_R   0.520349 0.377517 0.956666 -0.051238
C3    C     C_R   0.505403 0.500312 0.912895 -0.033544
C4    C     C_R   0.494745 0.499705 0.087107 -0.033522
C5    C     C_1   0.504012 0.499474 0.823368 -0.092407
C6    C     C_1   0.496082 0.500533 0.176633 -0.092442
C7    C     C_1   0.497856 0.500664 0.251404 -0.063364
C8    C     C_1   0.502189 0.499337 0.748596 -0.063314
C9    C     C_R   0.566522 0.072188 0.560490 0.014142
C10   C     C_R   0.433512 0.927823 0.439489 0.013980
C11   C     C_R   0.433671 0.071941 0.439278 -0.028317
C12   C     C_R   0.128006 0.498246 0.499302 -0.135953
C13   C     C_R   0.566311 0.928069 0.560735 -0.028339
C14   C     C_R   0.068616 0.460929 0.574210 -0.112517
C15   C     C_R   0.931383 0.539059 0.425791 -0.112461
C16   C     C_R   0.937826 0.464579 0.575218 -0.034831
C17   C     C_R   0.062172 0.535401 0.424781 -0.034755
C18   C     C_2   0.644772 0.146880 0.622453 0.522537
C19   C     C_2   0.355398 0.853152 0.377436 0.521179
C20   C     C_2   0.358178 0.146164 0.375316 0.500690
C21   C     C_2   0.641687 0.853866 0.624778 0.499290
C22   C     C_2   0.467006 0.749859 0.091761 0.561303
C23   C     C_R   0.260825 0.499590 0.499221 0.896362
C24   C     C_2   0.533169 0.250161 0.908242 0.561319
C25   C     C_2   0.456730 0.746724 0.904315 0.550418
C26   C     C_2   0.543448 0.253298 0.095687 0.550402
C27   C     C_2   0.145514 0.427759 0.651546 0.442840
C28   C     C_2   0.854487 0.572226 0.348453 0.442835
C29   C     C_2   0.870177 0.439037 0.654852 0.410455
C30   C     C_2   0.129816 0.560915 0.345143 0.410123
C31   C     C_R   0.739175 0.500409 0.500779 0.896329
C32   C     C_R   0.499669 0.500218 0.339642 0.943165
C33   C     C_R   0.500333 0.499782 0.660358 0.943112
C34   C     C_R   0.482852 0.622422 0.954729 -0.047357
C35   C     C_R   0.517313 0.377597 0.045274 -0.047343
C36   C     C_R   0.479815 0.622502 0.043337 -0.051239
H1    H     H_    0.724883 0.204504 0.601916 0.038064
H2    H     H_    0.768208 0.517181 0.334742 0.044134
H3    H     H_    0.889964 0.350367 0.692661 0.143430
H4    H     H_    0.110016 0.649566 0.307319 0.143400
H5    H     H_    0.275575 0.795031 0.397918 0.038872
H6    H     H_    0.287145 0.216273 0.394303 0.113234
H7    H     H_    0.712318 0.783241 0.605876 0.114140
H8    H     H_    0.414474 0.750493 0.149450 0.114318
H9    H     H_    0.585708 0.249531 0.850557 0.114413
H10   H     H_    0.504755 0.764324 0.845725 0.119231
H11   H     H_    0.495426 0.235692 0.154278 0.119365
H12   H     H_    0.231812 0.482775 0.665245 0.044148
N1    N     N_R   0.500000 0.857200 0.500000 -0.167991
N2    N     N_R   0.500000 0.142800 0.500000 -0.168044
O1    O     O_R   0.316770 0.614620 0.499990 -0.653796
O2    O     O_2   0.380015 0.855883 0.302737 -0.531588
O3    O     O_2   0.375780 0.130552 0.300255 -0.516642
O4    O     O_2   0.624423 0.870060 0.699831 -0.516827
O5    O     O_2   0.519568 0.853226 0.069824 -0.449034
O6    O     O_2   0.480610 0.146792 0.930177 -0.449041
O7    O     O_2   0.377246 0.827131 0.925579 -0.475825
O8    O     O_2   0.622937 0.172899 0.074421 -0.475848
O9    O     O_2   0.116480 0.335862 0.698505 -0.556211
O10   O     O_2   0.883500 0.664150 0.301509 -0.556200
O11   O     O_2   0.792323 0.518718 0.679328 -0.588178
O12   O     O_R   0.683230 0.385380 0.500010 -0.653761
O13   O     O_2   0.207682 0.481236 0.320681 -0.588013
O14   O     O_R   0.683230 0.614620 0.500010 -0.631154
O15   O     O_R   0.316770 0.385380 0.499990 -0.631090
O16   O     O_R   0.499980 0.614630 0.378020 -0.605653
O17   O     O_R   0.500020 0.385370 0.621980 -0.605262
O18   O     O_R   0.500020 0.614630 0.621980 -0.614839
O19   O     O_R   0.499980 0.385370 0.378020 -0.614372
O20   O     O_2   0.619959 0.144708 0.697126 -0.531576
Zn1   Zn    Zn3+2 0.500000 0.653120 0.500000 0.976139
Zn2   Zn    Zn3+2 0.500000 0.346880 0.500000 0.976471

loop_
_geom_bond_atom_site_label_1
_geom_bond_atom_site_label_2
_ccdc_geom_bond_type
C27   H12   S    
C18   O20   D    
C5    C8    T    
C20   H6    S    
C4    C36   A    
C32   O19   A    
C1    C15   A    
C14   C16   A    
C14   C27   S    
C24   O6    D    
O15   Zn2   S    
C22   C36   S    
C25   C34   S    
C23   O1    A    
O16   Zn1   S    
C12   C23   S    
C28   H2    S    
C10   C19   S    
C31   O14   A    
N2    Zn2   S    
C23   O15   A    
C2    C3    A    
C4    C35   A    
C30   H4    S    
C1    C16   A    
C27   O9    D    
C30   O13   D    
C13   C21   S    
C12   C17   A    
C17   C30   S    
C26   O8    D    
C31   O12   A    
C29   H3    S    
C15   C28   S    
C22   O5    D    
O1    Zn1   S    
C26   H11   S    
O18   Zn1   S    
C13   N1    A    
C24   H9    S    
C19   O2    D    
C4    C6    S    
C18   H1    S    
C12   C14   A    
C6    C7    T    
C34   C36   A    
C8    C33   S    
C28   O10   D    
C2    C24   S    
C21   O4    D    
C29   O11   D    
C11   C20   S    
C10   C11   A    
O12   Zn2   S    
C25   O7    D    
C9    C18   S    
C1    C31   S    
O19   Zn2   S    
C33   O17   A    
C32   O16   A    
O17   Zn2   S    
N1    Zn1   S    
O14   Zn1   S    
C26   C35   S    
C15   C17   A    
C2    C35   A    
C11   N2    A    
C9    C13   A    
C7    C32   S    
C3    C34   A    
C16   C29   S    
C21   H7    S    
C10   N1    A    
C25   H10   S    
C22   H8    S    
C9    N2    A    
C19   H5    S    
C33   O18   A    
C20   O3    D    
C3    C5    S    
