data_mof_unit_62218.cif
_audit_creation_date              2012-12-10T18:30:30-0500
_audit_creation_method            fapswitch 2.2
_symmetry_space_group_name_H-M    P1
_symmetry_Int_Tables_number       1
_space_group_crystal_system       triclinic
_cell_length_a                    14.840519
_cell_length_b                    14.15851
_cell_length_c                    15.559587
_cell_angle_alpha                 90.337478
_cell_angle_beta                  81.318842
_cell_angle_gamma                 103.001872
_cell_volume                      3147.72447982

loop_
_atom_site_label
_atom_site_type_symbol
_atom_type_description
_atom_site_fract_x
_atom_site_fract_y
_atom_site_fract_z
_atom_type_partial_charge
C1    C     C_R   0.558792 0.513831 0.337974 0.870315
C2    C     C_R   0.385474 0.456934 0.077140 0.133871
C3    C     C_R   0.675839 0.547546 0.976908 -0.223176
C4    C     C_R   0.322551 0.417755 0.021315 -0.208756
C5    C     C_R   0.150393 0.316456 0.413877 -0.288865
C6    C     C_R   0.833552 0.641376 0.643104 -0.270391
C7    C     C_R   0.243887 0.362661 0.409816 -0.057342
C8    C     C_R   0.748892 0.620687 0.611627 -0.061256
C9    C     C_R   0.203421 0.496796 0.485843 0.609561
C10   C     C_R   0.795222 0.498028 0.522091 0.587339
C11   C     C_R   0.108008 0.447524 0.502067 -0.105241
C12   C     C_R   0.441027 0.485078 0.662072 0.894918
C13   C     C_R   0.877682 0.507781 0.560347 -0.099614
C14   C     C_R   0.081998 0.357887 0.461023 0.067589
C15   C     C_R   0.898882 0.585709 0.616810 0.088874
C16   C     C_R   0.499366 0.329302 0.499851 0.873242
C17   C     C_R   0.500772 0.670722 0.499977 0.879424
C18   C     C_R   0.037053 0.486319 0.551805 -0.023862
C19   C     C_R   0.942927 0.448776 0.539396 -0.029014
C20   C     C_R   0.918426 0.352840 0.509883 0.232267
C21   C     C_R   0.053543 0.556905 0.616404 0.246043
C22   C     C_R   0.988195 0.309037 0.469904 -0.241482
C23   C     C_R   0.552746 0.507476 0.100582 0.106244
C24   C     C_R   0.984290 0.605781 0.647858 -0.238707
C25   C     C_1   0.498372 0.227508 0.499442 -0.168770
C26   C     C_1   0.502388 0.772639 0.499917 -0.192161
C27   C     C_1   0.498871 0.142330 0.499331 0.011528
C28   C     C_1   0.502600 0.857983 0.499739 -0.021780
C29   C     C_1   0.500287 0.042693 0.499374 0.023443
C30   C     C_1   0.501580 0.957710 0.499509 0.014625
C31   C     C_R   0.594273 0.526578 0.245103 -0.186484
C32   C     C_R   0.404841 0.464899 0.754439 -0.162258
C33   C     C_R   0.710154 0.592265 0.121036 -0.277878
C34   C     C_R   0.446443 0.462007 0.898941 0.103000
C35   C     C_R   0.286469 0.393144 0.875025 -0.290389
C36   C     C_R   0.682087 0.585729 0.211159 0.457932
C37   C     C_R   0.313997 0.410208 0.785128 0.498845
C38   C     C_R   0.533312 0.484051 0.188822 -0.267398
C39   C     C_R   0.467951 0.493420 0.812417 -0.272181
C40   C     C_3   0.232181 0.279915 0.721515 0.095409
C41   C     C_3   0.178223 0.251231 0.646158 -0.755992
C42   C     C_3   0.724007 0.723652 0.284331 0.116377
C43   C     C_3   0.780132 0.768610 0.354359 -0.820096
C44   C     C_3   0.834893 0.486104 0.376261 0.083732
C45   C     C_R   0.646170 0.551850 0.065596 0.060677
C46   C     C_3   0.810078 0.426576 0.298006 -0.696544
C47   C     C_3   0.231309 0.649290 0.429453 0.100162
C48   C     C_3   0.242312 0.754993 0.453691 -0.792334
C49   C     C_R   0.351951 0.420818 0.932068 0.064514
C50   C     C_R   0.483870 0.480982 0.045700 0.004135
C51   C     C_R   0.514726 0.481520 0.954738 0.001091
C52   C     C_R   0.612748 0.503641 0.923055 0.130896
H1    H     H_    0.749620 0.569994 0.950884 0.171601
H2    H     H_    0.297535 0.326800 0.380508 0.167644
H3    H     H_    0.131993 0.246918 0.383847 0.163158
H4    H     H_    0.847205 0.699287 0.688522 0.161452
H5    H     H_    0.188885 0.243754 0.782103 0.141575
H6    H     H_    0.298357 0.253749 0.708219 0.124014
H7    H     H_    0.221501 0.283810 0.584506 0.259236
H8    H     H_    0.161079 0.171102 0.641166 0.196690
H9    H     H_    0.112228 0.277238 0.656331 0.266776
H10   H     H_    0.648478 0.718234 0.309476 0.125718
H11   H     H_    0.744960 0.772315 0.225293 0.144084
H12   H     H_    0.248541 0.395739 0.046604 0.173399
H13   H     H_    0.759808 0.721634 0.414261 0.259689
H14   H     H_    0.856114 0.776852 0.331225 0.246761
H15   H     H_    0.766137 0.841084 0.370017 0.214535
H16   H     H_    0.910474 0.492092 0.378738 0.119466
H17   H     H_    0.823435 0.560086 0.367269 0.195191
H18   H     H_    0.734385 0.416648 0.294508 0.256081
H19   H     H_    0.851234 0.464293 0.237388 0.208858
H20   H     H_    0.826347 0.354230 0.303589 0.240738
H21   H     H_    0.164328 0.626787 0.402544 0.121797
H22   H     H_    0.290776 0.643045 0.378434 0.181766
H23   H     H_    0.533960 0.543145 0.789933 0.197365
H24   H     H_    0.308032 0.780417 0.481170 0.268395
H25   H     H_    0.244634 0.800315 0.395051 0.206103
H26   H     H_    0.182204 0.763199 0.502861 0.253504
H27   H     H_    0.470734 0.430823 0.214337 0.198185
H28   H     H_    0.780927 0.629793 0.094713 0.160797
H29   H     H_    0.214093 0.359958 0.900024 0.157574
H30   H     H_    0.969001 0.236246 0.446176 0.164539
H31   H     H_    0.997286 0.659701 0.696959 0.163907
H32   H     H_    0.696163 0.660575 0.634391 0.163367
I1    I     I_    0.784880 0.257273 0.548095 -0.299372
I2    I     I_    0.162184 0.571299 0.694319 -0.259535
I3    I     I_    0.676308 0.450190 0.805841 -0.359726
I4    I     I_    0.317869 0.502668 0.196359 -0.460461
N1    N     N_R   0.268300 0.449640 0.447270 -0.135259
N2    N     N_R   0.731700 0.550360 0.552730 -0.130341
O1    O     O_R   0.616880 0.525390 0.394380 -0.558032
O2    O     O_3   0.742928 0.631865 0.265041 -0.626990
O3    O     O_3   0.778512 0.439622 0.452201 -0.585681
O4    O     O_3   0.231519 0.593324 0.504136 -0.589054
O5    O     O_R   0.383120 0.474610 0.605620 -0.537054
O6    O     O_R   0.468100 0.493070 0.360490 -0.605150
O7    O     O_R   0.531900 0.506930 0.639510 -0.610616
O8    O     O_R   0.574410 0.389880 0.516950 -0.527891
O9    O     O_R   0.425590 0.610120 0.483050 -0.549901
O10   O     O_R   0.425630 0.357560 0.483060 -0.632605
O11   O     O_R   0.574370 0.642440 0.516940 -0.624691
O12   O     O_3   0.250333 0.381638 0.728414 -0.571525
Zn1   Zn    Zn3+2 0.599340 0.521580 0.522630 0.995142
Zn2   Zn    Zn3+2 0.400660 0.478420 0.477370 0.990699

loop_
_geom_bond_atom_site_label_1
_geom_bond_atom_site_label_2
_ccdc_geom_bond_type
C11   C18   A    
C23   C45   A    
C27   C29   S    
C18   C21   A    
C33   C45   A    
C48   H24   S    
C19   C20   A    
C41   H9    S    
C35   H29   S    
C6    H4    S    
C34   C51   A    
C17   C26   S    
C22   H30   S    
C35   C37   A    
C24   H31   S    
C1    O6    A    
C37   O12   S    
C11   C14   A    
C38   H27   S    
O8    Zn1   S    
C7    N1    A    
C1    C31   S    
C33   C36   A    
C18   C19   A    
C32   C39   A    
C48   H26   S    
C17   O11   A    
C44   O3    S    
C2    C50   A    
C6    C15   A    
O10   Zn2   S    
C35   C49   A    
C12   O5    A    
C2    I4    S    
C39   H23   S    
C5    C14   A    
C42   H10   S    
C46   H20   S    
C36   O2    S    
O9    Zn2   S    
O11   Zn1   S    
C12   C32   S    
C44   C46   S    
C40   H6    S    
C13   C19   A    
C34   C39   A    
C47   H21   S    
C9    N1    A    
C5    C7    A    
C16   O10   A    
C23   C50   A    
C6    C8    A    
C10   O3    S    
C3    C45   A    
C51   C52   A    
C48   H25   S    
C2    C4    A    
C29   C30   T    
C17   O9    A    
C47   C48   S    
C43   H13   S    
C20   I1    S    
C47   H22   S    
C50   C51   A    
C12   O7    A    
C44   H17   S    
C32   C37   A    
C9    C11   A    
C41   H7    S    
C46   H19   S    
O7    Zn1   S    
C43   H15   S    
C15   C24   A    
C20   C22   A    
O6    Zn2   S    
N1    Zn2   S    
C44   H16   S    
C8    N2    A    
C42   C43   S    
O5    Zn2   S    
C16   C25   S    
C21   I2    S    
C40   C41   S    
C34   C49   A    
C40   H5    S    
C8    H32   S    
C5    H3    S    
C52   I3    S    
C41   H8    S    
O1    Zn1   S    
C10   C13   A    
C3    C52   A    
C33   H28   S    
C25   C27   T    
C23   C38   A    
C4    H12   S    
C26   C28   T    
C31   C38   A    
C4    C49   A    
C14   C22   A    
C13   C15   A    
C3    H1    S    
C16   O8    A    
C43   H14   S    
C42   H11   S    
C28   C30   S    
C47   O4    S    
C42   O2    S    
N2    Zn1   S    
C46   H18   S    
C40   O12   S    
C10   N2    A    
C1    O1    A    
C21   C24   A    
C31   C36   A    
C7    H2    S    
C9    O4    S    
