data_mof_unit_27964.cif
_audit_creation_date              2012-12-10T17:37:46-0500
_audit_creation_method            fapswitch 2.2
_symmetry_space_group_name_H-M    P1
_symmetry_Int_Tables_number       1
_space_group_crystal_system       triclinic
_cell_length_a                    12.316425
_cell_length_b                    13.204406
_cell_length_c                    17.348578
_cell_angle_alpha                 104.97172
_cell_angle_beta                  74.784229
_cell_angle_gamma                 116.663131
_cell_volume                      2400.45811745

loop_
_atom_site_label
_atom_site_type_symbol
_atom_type_description
_atom_site_fract_x
_atom_site_fract_y
_atom_site_fract_z
_atom_type_partial_charge
C1    C     C_R   0.144533 0.713543 0.507164 0.777507
C2    C     C_R   0.885326 0.521383 0.795933 -0.196973
C3    C     C_R   0.956065 0.545102 0.161245 -0.217937
C4    C     C_R   0.944605 0.536626 0.241130 -0.207780
C5    C     C_R   0.116376 0.480482 0.204479 -0.273905
C6    C     C_R   0.125942 0.485213 0.123488 0.479313
C7    C     C_R   0.045575 0.518396 0.101778 0.083198
C8    C     C_2   0.955294 0.493373 0.984793 -0.260053
C9    C     C_2   0.055538 0.524413 0.016971 -0.208952
C10   C     C_R   0.024319 0.503961 0.263298 -0.096890
C11   C     C_R   0.733862 0.976499 0.390940 -0.190473
C12   C     C_R   0.987020 0.502481 0.651999 0.788200
C13   C     C_R   0.774518 0.164926 0.470956 -0.048869
C14   C     C_R   0.179262 0.915906 0.560480 -0.187894
C15   C     C_R   0.256648 0.031200 0.576334 -0.146756
C16   C     C_R   0.382494 0.068374 0.547528 -0.182153
C17   C     C_R   0.433424 0.990561 0.499096 0.079789
C18   C     C_R   0.351959 0.875583 0.475097 0.080673
C19   C     C_R   0.562366 0.023333 0.472940 0.073205
C20   C     C_R   0.606798 0.944995 0.417260 0.165564
C21   C     C_R   0.523961 0.837158 0.386951 -0.238586
C22   C     C_R   0.398418 0.803478 0.414435 -0.195273
C23   C     C_R   0.855913 0.286352 0.487933 0.801892
C24   C     C_R   0.648866 0.131522 0.501064 -0.252395
C25   C     C_R   0.817475 0.086427 0.417233 -0.195910
C26   C     C_R   0.225891 0.836578 0.511795 -0.101538
C27   C     C_R   0.641380 0.673743 0.629705 -0.299953
C28   C     C_R   0.250413 0.352561 0.389704 0.072208
C29   C     C_R   0.349218 0.320505 0.366020 -0.254853
C30   C     C_R   0.448854 0.375996 0.407487 -0.193364
C31   C     C_R   0.450939 0.464903 0.473636 -0.006454
C32   C     C_R   0.347228 0.494638 0.495789 0.287565
C33   C     C_R   0.551317 0.525149 0.518673 -0.037968
C34   C     C_R   0.013612 0.498417 0.348078 0.811109
C35   C     C_R   0.545481 0.613321 0.584465 0.177101
C36   C     C_R   0.443921 0.640781 0.605022 -0.284141
C37   C     C_R   0.347171 0.582738 0.561899 -0.189677
C38   C     C_R   0.658036 0.502296 0.501742 0.015291
C39   C     C_R   0.743247 0.646939 0.610017 0.067716
C40   C     C_R   0.978772 0.500178 0.737074 -0.029661
C41   C     C_R   0.063382 0.474116 0.759777 -0.207118
C42   C     C_R   0.055538 0.470394 0.840218 -0.153235
C43   C     C_R   0.963878 0.494239 0.899294 0.194318
C44   C     C_R   0.877662 0.517780 0.876664 -0.166209
Cu1   Cu    Cu3+1 0.900140 0.524980 0.518800 0.934334
Cu2   Cu    Cu3+1 0.099860 0.475020 0.481200 0.922427
H1    H     H_    0.135315 0.455801 0.715438 0.159400
H2    H     H_    0.914775 0.111394 0.393122 0.147352
H3    H     H_    0.556308 0.778376 0.341743 0.146283
H4    H     H_    0.768247 0.917164 0.348274 0.133570
H5    H     H_    0.621161 0.192661 0.546046 0.147943
H6    H     H_    0.082936 0.888448 0.588068 0.151321
H7    H     H_    0.436647 0.159030 0.562749 0.129392
H8    H     H_    0.219406 0.091802 0.613360 0.140898
H9    H     H_    0.338625 0.721261 0.385620 0.177686
H10   H     H_    0.817621 0.693311 0.644650 0.119766
H11   H     H_    0.874262 0.557308 0.285627 0.166707
H12   H     H_    0.438843 0.708047 0.655382 0.154215
H13   H     H_    0.637490 0.741297 0.680056 0.136861
H14   H     H_    0.670395 0.436981 0.452796 0.123853
H15   H     H_    0.173492 0.308895 0.357206 0.120823
H16   H     H_    0.522693 0.347584 0.386572 0.135994
H17   H     H_    0.348547 0.252323 0.315333 0.144194
H18   H     H_    0.273865 0.610136 0.583011 0.209028
H19   H     H_    0.180388 0.457444 0.220919 0.164185
H20   H     H_    0.146512 0.550144 0.979843 0.178851
H21   H     H_    0.805607 0.534995 0.921652 0.126856
H22   H     H_    0.895659 0.574002 0.146380 0.149882
H23   H     H_    0.818349 0.540761 0.779740 0.152707
H24   H     H_    0.864330 0.467818 0.022031 0.153446
H25   H     H_    0.120192 0.447268 0.855655 0.122101
N1    N     N_R   0.749710 0.562810 0.547300 -0.180402
N2    N     N_R   0.249640 0.437820 0.453210 -0.206878
O1    O     O_R   0.025490 0.682370 0.523640 -0.579734
O2    O     O_R   0.194150 0.640180 0.491890 -0.604602
O3    O     O_R   0.905900 0.523560 0.631310 -0.586937
O4    O     O_R   0.074570 0.481370 0.599560 -0.604265
O5    O     O_R   0.805850 0.359820 0.508110 -0.587001
O6    O     O_R   0.974510 0.317630 0.476360 -0.586298
O7    O     O_R   0.925430 0.518630 0.400440 -0.588307
O8    O     O_R   0.094100 0.476440 0.368690 -0.599943
O9    O     O_3   0.218045 0.462477 0.066623 -0.627834
C45   C     C_3   0.169414 0.347648 0.026150 0.038977
H26   H     H_    0.222051 0.345564 0.963455 0.166780
H27   H     H_    0.070627 0.314849 0.020234 0.133349
C46   C     C_3   0.186348 0.267994 0.068016 -0.354177
H28   H     H_    0.284799 0.301837 0.073925 0.229299
H29   H     H_    0.129887 0.264847 0.129595 0.206166
C47   C     C_3   0.147161 0.146281 0.020246 -0.915437
H30   H     H_    0.048406 0.110175 0.014601 0.255726
H31   H     H_    0.159963 0.090677 0.052275 0.256294
H32   H     H_    0.204114 0.146302 0.958859 0.255472

loop_
_geom_bond_atom_site_label_1
_geom_bond_atom_site_label_2
_ccdc_geom_bond_type
C29   H17   S    
C6    O9    S    
C41   C42   A    
C35   C36   A    
C18   C26   A    
C8    C43   S    
C21   H3    S    
Cu1   Cu2   S    
Cu1   O3    S    
C1    O1    A    
C36   C37   A    
C3    H22   S    
C36   H12   S    
C30   C31   A    
C46   H29   S    
C11   C25   A    
C15   C16   A    
C13   C23   S    
C9    H20   S    
C34   O7    A    
C16   H7    S    
C14   H6    S    
Cu2   O6    S    
C19   C20   A    
C2    C44   A    
C16   C17   A    
C4    H11   S    
C39   N1    A    
C31   C33   A    
Cu1   O5    S    
C34   O8    A    
C47   H31   S    
C2    H23   S    
C28   H15   S    
C24   H5    S    
C21   C22   A    
Cu1   N1    S    
C13   C25   A    
C28   N2    A    
Cu2   O2    S    
C38   N1    A    
C11   C20   A    
C1    O2    A    
C15   H8    S    
C5    H19   S    
C27   C39   A    
C32   N2    A    
C46   H28   S    
C8    C9    D    
C27   C35   A    
C13   C24   A    
Cu1   O1    S    
C12   C40   S    
C43   C44   A    
C29   C30   A    
Cu2   O8    S    
C39   H10   S    
C12   O4    A    
C17   C18   A    
C41   H1    S    
C10   C34   S    
C32   C37   A    
C14   C26   A    
C47   H32   S    
C25   H2    S    
C6    C7    A    
C38   H14   S    
C40   C41   A    
C45   H27   S    
C30   H16   S    
C1    C26   S    
C45   H26   S    
C42   C43   A    
C4    C10   A    
C3    C4    A    
C37   H18   S    
C7    C9    S    
C28   C29   A    
C18   C22   A    
C8    H24   S    
C31   C32   A    
C46   C47   S    
Cu2   O4    S    
C22   H9    S    
C3    C7    A    
C33   C38   A    
C12   O3    A    
C19   C24   A    
C5    C10   A    
C11   H4    S    
C27   H13   S    
C5    C6    A    
C42   H25   S    
C33   C35   A    
Cu1   O7    S    
C23   O5    A    
C17   C19   A    
C2    C40   A    
C45   C46   S    
C20   C21   A    
O9    C45   S    
C14   C15   A    
C44   H21   S    
C23   O6    A    
C47   H30   S    
Cu2   N2    S    
