data_mof_unit_15261.cif
_audit_creation_date              2012-12-11T15:14:48-0500
_audit_creation_method            fapswitch 2.2
_symmetry_space_group_name_H-M    P1
_symmetry_Int_Tables_number       1
_space_group_crystal_system       triclinic
_cell_length_a                    22.277208
_cell_length_b                    7.230585
_cell_length_c                    19.238786
_cell_angle_alpha                 89.955247
_cell_angle_beta                  99.171357
_cell_angle_gamma                 90.030847
_cell_volume                      3059.31294646

loop_
_atom_site_label
_atom_site_type_symbol
_atom_type_description
_atom_site_fract_x
_atom_site_fract_y
_atom_site_fract_z
_atom_type_partial_charge
O1    O     O_R   0.448470 0.506130 0.415700 -0.535005
O2    O     O_R   0.551530 0.006130 0.584300 -0.535459
O3    O     O_R   0.436320 0.174490 0.555800 -0.529887
O4    O     O_R   0.563680 0.674490 0.444200 -0.529394
C1    C     C_R   0.421169 0.344138 0.575150 0.692964
C2    C     C_R   0.578829 0.844296 0.424862 0.693242
O5    O     O_R   0.441350 0.176340 0.414480 -0.534368
O6    O     O_R   0.558650 0.676340 0.585520 -0.534734
O7    O     O_R   0.556600 0.007100 0.441970 -0.529506
O8    O     O_R   0.443400 0.507100 0.558030 -0.529160
C3    C     C_R   0.427205 0.344525 0.388970 0.685785
C4    C     C_R   0.572791 0.844465 0.611034 0.684381
O9    O     O_3   0.537810 0.339550 0.509190 -0.371261
O10   O     O_3   0.462190 0.839550 0.490810 -0.370709
V1    V     V_3+5 0.492990 0.064280 0.498300 1.462643
V2    V     V_3+5 0.507010 0.564280 0.501700 1.462938
C5    C     C_R   0.868809 0.965432 0.693935 0.299356
C6    C     C_R   0.131095 0.462829 0.306107 0.299278
H1    H     H_    0.956015 0.989675 0.760071 0.109052
H2    H     H_    0.043886 0.487033 0.239968 0.108447
H3    H     H_    0.782332 0.985642 0.579400 0.174369
H4    H     H_    0.217503 0.481971 0.420734 0.176979
C7    C     C_R   0.885081 0.941237 0.821417 -0.092373
C8    C     C_R   0.114912 0.440929 0.178582 -0.092399
C9    C     C_R   0.591030 0.794478 0.738719 -0.207955
C10   C     C_R   0.409049 0.296167 0.261216 -0.206729
C11   C     C_R   0.629035 0.758427 0.801656 -0.183617
C12   C     C_R   0.371101 0.260852 0.198185 -0.181964
C13   C     C_R   0.692279 0.776182 0.807384 0.289733
C14   C     C_R   0.307843 0.278031 0.192428 0.287859
C15   C     C_R   0.718218 0.852543 0.750249 0.052299
C16   C     C_R   0.281815 0.352975 0.249688 0.052775
C17   C     C_R   0.678649 0.877829 0.684293 0.023973
C18   C     C_R   0.321332 0.377462 0.315719 0.023255
C19   C     C_R   0.781918 0.896646 0.754749 0.027820
C20   C     C_R   0.218083 0.396422 0.245227 0.027619
C21   C     C_R   0.805598 0.935797 0.691735 0.089399
C22   C     C_R   0.194335 0.434024 0.308293 0.088200
C23   C     C_R   0.765768 0.950434 0.627677 -0.173257
C24   C     C_R   0.234123 0.447919 0.372404 -0.170664
C25   C     C_R   0.703583 0.926558 0.624342 -0.192734
C26   C     C_R   0.296329 0.424760 0.375739 -0.191074
C27   C     C_R   0.822607 0.911097 0.819596 -0.203744
C28   C     C_R   0.177417 0.411641 0.180386 -0.203025
C29   C     C_R   0.907734 0.966852 0.758685 -0.234297
C30   C     C_R   0.092197 0.464960 0.241341 -0.234346
C31   C     C_R   0.614940 0.847294 0.678999 -0.079872
C32   C     C_R   0.385065 0.347617 0.321003 -0.080443
H5    H     H_    0.806838 0.908401 0.869663 0.159332
H6    H     H_    0.193214 0.410086 0.130331 0.160748
H7    H     H_    0.542663 0.769761 0.735450 0.127918
H8    H     H_    0.457438 0.272016 0.264476 0.129871
H9    H     H_    0.609224 0.704003 0.845337 0.123249
H10   H     H_    0.390977 0.207500 0.154419 0.124874
H11   H     H_    0.675092 0.944070 0.573650 0.119085
H12   H     H_    0.324782 0.441648 0.426482 0.120079
C33   C     C_3   0.771567 0.777093 0.303897 -0.161181
C34   C     C_3   0.230196 0.266280 0.699046 -0.190918
C35   C     C_3   0.803129 0.961596 0.287901 -0.259842
C36   C     C_3   0.195642 0.448288 0.711044 -0.253978
H13   H     H_    0.845874 0.018056 0.317955 0.146197
H14   H     H_    0.151885 0.494618 0.680088 0.146955
H15   H     H_    0.788362 0.678135 0.346721 0.165317
H16   H     H_    0.214641 0.159551 0.658768 0.181589
C37   C     C_1   0.875480 0.941222 0.121298 -0.194742
C38   C     C_1   0.124513 0.441735 0.878660 -0.192376
C39   C     C_1   0.624986 0.853052 0.379500 -0.145533
C40   C     C_1   0.375009 0.352392 0.620525 -0.145752
C41   C     C_3   0.760836 0.734962 0.224353 0.389839
C42   C     C_3   0.241997 0.236811 0.779413 0.378898
C43   C     C_3   0.791995 0.915116 0.208271 0.034777
C44   C     C_3   0.207925 0.414584 0.791622 0.076563
C45   C     C_3   0.698293 0.830862 0.214306 -0.234216
C46   C     C_3   0.302802 0.342352 0.786651 -0.240307
C47   C     C_3   0.709526 0.877632 0.293761 0.055756
C48   C     C_3   0.290428 0.376251 0.706240 0.063939
C49   C     C_3   0.729865 0.015193 0.198613 -0.224436
C50   C     C_3   0.268250 0.524065 0.798315 -0.226113
C51   C     C_3   0.740591 0.059564 0.278324 0.469555
C52   C     C_3   0.256411 0.555669 0.717705 0.450827
C53   C     C_1   0.837717 0.931253 0.160301 -0.037813
C54   C     C_1   0.162253 0.431681 0.839625 -0.021951
C55   C     C_1   0.663233 0.862473 0.341074 0.066383
C56   C     C_1   0.336751 0.361322 0.658952 0.066165
H17   H     H_    0.712970 0.115026 0.156121 0.153459
H18   H     H_    0.283791 0.630879 0.838571 0.140324
H19   H     H_    0.655710 0.773749 0.184108 0.140650
H20   H     H_    0.346429 0.295410 0.817741 0.134865
O11   O     O_R   0.056650 0.288730 0.942060 -0.531381
O12   O     O_R   0.943350 0.788730 0.057940 -0.533072
O13   O     O_R   0.058660 0.616870 0.085540 -0.538150
O14   O     O_R   0.941340 0.116870 0.914460 -0.538498
C57   C     C_R   0.072743 0.448716 0.111110 0.704364
C58   C     C_R   0.927256 0.948775 0.888890 0.703324
O15   O     O_R   0.063700 0.618520 0.944220 -0.536617
O16   O     O_R   0.936300 0.118520 0.055780 -0.536694
O17   O     O_R   0.948460 0.787610 0.915680 -0.530236
O18   O     O_R   0.051540 0.287610 0.084320 -0.529975
C59   C     C_R   0.078836 0.450258 0.924627 0.715859
C60   C     C_R   0.921167 0.950107 0.075362 0.714364
O19   O     O_3   0.962230 0.453430 0.990860 -0.374577
O20   O     O_3   0.037770 0.953430 0.009140 -0.372897
V3    V     V_3+5 0.007010 0.728750 0.001700 1.415431
V4    V     V_3+5 0.992990 0.228750 0.998300 1.415340
Cl1   Cl    Cl    0.726172 0.276948 0.315838 -0.677023
Cl2   Cl    Cl    0.266927 0.768251 0.674451 -0.720089
N1    N     N_2   0.770386 0.557079 0.193366 -0.475466
H21   H     H_    0.755860 0.553583 0.139760 0.242636
C61   C     C_3   0.829905 0.476284 0.214229 -0.482657
H22   H     H_    0.830565 0.335335 0.191607 0.201270
H23   H     H_    0.840648 0.464456 0.272419 0.218185
H24   H     H_    0.865225 0.560991 0.194543 0.173575
N2    N     N_2   0.235774 0.062265 0.814528 -0.510676
H25   H     H_    0.271520 0.973608 0.811827 0.281207
C62   C     C_3   0.177060 0.973455 0.797752 -0.505670
H26   H     H_    0.176431 0.846856 0.830281 0.199005
H27   H     H_    0.168044 0.933661 0.741323 0.220572
H28   H     H_    0.140387 0.066434 0.809437 0.196597
N3    N     N_2   0.893668 0.995617 0.631098 -0.531268
H29   H     H_    0.930401 0.084460 0.637459 0.256778
C63   C     C_3   0.905940 0.827511 0.595123 -0.558404
H30   H     H_    0.941863 0.745757 0.628381 0.194068
H31   H     H_    0.921887 0.862993 0.544942 0.202360
H32   H     H_    0.864120 0.742212 0.582651 0.210434
N4    N     N_2   0.106172 0.491313 0.368985 -0.530593
H33   H     H_    0.069364 0.579763 0.362792 0.256567
C64   C     C_3   0.094011 0.322259 0.404551 -0.554853
H34   H     H_    0.058130 0.240817 0.371101 0.192534
H35   H     H_    0.078056 0.356424 0.454825 0.203181
H36   H     H_    0.135882 0.237192 0.416798 0.211712
N5    N     N_2   0.728568 0.695956 0.867453 -0.550627
H37   H     H_    0.708814 0.697957 0.912459 0.249897
C65   C     C_3   0.753295 0.516162 0.854857 -0.533947
H38   H     H_    0.715967 0.413918 0.841475 0.194971
H39   H     H_    0.783649 0.468919 0.903037 0.196415
H40   H     H_    0.780437 0.523022 0.811234 0.214786
N6    N     N_2   0.271640 0.198634 0.132152 -0.549125
H41   H     H_    0.291433 0.201784 0.087182 0.255251
C66   C     C_3   0.247003 0.018298 0.144321 -0.528246
H42   H     H_    0.284389 0.916263 0.157587 0.194704
H43   H     H_    0.216761 0.971601 0.095988 0.199767
H44   H     H_    0.219767 0.024000 0.187874 0.213142

loop_
_geom_bond_atom_site_label_1
_geom_bond_atom_site_label_2
_ccdc_geom_bond_type
C22   C24   A    
C39   C55   T    
C7    C29   A    
C11   C13   A    
C45   C47   S    
O1    C3    A    
O2    C4    A    
C48   C56   S    
C2    O7    A    
C64   H35   S    
C41   N1    S    
C34   C48   S    
C23   C25   A    
C13   N5    S    
O5    C3    A    
N6    C66   S    
C46   C48   S    
O11   C59   A    
C16   C20   A    
C19   C21   A    
C5    C29   A    
C61   H23   S    
C6    N4    S    
C66   H44   S    
C50   C52   S    
C33   C35   S    
O13   C57   A    
C36   C44   S    
C34   C36   S    
C62   H26   S    
C52   Cl2   S    
C7    C27   A    
C51   Cl1   S    
C36   H14   S    
C41   C43   S    
C45   H19   S    
C63   H32   S    
C44   C50   S    
C26   H12   S    
C25   H11   S    
O15   V3    S    
C12   C14   A    
C62   H27   S    
C18   C26   A    
C42   C46   S    
C65   H40   S    
N1    H21   S    
C15   C17   A    
C41   C45   S    
C19   C27   A    
C9    C31   A    
C10   C32   A    
C50   H18   S    
C24   C26   A    
C49   H17   S    
O6    V2    S    
C14   N6    S    
N1    C61   S    
C3    C32   S    
C4    C31   S    
C6    C30   A    
O12   C60   A    
C1    C40   S    
C33   H15   S    
C49   C51   S    
C42   N2    S    
C34   H16   S    
C66   H42   S    
C35   H13   S    
C40   C56   T    
C17   C25   A    
O4    C2    A    
C61   H24   S    
C35   C51   S    
C12   H10   S    
C27   H5    S    
C58   O17   A    
N5    C65   S    
H1    C29   S    
N2    C62   S    
C16   C18   A    
C38   C59   S    
O4    V2    S    
C9    H7    S    
C10   H8    S    
C38   C54   T    
O14   V4    S    
C37   C53   T    
H3    C23   S    
O6    C4    A    
C62   H28   S    
H4    C24   S    
O14   C58   A    
O1    V2    S    
C5    C21   A    
O2    V1    S    
C63   H30   S    
O17   V3    S    
N3    C63   S    
C2    C39   S    
O19   V4    S    
O16   V4    S    
O11   V4    S    
C65   H38   S    
C8    C28   A    
C15   C19   A    
C20   C28   A    
C18   C32   A    
C64   H34   S    
C43   C49   S    
O3    V1    S    
C65   H39   S    
N2    H25   S    
C28   H6    S    
C36   C52   S    
C34   C42   S    
C48   C52   S    
C37   C60   S    
O13   V3    S    
O3    C1    A    
N3    H29   S    
C11   H9    S    
C9    C11   A    
N6    H41   S    
C10   C12   A    
C7    C58   S    
C33   C41   S    
C33   C47   S    
C20   C22   A    
C6    C22   A    
C64   H36   S    
C8    C30   A    
C1    O8    A    
C13   C15   A    
O8    V2    S    
C8    C57   S    
C14   C16   A    
C66   H43   S    
C47   C55   S    
N4    H33   S    
C17   C31   A    
O16   C60   A    
O5    V1    S    
O15   C59   A    
O7    V1    S    
O20   V3    S    
H2    C30   S    
O12   V3    S    
C63   H31   S    
C5    N3    S    
C21   C23   A    
C46   C50   S    
O9    V2    S    
N4    C64   S    
C45   C49   S    
O10   V1    S    
C42   C44   S    
C46   H20   S    
C61   H22   S    
C47   C51   S    
C57   O18   A    
O18   V4    S    
C44   C54   S    
N5    H37   S    
C35   C43   S    
C43   C53   S    
