data_mof_unit_63448.cif
_audit_creation_date              2012-12-10T17:00:52-0500
_audit_creation_method            fapswitch 2.2
_symmetry_space_group_name_H-M    P1
_symmetry_Int_Tables_number       1
_space_group_crystal_system       triclinic
_cell_length_a                    13.121036
_cell_length_b                    13.125507
_cell_length_c                    19.512954
_cell_angle_alpha                 100.324524
_cell_angle_beta                  80.358801
_cell_angle_gamma                 90.944493
_cell_volume                      3259.1003378

loop_
_atom_site_label
_atom_site_type_symbol
_atom_type_description
_atom_site_fract_x
_atom_site_fract_y
_atom_site_fract_z
_atom_type_partial_charge
Br1   Br    Br    0.417521 0.745656 0.947451 -0.507520
C1    C     C_R   0.223020 0.536045 0.526969 0.512111
C2    C     C_2   0.470133 0.528709 0.988267 -0.095293
C3    C     C_2   0.527675 0.464570 0.012968 -0.133588
C4    C     C_R   0.776088 0.463363 0.472982 0.515873
C5    C     C_R   0.518976 0.476632 0.233443 0.021028
C6    C     C_2   0.887554 0.450704 0.462095 -0.076113
C7    C     C_2   0.940465 0.494650 0.512015 -0.148562
C8    C     C_2   0.110136 0.546558 0.540702 -0.099536
C9    C     C_2   0.053469 0.488051 0.498298 -0.147499
C10   C     C_2   0.544529 0.887913 0.529912 -0.076762
C11   C     C_2   0.507300 0.940362 0.486795 -0.144397
C12   C     C_R   0.471892 0.524561 0.911989 0.052958
C13   C     C_2   0.458629 0.110178 0.466708 -0.092654
C14   C     C_2   0.511801 0.053555 0.499570 -0.146970
C15   C     C_R   0.467196 0.223218 0.478824 0.527468
C16   C     C_R   0.533493 0.776378 0.521124 0.507406
C17   C     C_R   0.511369 0.485428 0.309648 0.541130
C18   C     C_R   0.489138 0.513407 0.690476 0.506339
C19   C     C_R   0.481922 0.517509 0.766486 0.006686
C20   C     C_R   0.501503 0.428022 0.791948 -0.130629
C21   C     C_R   0.495038 0.431034 0.863998 -0.131965
C22   C     C_2   0.530148 0.278757 0.211832 0.581697
C23   C     C_R   0.449941 0.614321 0.886422 0.172448
C24   C     C_R   0.454570 0.610089 0.813980 -0.083217
C25   C     C_R   0.522538 0.565370 0.134651 -0.103130
C26   C     C_R   0.520104 0.568559 0.206368 -0.141080
C27   C     C_R   0.523987 0.379331 0.187440 0.048583
C28   C     C_R   0.526946 0.377680 0.115133 -0.103180
C29   C     C_R   0.524793 0.469880 0.088905 0.008196
H1    H     H_    0.520357 0.355163 0.756162 0.142671
H2    H     H_    0.575273 0.928101 0.575620 0.099368
H3    H     H_    0.517373 0.643135 0.241147 0.128443
H4    H     H_    0.576486 0.404939 0.977462 0.127455
H5    H     H_    0.523711 0.637474 0.114893 0.144469
H6    H     H_    0.438914 0.679710 0.794719 0.164828
H7    H     H_    0.421335 0.586722 0.025416 0.175692
H8    H     H_    0.507289 0.359379 0.881676 0.120937
H9    H     H_    0.506351 0.124616 0.193517 0.350074
H10   H     H_    0.531216 0.304400 0.078766 0.160265
H11   H     H_    0.090889 0.434775 0.451962 0.166576
H12   H     H_    0.900369 0.537992 0.561781 0.136624
H13   H     H_    0.073087 0.601250 0.586322 0.116615
H14   H     H_    0.927145 0.412702 0.410633 0.106862
H15   H     H_    0.558986 0.091169 0.537369 0.163191
H16   H     H_    0.470807 0.899813 0.443751 0.135427
H17   H     H_    0.409869 0.072948 0.429908 0.117978
O1    O     O_3   0.500000 0.500000 0.500000 -0.450852
O2    O     O_R   0.441420 0.437150 0.344000 -0.511252
O3    O     O_R   0.438960 0.578560 0.667440 -0.542976
O4    O     O_R   0.575450 0.541060 0.341470 -0.537223
O5    O     O_R   0.544160 0.443230 0.647100 -0.544443
O6    O     O_2   0.565900 0.273922 0.265169 -0.506978
O7    O     O_R   0.497642 0.188245 0.172157 -0.690404
O8    O     O_R   0.530110 0.266880 0.518530 -0.542177
O9    O     O_R   0.465470 0.738830 0.563940 -0.533806
O10   O     O_R   0.266890 0.467300 0.476120 -0.543815
O11   O     O_R   0.737530 0.526990 0.441410 -0.527428
O12   O     O_R   0.276880 0.592620 0.567490 -0.534267
O13   O     O_R   0.718700 0.413090 0.514970 -0.529403
O14   O     O_R   0.414920 0.276880 0.447500 -0.518105
O15   O     O_R   0.589510 0.717410 0.470040 -0.533130
Zn1   Zn    Zn3+2 0.571990 0.407410 0.544380 0.952608
Zn2   Zn    Zn3+2 0.407420 0.421690 0.442900 0.981106
Zn3   Zn    Zn3+2 0.598910 0.570150 0.439280 0.965954
Zn4   Zn    Zn3+2 0.421690 0.600750 0.573440 0.949285

loop_
_geom_bond_atom_site_label_1
_geom_bond_atom_site_label_2
_ccdc_geom_bond_type
C15   O14   A    
C17   O4    A    
O14   Zn2   S    
C10   C11   D    
C23   C24   A    
C22   O6    D    
C13   H17   S    
O1    Zn3   S    
C20   H1    S    
C8    C9    D    
O11   Zn3   S    
C18   C19   S    
C2    C12   S    
C11   C14   S    
C10   H2    S    
C17   O2    A    
C1    O10   A    
C3    C29   S    
C6    C7    D    
O2    Zn2   S    
C6    H14   S    
C26   H3    S    
C9    H11   S    
O3    Zn4   S    
C16   O9    A    
C25   C26   A    
C28   C29   A    
C4    O11   A    
C22   O7    S    
O13   Zn1   S    
O9    Zn4   S    
C28   H10   S    
C11   H16   S    
C27   C28   A    
O15   Zn3   S    
C7    H12   S    
C12   C21   A    
C25   C29   A    
C3    H4    S    
O12   Zn4   S    
C13   C14   D    
C5    C17   S    
C13   C15   S    
C8    H13   S    
H9    O7    S    
O1    Zn2   S    
C22   C27   S    
C14   H15   S    
C24   H6    S    
C2    C3    D    
C21   H8    S    
C16   O15   A    
C18   O3    A    
C25   H5    S    
C19   C20   A    
C2    H7    S    
Br1   C23   S    
C7    C9    S    
O4    Zn3   S    
C4    C6    S    
C1    O12   A    
C10   C16   S    
O1    Zn1   S    
C15   O8    A    
C4    O13   A    
O1    Zn4   S    
C20   C21   A    
C1    C8    S    
C18   O5    A    
O5    Zn1   S    
C5    C27   A    
C5    C26   A    
C12   C23   A    
O10   Zn2   S    
C19   C24   A    
O8    Zn1   S    
