data_mof_unit_6722.cif
_audit_creation_date              2012-12-10T17:05:57-0500
_audit_creation_method            fapswitch 2.2
_symmetry_space_group_name_H-M    P1
_symmetry_Int_Tables_number       1
_space_group_crystal_system       triclinic
_cell_length_a                    11.537323
_cell_length_b                    10.68851
_cell_length_c                    10.108081
_cell_angle_alpha                 89.556513
_cell_angle_beta                  90.325875
_cell_angle_gamma                 90.032212
_cell_volume                      1246.43845676

loop_
_atom_site_label
_atom_site_type_symbol
_atom_type_description
_atom_site_fract_x
_atom_site_fract_y
_atom_site_fract_z
_atom_type_partial_charge
C1    C     C_R   0.488717 0.263399 0.500547 0.870216
C2    C     C_1   0.161653 0.498857 0.499372 -0.174604
C3    C     C_1   0.059409 0.498638 0.499822 -0.007899
C4    C     C_1   0.940658 0.498992 0.500537 0.011147
C5    C     C_1   0.838401 0.499459 0.500832 -0.142116
C6    C     C_2   0.441135 0.934319 0.402349 -0.043131
C7    C     C_R   0.354071 0.875720 0.313505 0.100229
C8    C     C_R   0.254808 0.818241 0.366257 -0.165856
C9    C     C_R   0.171124 0.766860 0.282090 -0.127262
C10   C     C_R   0.186755 0.770806 0.145167 -0.112265
C11   C     C_R   0.286095 0.826239 0.092211 -0.116296
C12   C     C_2   0.504543 0.871686 0.494304 0.278301
C13   C     C_R   0.369056 0.879717 0.175856 -0.110324
C14   C     C_R   0.370581 0.096938 0.615862 0.142686
C15   C     C_R   0.414795 0.097311 0.745779 -0.048593
C16   C     C_R   0.342478 0.069717 0.852526 -0.163220
C17   C     C_R   0.225989 0.040102 0.830575 -0.115254
C18   C     C_R   0.181699 0.037655 0.701752 -0.128383
C19   C     C_R   0.253360 0.066696 0.594827 -0.200536
C20   C     C_2   0.456145 0.068262 0.393277 -0.193530
C21   C     C_2   0.443543 0.137849 0.501777 -0.077302
C22   C     C_2   0.585823 0.536825 0.928805 0.512860
C23   C     C_2   0.592086 0.498804 0.073081 0.644675
C24   C     C_R   0.282193 0.499620 0.499716 0.885618
C25   C     C_R   0.499686 0.737540 0.499157 0.778539
C26   C     C_R   0.717816 0.499911 0.500317 0.906065
H1    H     H_    0.496134 0.105002 0.303953 0.166291
H2    H     H_    0.169963 0.019290 0.913398 0.141656
H3    H     H_    0.091413 0.014969 0.684844 0.145123
H4    H     H_    0.216967 0.068130 0.495826 0.147185
H5    H     H_    0.648686 0.647372 0.795056 0.363058
H6    H     H_    0.385878 0.381241 0.827062 0.381306
H7    H     H_    0.756290 0.465475 0.058640 0.335550
H8    H     H_    0.355439 0.573988 0.168520 0.386693
H9    H     H_    0.241876 0.814200 0.472243 0.121562
H10   H     H_    0.094250 0.723764 0.322970 0.146002
H11   H     H_    0.122470 0.729917 0.080168 0.149490
H12   H     H_    0.299274 0.826638 0.986371 0.156674
H13   H     H_    0.445632 0.922518 0.133676 0.123548
H14   H     H_    0.625524 0.873131 0.630097 0.334527
H15   H     H_    0.504799 0.120212 0.764548 0.168571
H16   H     H_    0.376630 0.072207 0.952350 0.143247
N1    N     N_2   0.501210 0.501330 0.852150 0.010738
N2    N     N_2   0.501250 0.501360 0.147810 0.036723
O1    O     O_R   0.499980 0.319060 0.613040 -0.630974
O2    O     O_3   0.674193 0.610954 0.880596 -0.822488
O3    O     O_3   0.434188 0.409759 0.902104 -0.691419
O4    O     O_3   0.697109 0.466442 0.129319 -0.775653
O5    O     O_3   0.409614 0.561470 0.094865 -0.695902
O6    O     O_R   0.500020 0.319100 0.386900 -0.608151
O7    O     O_R   0.334430 0.499990 0.613070 -0.615346
O8    O     O_R   0.334470 0.500030 0.386930 -0.629060
O9    O     O_R   0.499980 0.680900 0.613100 -0.639677
O10   O     O_R   0.500020 0.680940 0.386960 -0.611224
O11   O     O_R   0.665530 0.499970 0.613070 -0.620960
O12   O     O_R   0.665570 0.500010 0.386930 -0.545497
O13   O     O_3   0.582737 0.934696 0.574549 -0.782194
Zn1   Zn    Zn3+2 0.499980 0.499970 0.650990 0.977698
Zn2   Zn    Zn3+2 0.500020 0.500030 0.349010 1.029141

loop_
_geom_bond_atom_site_label_1
_geom_bond_atom_site_label_2
_ccdc_geom_bond_type
N2    O5    S    
C24   O8    A    
C11   H12   S    
O9    Zn1   S    
C1    C21   S    
C6    C7    S    
H14   O13   S    
O8    Zn2   S    
C9    H10   S    
C6    C20   S    
C9    C10   A    
C22   N1    D    
O12   Zn2   S    
C12   C25   S    
C26   O11   A    
C24   O7    A    
C2    C3    T    
C3    C4    S    
C7    C8    A    
O7    Zn1   S    
C25   O10   A    
C6    C12   D    
C11   C13   A    
C1    O1    A    
C19   H4    S    
C10   H11   S    
C12   O13   S    
C14   C21   S    
C20   H1    S    
C25   O9    A    
C17   C18   A    
O10   Zn2   S    
C2    C24   S    
H6    O3    S    
O1    Zn1   S    
C13   H13   S    
C16   C17   A    
C10   C11   A    
O6    Zn2   S    
N2    Zn2   S    
C5    C26   S    
C16   H16   S    
C7    C13   A    
C20   C21   D    
C15   H15   S    
C18   C19   A    
C1    O6    A    
O11   Zn1   S    
C18   H3    S    
H7    O4    S    
C14   C15   A    
C8    C9    A    
H8    O5    S    
C23   O4    S    
N1    Zn1   S    
C22   O2    S    
C22   C23   S    
C17   H2    S    
N1    O3    S    
C14   C19   A    
H5    O2    S    
C23   N2    D    
C15   C16   A    
C4    C5    T    
C8    H9    S    
C26   O12   A    
