data_mof_unit_60027.cif
_audit_creation_date              2012-10-26T21:09:46-0400
_audit_creation_method            fapswitch 2.2
_symmetry_space_group_name_H-M    P1
_symmetry_Int_Tables_number       1
_space_group_crystal_system       triclinic
_cell_length_a                    16.011797
_cell_length_b                    14.769064
_cell_length_c                    19.377071
_cell_angle_alpha                 89.999701
_cell_angle_beta                  89.973888
_cell_angle_gamma                 90.000385
_cell_volume                      4582.27483131

loop_
_atom_site_label
_atom_site_type_symbol
_atom_type_description
_atom_site_fract_x
_atom_site_fract_y
_atom_site_fract_z
_atom_type_partial_charge
C1    C     C_R   0.340916 0.500000 0.500005 0.551706
C2    C     C_R   0.573730 0.048090 0.514475 0.222834
C3    C     C_R   0.500000 0.902859 0.500000 -0.069095
C4    C     C_R   0.500000 0.097141 0.500000 -0.069095
C5    C     C_1   0.500000 0.802600 0.500000 0.272992
C6    C     C_1   0.500000 0.197400 0.500000 0.272992
C7    C     C_R   0.499981 0.500000 0.367095 0.541587
C8    C     C_R   0.500019 0.500000 0.632904 0.541587
C9    C     C_R   0.499960 0.582036 0.254654 -0.107434
C10   C     C_R   0.500040 0.417964 0.745345 -0.107434
C11   C     C_R   0.500042 0.582035 0.745345 -0.107446
C12   C     C_R   0.659084 0.500000 0.499995 0.551705
C13   C     C_R   0.499958 0.417965 0.254655 -0.107446
C14   C     C_R   0.499957 0.582048 0.182750 -0.096774
C15   C     C_R   0.500043 0.417952 0.817250 -0.096774
C16   C     C_R   0.500045 0.582047 0.817249 -0.096780
C17   C     C_R   0.499955 0.417953 0.182751 -0.096780
C18   C     C_R   0.499959 0.500000 0.146066 0.033806
C19   C     C_R   0.500041 0.499999 0.853934 0.033806
C20   C     C_R   0.499963 0.500000 0.291216 0.015419
C21   C     C_R   0.500037 0.499999 0.708784 0.015420
C22   C     C_R   0.500025 0.500000 0.929997 0.353407
C23   C     C_1   0.822975 0.500001 0.500031 0.089997
C24   C     C_R   0.499975 0.500000 0.070003 0.353407
C25   C     C_R   0.956205 0.582652 0.499943 0.232723
C26   C     C_R   0.043795 0.417348 0.500057 0.232723
C27   C     C_R   0.043797 0.582652 0.499900 0.232720
C28   C     C_R   0.956203 0.417348 0.500100 0.232720
C29   C     C_R   0.912645 0.500000 0.500034 -0.042806
C30   C     C_R   0.087355 0.499999 0.499966 -0.042806
C31   C     C_1   0.177025 0.499999 0.499969 0.089997
C32   C     C_1   0.251967 0.499999 0.499985 0.075792
C33   C     C_1   0.748033 0.500001 0.500015 0.075792
C34   C     C_R   0.573730 0.951911 0.514475 0.222839
C35   C     C_R   0.426270 0.048088 0.485525 0.222839
C36   C     C_R   0.426270 0.951910 0.485525 0.222834
Cl1   Cl    Cl    0.098949 0.686422 0.499752 -0.377791
Cl2   Cl    Cl    0.901051 0.313578 0.500248 -0.377791
Cl3   Cl    Cl    0.901056 0.686424 0.499892 -0.377818
Cl4   Cl    Cl    0.098944 0.313576 0.500108 -0.377818
Cl5   Cl    Cl    0.666979 0.107364 0.532770 -0.391300
Cl6   Cl    Cl    0.333021 0.892636 0.467230 -0.391300
Cl7   Cl    Cl    0.333020 0.107362 0.467230 -0.391323
Cl8   Cl    Cl    0.666980 0.892638 0.532770 -0.391323
Cu1   Cu    Cu3+1 0.500000 0.589220 0.500000 1.096279
Cu2   Cu    Cu3+1 0.500000 0.410780 0.500000 1.096279
H1    H     H_    0.499964 0.646324 0.281546 0.158597
H2    H     H_    0.500036 0.353676 0.718454 0.158597
H3    H     H_    0.500039 0.646323 0.718453 0.158590
H4    H     H_    0.499961 0.353677 0.281547 0.158590
H5    H     H_    0.499954 0.646426 0.156017 0.159275
H6    H     H_    0.500046 0.353574 0.843983 0.159275
H7    H     H_    0.500048 0.646425 0.843982 0.159273
H8    H     H_    0.499952 0.353575 0.156018 0.159273
N1    N     N_R   0.499987 0.420935 0.034314 -0.206191
N2    N     N_R   0.500013 0.579065 0.965686 -0.206191
N3    N     N_R   0.500012 0.420934 0.965687 -0.206189
N4    N     N_R   0.499988 0.579065 0.034313 -0.206189
N5    N     N_1   0.500000 0.276710 0.500000 -0.155289
N6    N     N_1   0.500000 0.723290 0.500000 -0.155289
O1    O     O_R   0.380310 0.575320 0.500010 -0.475405
O2    O     O_R   0.619690 0.424680 0.499990 -0.475405
O3    O     O_R   0.619690 0.575320 0.499990 -0.475404
O4    O     O_R   0.380310 0.424680 0.500010 -0.475404
O5    O     O_R   0.499990 0.575370 0.400140 -0.500389
O6    O     O_R   0.500010 0.424630 0.599860 -0.500390
O7    O     O_R   0.500010 0.575370 0.599860 -0.500402
O8    O     O_R   0.499990 0.424630 0.400140 -0.500401

loop_
_geom_bond_atom_site_label_1
_geom_bond_atom_site_label_2
_ccdc_geom_bond_type
Cu1   O7    S    
C2    C4    A    
C9    C14   A    
Cu1   N6    S    
C8    O6    A    
C1    O1    A    
C11   H3    S    
C28   Cl2   S    
Cu2   N5    S    
C25   C27   A    
C12   O2    A    
C11   C16   A    
C14   C18   A    
C9    C20   A    
C26   C28   A    
C35   C36   A    
C3    C34   A    
C13   C17   A    
C2    C34   A    
C22   N3    A    
C17   C18   A    
C12   C33   S    
C4    C35   A    
C34   Cl8   S    
C31   C32   T    
C15   H6    S    
C25   Cl3   S    
C24   N1    A    
C15   C19   A    
C26   Cl4   S    
C3    C36   A    
Cu2   O2    S    
C16   C19   A    
C18   C24   S    
C23   C29   S    
C6    N5    T    
Cu1   O1    S    
C28   C29   A    
C7    C20   S    
C13   C20   A    
C27   Cl1   S    
Cu2   O6    S    
C10   C15   A    
N1    N3    A    
C10   C21   A    
C10   H2    S    
C30   C31   S    
Cu2   O8    S    
C9    H1    S    
C7    O5    A    
C2    Cl5   S    
C11   C21   A    
C13   H4    S    
C1    O4    A    
C19   C22   S    
C35   Cl7   S    
N2    N4    A    
C8    O7    A    
C24   N4    A    
C4    C6    S    
C12   O3    A    
C27   C30   A    
C16   H7    S    
C22   N2    A    
C5    N6    T    
C3    C5    S    
C7    O8    A    
Cu1   Cu2   S    
Cu1   O5    S    
C36   Cl6   S    
C17   H8    S    
Cu1   O3    S    
C1    C32   S    
C14   H5    S    
Cu2   O4    S    
C25   C29   A    
C23   C33   T    
C26   C30   A    
C8    C21   S    
