data_mof_unit_52614.cif
_audit_creation_date              2012-12-10T18:09:53-0500
_audit_creation_method            fapswitch 2.2
_symmetry_space_group_name_H-M    P1
_symmetry_Int_Tables_number       1
_space_group_crystal_system       triclinic
_cell_length_a                    10.635979
_cell_length_b                    12.598152
_cell_length_c                    13.181224
_cell_angle_alpha                 82.291774
_cell_angle_beta                  90.480268
_cell_angle_gamma                 102.354385
_cell_volume                      1709.33421189

loop_
_atom_site_label
_atom_site_type_symbol
_atom_type_description
_atom_site_fract_x
_atom_site_fract_y
_atom_site_fract_z
_atom_type_partial_charge
C1    C     C_R   0.487574 0.438765 0.691003 0.948975
C2    C     C_R   0.460841 0.462401 0.966243 -0.133897
C3    C     C_R   0.524766 0.468275 0.871234 -0.095701
C4    C     C_R   0.741871 0.500493 0.500295 0.980053
C5    C     C_R   0.514683 0.539506 0.032514 0.091673
C6    C     C_R   0.620968 0.626598 0.999104 0.073346
C7    C     C_R   0.684002 0.627935 0.906929 -0.301947
C8    C     C_R   0.641888 0.545604 0.847038 0.624187
C9    C     C_R   0.474729 0.526521 0.134471 -0.133718
C10   C     C_R   0.626339 0.691848 0.163745 -0.122675
C11   C     C_R   0.466678 0.400427 0.799750 -0.074926
C12   C     C_3   0.121340 0.500143 0.499646 -0.075135
C13   C     C_R   0.321156 0.088549 0.346932 0.556355
C14   C     C_R   0.652734 0.799735 0.629233 0.014206
C15   C     C_R   0.683968 0.904283 0.657433 -0.247683
C16   C     C_R   0.514767 0.561152 0.309080 0.897691
C17   C     C_R   0.625865 0.985697 0.608564 -0.166742
C18   C     C_R   0.536060 0.962608 0.530450 0.063184
C19   C     C_R   0.508006 0.854672 0.504432 0.242313
C20   C     C_R   0.473339 0.041759 0.477332 -0.076810
C21   C     C_R   0.384052 0.011445 0.399752 0.021563
C22   C     C_R   0.359207 0.904890 0.375572 -0.207678
C23   C     C_3   0.068661 0.489390 0.390453 0.410931
C24   C     C_R   0.420827 0.828112 0.426848 -0.239397
C25   C     C_R   0.495585 0.150607 0.497704 -0.049946
C26   C     C_R   0.347614 0.194593 0.371050 -0.052655
C27   C     C_R   0.258082 0.499726 0.500052 0.882161
C28   C     C_3   0.904263 0.404712 0.577722 -0.456284
C29   C     C_3   0.048252 0.403769 0.577194 -0.385178
C30   C     C_3   0.923488 0.489022 0.390382 1.047478
C31   C     C_3   0.956688 0.610176 0.531668 -0.456917
C32   C     C_3   0.878725 0.501238 0.499725 -0.105278
C33   C     C_3   0.099339 0.609684 0.531369 -0.503250
C34   C     C_R   0.670655 0.705673 0.062853 -0.127106
C35   C     C_R   0.533771 0.598259 0.200469 -0.097757
C36   C     C_R   0.362570 0.313173 0.828911 -0.331685
C37   C     C_R   0.302322 0.303850 0.923249 -0.163170
C38   C     C_R   0.344565 0.381387 0.988784 0.659812
F1    F     F_    0.900963 0.575241 0.320437 -0.699942
F2    F     F_    0.263022 0.380803 0.067407 -0.654266
F3    F     F_    0.717819 0.540447 0.766210 -0.710205
F4    F     F_    0.235511 0.061760 0.272628 -0.641068
F5    F     F_    0.855118 0.392025 0.360017 -0.589238
F6    F     F_    0.089579 0.394371 0.357375 -0.596487
H1    H     H_    0.848661 0.324809 0.558404 0.221978
H2    H     H_    0.300561 0.255606 0.331037 0.212785
H3    H     H_    0.292026 0.880357 0.316419 0.212232
H4    H     H_    0.653313 0.065299 0.633487 0.139542
H5    H     H_    0.752875 0.922164 0.717028 0.157289
H6    H     H_    0.398423 0.748364 0.403785 0.211247
H7    H     H_    0.086699 0.411062 0.655382 0.181058
H8    H     H_    0.940107 0.681804 0.477993 0.232387
H9    H     H_    0.925879 0.620359 0.609717 0.248702
H10   H     H_    0.137581 0.620404 0.609146 0.234710
H11   H     H_    0.120943 0.560016 0.335965 0.073071
H12   H     H_    0.150668 0.680861 0.476956 0.202655
H13   H     H_    0.561672 0.181474 0.554501 0.143123
H14   H     H_    0.697671 0.736159 0.666708 0.178622
H15   H     H_    0.061492 0.323928 0.556662 0.232797
H16   H     H_    0.672691 0.748047 0.214958 0.175356
H17   H     H_    0.770671 0.689254 0.883944 0.166726
H18   H     H_    0.749765 0.773584 0.036985 0.149783
H19   H     H_    0.408722 0.453668 0.168122 0.227103
H20   H     H_    0.318436 0.259777 0.774569 0.186382
H21   H     H_    0.215127 0.241835 0.941806 0.190829
H22   H     H_    0.872687 0.413120 0.656035 0.225278
N1    N     N_R   0.433240 0.222190 0.444680 -0.147071
N2    N     N_R   0.566070 0.776970 0.554790 -0.134355
O1    O     O_R   0.468120 0.366740 0.627160 -0.643438
O2    O     O_R   0.510770 0.544830 0.662520 -0.591695
O3    O     O_R   0.663880 0.410950 0.482330 -0.584081
O4    O     O_R   0.706530 0.589040 0.517700 -0.607166
O5    O     O_R   0.489230 0.455170 0.337480 -0.593106
O6    O     O_R   0.531880 0.633260 0.372840 -0.644827
O7    O     O_R   0.293470 0.410960 0.482300 -0.574021
O8    O     O_R   0.336120 0.589050 0.517670 -0.661865
Zn1   Zn    Zn3+2 0.471520 0.381090 0.476390 1.003286
Zn2   Zn    Zn3+2 0.528480 0.618910 0.523610 0.957496

loop_
_geom_bond_atom_site_label_1
_geom_bond_atom_site_label_2
_ccdc_geom_bond_type
C30   C32   S    
C12   C29   S    
O2    Zn2   S    
O1    Zn1   S    
N1    Zn1   S    
C17   H4    S    
C4    O4    A    
C31   H8    S    
C7    C8    A    
C12   C23   S    
C16   O6    A    
C26   N1    A    
C36   C37   A    
O8    Zn2   S    
C16   C35   S    
C5    C6    A    
C20   C25   A    
C34   H18   S    
C18   C19   A    
C7    H17   S    
O4    Zn2   S    
C29   H15   S    
C37   H21   S    
C31   C33   S    
C10   C35   A    
C33   H12   S    
C22   H3    S    
C21   C22   A    
C24   H6    S    
C25   H13   S    
C27   O7    A    
C13   F4    S    
N2    Zn2   S    
C14   H14   S    
C28   H1    S    
C12   C27   S    
C16   O5    A    
C23   C30   S    
C28   C32   S    
C8    F3    S    
C3    C8    A    
C1    O1    A    
C23   F6    S    
C6    C34   A    
C25   N1    A    
C11   C36   A    
C28   H22   S    
C5    C9    A    
C37   C38   A    
C2    C38   A    
C31   C32   S    
C17   C18   A    
C13   C21   A    
C19   N2    A    
C10   C34   A    
C31   H9    S    
O7    Zn1   S    
C4    C32   S    
C22   C24   A    
C30   F5    S    
C2    C5    A    
C27   O8    A    
O3    Zn1   S    
C29   H7    S    
C33   H10   S    
C15   C17   A    
C10   H16   S    
C28   C29   S    
C14   N2    A    
C9    H19   S    
C23   H11   S    
C6    C7    A    
C1    O2    A    
C2    C3    A    
C38   F2    S    
C30   F1    S    
C19   C24   A    
C18   C20   A    
C15   H5    S    
C13   C26   A    
C3    C11   A    
C26   H2    S    
C20   C21   A    
O6    Zn2   S    
C9    C35   A    
O5    Zn1   S    
C14   C15   A    
C1    C11   S    
C12   C33   S    
C36   H20   S    
C4    O3    A    
