data_mof_unit_22260.cif
_audit_creation_date              2012-12-10T19:56:27-0500
_audit_creation_method            fapswitch 2.2
_symmetry_space_group_name_H-M    P1
_symmetry_Int_Tables_number       1
_space_group_crystal_system       triclinic
_cell_length_a                    15.043682
_cell_length_b                    14.113368
_cell_length_c                    23.445024
_cell_angle_alpha                 89.766662
_cell_angle_beta                  89.147311
_cell_angle_gamma                 90.022602
_cell_volume                      4977.18461186

loop_
_atom_site_label
_atom_site_type_symbol
_atom_type_description
_atom_site_fract_x
_atom_site_fract_y
_atom_site_fract_z
_atom_type_partial_charge
C1    C     C_R   0.327300 0.500317 0.500926 0.991307
C2    C     C_R   0.523946 0.422720 0.706312 0.465612
C3    C     C_R   0.461495 0.434876 0.235907 -0.307066
C4    C     C_R   0.527540 0.432391 0.765636 -0.325873
C5    C     C_R   0.498371 0.514165 0.208724 0.108364
C6    C     C_R   0.502754 0.517324 0.791706 0.109754
C7    C     C_R   0.096337 0.577050 0.468117 0.381594
C8    C     C_R   0.905331 0.434900 0.453443 0.336021
C9    C     C_R   0.907563 0.574556 0.515879 0.379514
C10   C     C_R   0.089076 0.423492 0.517854 0.356830
C11   C     C_R   0.187223 0.580507 0.476019 0.294035
C12   C     C_R   0.672432 0.500461 0.497952 1.009608
C13   C     C_R   0.812202 0.434538 0.457409 0.344526
C14   C     C_R   0.815780 0.578342 0.515495 0.277527
C15   C     C_R   0.181353 0.426360 0.524436 0.335791
C16   C     C_R   0.230691 0.502225 0.500593 -0.422829
C17   C     C_R   0.768349 0.503168 0.491211 -0.420008
C18   C     C_R   0.047441 0.499559 0.489487 -0.182430
C19   C     C_R   0.952029 0.503204 0.485146 -0.189766
C20   C     C_R   0.498580 0.500239 0.389279 0.931220
C21   C     C_R   0.501019 0.500063 0.610848 0.921253
C22   C     C_R   0.559494 0.104646 0.464862 0.431009
C23   C     C_R   0.534247 0.588097 0.240303 0.699977
C24   C     C_R   0.537461 0.895734 0.544640 0.424775
C25   C     C_R   0.439582 0.103902 0.534011 0.427635
C26   C     C_R   0.462723 0.895780 0.454550 0.431231
C27   C     C_R   0.558847 0.204324 0.466056 0.481635
C28   C     C_R   0.537203 0.796029 0.543964 0.481768
C29   C     C_R   0.440773 0.203634 0.533568 0.515325
C30   C     C_R   0.462902 0.796058 0.455757 0.488782
C31   C     C_R   0.499648 0.053043 0.499442 -0.114141
C32   C     C_R   0.499914 0.946946 0.499538 -0.130010
C33   C     C_R   0.581686 0.518336 0.879901 0.587066
C34   C     C_R   0.477387 0.595138 0.758961 0.701917
C35   C     C_R   0.421463 0.534036 0.120689 0.593200
C36   C     C_R   0.423400 0.531384 0.880832 0.620872
C37   C     C_R   0.578286 0.507721 0.119703 0.619337
C38   C     C_R   0.421033 0.535730 0.940615 -0.166167
C39   C     C_R   0.581704 0.512546 0.059943 -0.160618
C40   C     C_R   0.501805 0.525620 0.970231 -0.136856
C41   C     C_R   0.501099 0.524469 0.030341 -0.136653
C42   C     C_R   0.583183 0.515822 0.939716 -0.164128
C43   C     C_R   0.419710 0.534478 0.060864 -0.164222
C44   C     C_R   0.340421 0.548625 0.971328 0.365168
C45   C     C_R   0.533783 0.582435 0.299263 -0.333057
C46   C     C_R   0.662930 0.504845 0.029266 0.362538
C47   C     C_R   0.339274 0.544173 0.031020 0.371354
C48   C     C_R   0.663227 0.502715 0.969552 0.373255
C49   C     C_3   0.242298 0.658264 0.939209 0.158794
C50   C     C_3   0.154927 0.671390 0.907763 -0.308417
C51   C     C_3   0.131088 0.775999 0.901795 -0.955322
C52   C     C_3   0.785183 0.580737 0.062269 0.167569
C53   C     C_3   0.870505 0.567102 0.095869 -0.323422
C54   C     C_3   0.920339 0.660401 0.102911 -0.971151
C55   C     C_3   0.216078 0.466733 0.064169 0.153581
C56   C     C_R   0.476725 0.587880 0.700122 -0.338985
C57   C     C_3   0.129377 0.479095 0.098093 -0.308624
C58   C     C_3   0.080169 0.385224 0.105649 -0.986761
C59   C     C_3   0.762368 0.393961 0.936106 0.146643
C60   C     C_3   0.849272 0.381673 0.902416 -0.301170
C61   C     C_3   0.873123 0.277239 0.895482 -0.970585
C62   C     C_3   0.479249 0.274263 0.326834 0.177311
C63   C     C_3   0.465231 0.201745 0.279425 -0.472963
C64   C     C_3   0.517116 0.110886 0.290921 -0.753712
C65   C     C_3   0.495106 0.264502 0.695066 0.072208
C66   C     C_3   0.537914 0.170920 0.677176 -0.294564
C67   C     C_R   0.498537 0.502260 0.327137 -0.231484
C68   C     C_3   0.479122 0.086946 0.694171 -0.793400
C69   C     C_3   0.040532 0.635860 0.384905 0.128023
C70   C     C_3   0.027768 0.729021 0.352554 -0.326431
C71   C     C_3   0.948443 0.785270 0.375635 -0.797514
C72   C     C_3   0.996961 0.389560 0.378537 0.081350
C73   C     C_3   0.024384 0.303131 0.343381 -0.297500
C74   C     C_3   0.075479 0.332308 0.289339 -0.948518
C75   C     C_3   0.970793 0.612452 0.601123 0.133611
C76   C     C_3   0.975305 0.697046 0.641524 -0.321459
C77   C     C_3   0.048814 0.766577 0.624349 -0.813577
C78   C     C_R   0.500542 0.502446 0.673210 -0.228521
C79   C     C_3   0.982216 0.354303 0.577671 0.119976
C80   C     C_3   0.974505 0.262903 0.612581 -0.314425
C81   C     C_3   0.907735 0.273475 0.661811 -0.941395
C82   C     C_3   0.226811 0.733594 0.495648 0.186942
C83   C     C_3   0.217292 0.827725 0.463888 -0.352013
C84   C     C_3   0.224208 0.911544 0.504479 -0.841082
C85   C     C_3   0.765768 0.374897 0.370036 0.218825
C86   C     C_3   0.747400 0.475717 0.347444 -0.547025
C87   C     C_3   0.739933 0.476179 0.282612 -0.834207
C88   C     C_3   0.774673 0.733884 0.507399 0.196527
C89   C     C_R   0.462843 0.427090 0.295141 0.460754
C90   C     C_3   0.785335 0.822682 0.543749 -0.352243
C91   C     C_3   0.777641 0.912548 0.507711 -0.833392
C92   C     C_3   0.210694 0.358413 0.611644 0.218691
C93   C     C_3   0.278048 0.424602 0.639200 -0.436871
C94   C     C_3   0.266933 0.425068 0.704027 -0.921612
F1    F     F_    0.616508 0.252890 0.432328 -0.608096
F2    F     F_    0.425283 0.942084 0.410112 -0.620293
F3    F     F_    0.575296 0.748040 0.587342 -0.590853
F4    F     F_    0.382725 0.251452 0.567220 -0.613940
F5    F     F_    0.424954 0.748078 0.412535 -0.578851
F6    F     F_    0.569159 0.665531 0.213763 -0.648872
F7    F     F_    0.454461 0.678173 0.784189 -0.642819
F8    F     F_    0.618488 0.058904 0.430361 -0.619301
F9    F     F_    0.576086 0.941993 0.588410 -0.632351
F10   F     F_    0.379607 0.057352 0.567596 -0.635372
H1    H     H_    0.562041 0.640413 0.323137 0.220123
H2    H     H_    0.067449 0.782973 0.878759 0.272455
H3    H     H_    0.198878 0.448613 0.716321 0.269355
H4    H     H_    0.315498 0.474685 0.722826 0.285450
H5    H     H_    0.278930 0.353118 0.721682 0.259255
H6    H     H_    0.183795 0.814169 0.877232 0.277648
H7    H     H_    0.741679 0.632117 0.085521 0.159615
H8    H     H_    0.802814 0.610174 0.019408 0.155245
H9    H     H_    0.853851 0.537570 0.138754 0.250844
H10   H     H_    0.914259 0.515804 0.073107 0.225891
H11   H     H_    0.940327 0.689575 0.060547 0.269043
H12   H     H_    0.981102 0.648132 0.128215 0.269109
H13   H     H_    0.877820 0.712739 0.125713 0.280098
H14   H     H_    0.258698 0.414492 0.086818 0.135293
H15   H     H_    0.457168 0.649488 0.675629 0.234390
H16   H     H_    0.200125 0.438852 0.021125 0.153669
H17   H     H_    0.144112 0.508550 0.140835 0.254418
H18   H     H_    0.085991 0.530016 0.075334 0.224574
H19   H     H_    0.062668 0.355611 0.063446 0.269821
H20   H     H_    0.017977 0.396897 0.130748 0.269419
H21   H     H_    0.122051 0.333527 0.128912 0.275289
H22   H     H_    0.708283 0.356622 0.913157 0.133258
H23   H     H_    0.770182 0.361222 0.979062 0.156509
H24   H     H_    0.842618 0.414474 0.859497 0.252068
H25   H     H_    0.903837 0.418291 0.925010 0.222480
H26   H     H_    0.431156 0.379797 0.210766 0.171656
H27   H     H_    0.881668 0.243355 0.937897 0.268174
H28   H     H_    0.936460 0.270893 0.870868 0.272382
H29   H     H_    0.820148 0.239591 0.872057 0.271281
H30   H     H_    0.463357 0.239377 0.368233 0.187289
H31   H     H_    0.550747 0.295512 0.328207 0.147075
H32   H     H_    0.393338 0.184481 0.276580 0.256155
H33   H     H_    0.488181 0.231699 0.237919 0.215372
H34   H     H_    0.589318 0.126469 0.293689 0.268944
H35   H     H_    0.506694 0.060035 0.255632 0.264335
H36   H     H_    0.493842 0.077578 0.331474 0.314775
H37   H     H_    0.550109 0.374065 0.791848 0.170350
H38   H     H_    0.431252 0.273417 0.672425 0.196119
H39   H     H_    0.480564 0.260112 0.741693 0.117806
H40   H     H_    0.549509 0.170688 0.630297 0.234816
H41   H     H_    0.603289 0.163423 0.698212 0.227470
H42   H     H_    0.470528 0.083744 0.741279 0.233764
H43   H     H_    0.510610 0.020026 0.679698 0.323734
H44   H     H_    0.412798 0.093439 0.674403 0.301949
H45   H     H_    0.979397 0.592747 0.380348 0.099817
H46   H     H_    0.097657 0.598027 0.364309 0.106644
H47   H     H_    0.088989 0.772649 0.355380 0.227093
H48   H     H_    0.296222 0.695478 0.914835 0.162670
H49   H     H_    0.016784 0.713116 0.306798 0.177705
H50   H     H_    0.886667 0.742440 0.373057 0.234372
H51   H     H_    0.940025 0.850675 0.349812 0.245272
H52   H     H_    0.959466 0.806033 0.420627 0.281691
H53   H     H_    0.058740 0.426553 0.390724 0.140686
H54   H     H_    0.956649 0.437349 0.351231 0.094815
H55   H     H_    0.067127 0.256258 0.369542 0.249960
H56   H     H_    0.964389 0.262427 0.331237 0.219459
H57   H     H_    0.033324 0.377733 0.261949 0.259991
H58   H     H_    0.094779 0.268132 0.264886 0.273247
H59   H     H_    0.235312 0.690573 0.982338 0.155470
H60   H     H_    0.136743 0.371714 0.300447 0.280252
H61   H     H_    0.035771 0.575054 0.601579 0.100255
H62   H     H_    0.918361 0.563752 0.618514 0.094481
H63   H     H_    0.910291 0.734281 0.642322 0.229939
H64   H     H_    0.988078 0.670710 0.685391 0.176083
H65   H     H_    0.114480 0.730670 0.624870 0.235597
H66   H     H_    0.049926 0.826121 0.655128 0.243931
H67   H     H_    0.036815 0.795996 0.581131 0.282483
H68   H     H_    0.915598 0.369774 0.560382 0.159431
H69   H     H_    0.000992 0.412923 0.606634 0.063449
H70   H     H_    0.160906 0.639532 0.864583 0.252698
H71   H     H_    0.952690 0.204308 0.584487 0.247988
H72   H     H_    0.040444 0.243992 0.630036 0.213032
H73   H     H_    0.929150 0.330513 0.691103 0.260972
H74   H     H_    0.903452 0.205952 0.686167 0.271519
H75   H     H_    0.840792 0.290683 0.645276 0.280125
H76   H     H_    0.288358 0.735247 0.521241 0.143361
H77   H     H_    0.169270 0.726889 0.526001 0.122124
H78   H     H_    0.269890 0.833961 0.430378 0.296338
H79   H     H_    0.151665 0.830048 0.442900 0.238350
H80   H     H_    0.170101 0.908525 0.537199 0.254712
H81   H     H_    0.100668 0.634325 0.931618 0.222204
H82   H     H_    0.218290 0.978813 0.480111 0.294239
H83   H     H_    0.289453 0.910723 0.525996 0.289402
H84   H     H_    0.713887 0.327366 0.352892 0.196476
H85   H     H_    0.829059 0.347137 0.352579 0.140321
H86   H     H_    0.684771 0.502875 0.366804 0.226461
H87   H     H_    0.802325 0.524302 0.359063 0.203003
H88   H     H_    0.802216 0.449009 0.262576 0.256415
H89   H     H_    0.728841 0.549721 0.267327 0.292987
H90   H     H_    0.683173 0.431413 0.269333 0.266780
H91   H     H_    0.710845 0.738153 0.484295 0.146290
H92   H     H_    0.123108 0.808879 0.944536 0.266319
H93   H     H_    0.829501 0.733810 0.474782 0.118678
H94   H     H_    0.733701 0.823751 0.578063 0.297351
H95   H     H_    0.851615 0.821665 0.563918 0.233187
H96   H     H_    0.831271 0.914764 0.474646 0.255235
H97   H     H_    0.783948 0.975717 0.535436 0.286354
H98   H     H_    0.712123 0.915197 0.486581 0.288338
H99   H     H_    0.219307 0.286087 0.629605 0.190507
H100  H     H_    0.142893 0.381458 0.624152 0.081798
H101  H     H_    0.345801 0.400160 0.628123 0.271568
H102  H     H_    0.269436 0.497971 0.622860 0.190248
N1    N     N_R   0.502718 0.523701 0.852335 -0.332012
N2    N     N_R   0.499428 0.519262 0.148127 -0.332145
N3    N     N_R   0.500000 0.252470 0.500000 -0.252307
N4    N     N_R   0.500000 0.747530 0.500000 -0.266141
O1    O     O_R   0.369060 0.579480 0.500000 -0.594929
O2    O     O_2   0.346451 0.548556 0.151713 -0.511448
O3    O     O_2   0.347365 0.533018 0.850993 -0.520025
O4    O     O_2   0.652519 0.490560 0.149662 -0.534586
O5    O     O_3   0.260735 0.560400 0.943438 -0.603966
O6    O     O_3   0.742475 0.492123 0.057187 -0.604509
O7    O     O_3   0.258999 0.555563 0.059785 -0.596237
O8    O     O_3   0.743545 0.491706 0.940786 -0.596823
O9    O     O_3   0.419976 0.351573 0.321404 -0.627011
O10   O     O_3   0.553263 0.339965 0.680583 -0.610090
O11   O     O_3   0.055079 0.654369 0.443216 -0.570118
O12   O     O_R   0.630940 0.420520 0.500000 -0.538529
O13   O     O_3   0.948470 0.359013 0.427477 -0.562191
O14   O     O_3   0.953406 0.644058 0.545016 -0.570741
O15   O     O_3   0.044168 0.340319 0.532348 -0.559802
O16   O     O_3   0.233664 0.658706 0.455618 -0.554031
O17   O     O_3   0.762226 0.365791 0.430415 -0.525464
O18   O     O_3   0.773115 0.652460 0.543183 -0.564334
O19   O     O_3   0.224397 0.352527 0.551734 -0.526472
O20   O     O_R   0.630940 0.579480 0.500000 -0.599438
O21   O     O_R   0.369060 0.420520 0.500000 -0.538746
O22   O     O_R   0.499970 0.579500 0.416160 -0.568461
O23   O     O_R   0.500030 0.420500 0.583840 -0.576720
O24   O     O_R   0.500030 0.579500 0.583840 -0.571793
O25   O     O_R   0.499970 0.420500 0.416160 -0.591210
O26   O     O_2   0.658077 0.515686 0.849025 -0.511400
Zn1   Zn    Zn3+2 0.500000 0.606140 0.500000 1.044397
Zn2   Zn    Zn3+2 0.500000 0.393860 0.500000 1.080650

loop_
_geom_bond_atom_site_label_1
_geom_bond_atom_site_label_2
_ccdc_geom_bond_type
C28   F3    S    
C25   C31   A    
C66   C68   S    
C75   C76   S    
C34   C56   A    
C93   C94   S    
C23   C45   A    
C1    O1    A    
C44   O5    S    
C63   H33   S    
C73   C74   S    
C79   H69   S    
C20   C67   S    
C27   F1    S    
C5    C23   A    
C88   H91   S    
C52   O6    S    
O23   Zn2   S    
C93   H101  S    
C57   C58   S    
C56   C78   A    
C39   C41   A    
C48   O8    S    
C53   C54   S    
C53   H10   S    
C59   H22   S    
C26   C32   A    
C47   O7    S    
C73   H56   S    
C94   H4    S    
C58   H19   S    
C8    C13   A    
C29   F4    S    
O21   Zn2   S    
C20   O22   A    
C33   C42   A    
C81   H74   S    
C10   C15   A    
C13   O17   S    
C65   H39   S    
C66   H40   S    
C52   H8    S    
C85   H85   S    
C15   C16   A    
C3    H26   S    
C86   H87   S    
C27   N3    A    
C72   H54   S    
C76   H63   S    
C18   C19   S    
C66   H41   S    
C80   H71   S    
C61   H28   S    
C57   H18   S    
C84   H82   S    
C9    C19   A    
C21   O23   A    
C21   O24   A    
C53   H9    S    
C77   H66   S    
C54   H12   S    
C21   C78   S    
C45   C67   A    
C10   O15   S    
O1    Zn1   S    
C70   C71   S    
C85   O17   S    
C35   C43   A    
C68   H44   S    
C44   C47   A    
C14   O18   S    
C20   O25   A    
C85   H84   S    
C40   C42   A    
C23   F6    S    
C59   C60   S    
C15   O19   S    
C33   O26   S    
C41   C43   A    
C14   C17   A    
C64   H35   S    
C93   H102  S    
C45   H1    S    
C7    C11   A    
C55   H16   S    
C25   C29   A    
C46   C48   A    
C94   H3    S    
C86   H86   S    
C34   F7    S    
C22   C31   A    
C63   C64   S    
C61   H29   S    
C8    C19   A    
N4    Zn1   S    
C84   H80   S    
C51   H2    S    
C76   C77   S    
C81   H75   S    
C4    C6    A    
C4    H37   S    
C74   H58   S    
C79   H68   S    
C86   C87   S    
C72   C73   S    
C64   H34   S    
C90   H95   S    
C52   H7    S    
C85   C86   S    
C71   H50   S    
C30   F5    S    
O12   Zn2   S    
C72   H53   S    
C6    C34   A    
C83   H78   S    
C60   C61   S    
C36   N1    A    
C62   H31   S    
C12   C17   S    
C87   H89   S    
C2    C4    A    
C9    C14   A    
C24   C32   A    
C38   C44   A    
C62   C63   S    
C2    C78   A    
C36   O3    S    
C89   O9    S    
C82   O16   S    
C11   C16   A    
C1    O21   A    
C83   C84   S    
C82   H77   S    
C60   H24   S    
C77   H67   S    
C7    C18   A    
C71   H51   S    
C54   H11   S    
C50   C51   S    
C12   O12   A    
C83   H79   S    
C75   H61   S    
C1    C16   S    
C42   C48   A    
N3    Zn2   S    
C29   N3    A    
C8    O13   S    
C80   H72   S    
C6    N1    S    
C91   H97   S    
C68   H43   S    
C39   C46   A    
C91   H96   S    
C40   C41   A    
C55   O7    S    
C88   C90   S    
C75   O14   S    
C26   C30   A    
C51   H6    S    
C46   O6    S    
C22   C27   A    
C55   C57   S    
O22   Zn1   S    
O25   Zn2   S    
C56   H15   S    
C69   H46   S    
C2    O10   S    
C37   O4    S    
C68   H42   S    
C52   C53   S    
C64   H36   S    
C49   O5    S    
C33   N1    A    
C51   H92   S    
C49   H48   S    
C50   H70   S    
C31   C32   S    
C70   H47   S    
C24   C28   A    
C87   H90   S    
C80   C81   S    
C3    C5    A    
C59   O8    S    
C92   H100  S    
C60   H25   S    
C30   N4    A    
C74   H57   S    
C84   H83   S    
C25   F10   S    
C12   O20   A    
C90   H94   S    
C70   H49   S    
C88   H93   S    
C73   H55   S    
C94   H5    S    
C58   H20   S    
C22   F8    S    
C35   O2    S    
C13   C17   A    
C3    C89   A    
C24   F9    S    
C69   H45   S    
C63   H32   S    
C26   F2    S    
C36   C38   A    
C28   N4    A    
C81   H73   S    
C37   C39   A    
C62   O9    S    
C5    N2    S    
C38   C40   A    
C65   H38   S    
C72   O13   S    
C9    O14   S    
C62   H30   S    
C90   C91   S    
C88   O18   S    
C43   C47   A    
C92   O19   S    
C10   C18   A    
C11   O16   S    
C7    O11   S    
C71   H52   S    
C92   C93   S    
C37   N2    A    
C65   O10   S    
C79   O15   S    
C76   H64   S    
C75   H62   S    
C69   O11   S    
C65   C66   S    
C69   C70   S    
C49   H59   S    
C91   H98   S    
C61   H27   S    
C57   H17   S    
C79   C80   S    
C35   N2    A    
C58   H21   S    
C77   H65   S    
C49   C50   S    
C54   H13   S    
C82   H76   S    
C67   C89   A    
C87   H88   S    
O20   Zn1   S    
C92   H99   S    
C82   C83   S    
C50   H81   S    
C59   H23   S    
O24   Zn1   S    
C74   H60   S    
C55   H14   S    
