data_mof_unit_24799.cif
_audit_creation_date              2012-12-10T19:31:22-0500
_audit_creation_method            fapswitch 2.2
_symmetry_space_group_name_H-M    P1
_symmetry_Int_Tables_number       1
_space_group_crystal_system       triclinic
_cell_length_a                    18.910591
_cell_length_b                    15.746253
_cell_length_c                    14.924298
_cell_angle_alpha                 90.214746
_cell_angle_beta                  90.64342
_cell_angle_gamma                 90.209846
_cell_volume                      4443.68047717

loop_
_atom_site_label
_atom_site_type_symbol
_atom_type_description
_atom_site_fract_x
_atom_site_fract_y
_atom_site_fract_z
_atom_type_partial_charge
C1    C     C_R   0.499917 0.337573 0.499850 0.893254
C2    C     C_R   0.500027 0.662445 0.500152 0.900970
C3    C     C_3   0.552010 0.973361 0.551537 0.442460
C4    C     C_3   0.445751 0.026784 0.448549 0.455982
C5    C     C_3   0.559415 0.028424 0.467839 0.374379
C6    C     C_3   0.438302 0.971616 0.532121 0.380157
C7    C     C_1   0.499158 0.248949 0.499647 -0.174957
C8    C     C_1   0.499964 0.751099 0.500360 -0.170297
C9    C     C_3   0.490169 0.028336 0.586266 -0.466871
C10   C     C_3   0.507481 0.971746 0.413761 -0.458129
C11   C     C_3   0.498110 0.083318 0.500866 -0.019501
C12   C     C_3   0.499641 0.916773 0.499178 -0.017762
C13   C     C_1   0.498487 0.173871 0.499975 0.087043
C14   C     C_1   0.499860 0.826194 0.500046 0.090275
C15   C     C_3   0.508373 0.419347 0.969753 -0.317936
C16   C     C_3   0.491842 0.580553 0.030272 -0.310725
C17   C     C_3   0.560424 0.469699 0.030571 0.596375
C18   C     C_3   0.439801 0.530174 0.969551 0.610042
C19   C     C_3   0.446271 0.450512 0.029070 -0.308029
C20   C     C_3   0.553940 0.549435 0.970952 -0.305352
C21   C     C_3   0.499473 0.500247 0.089560 -0.004147
C22   C     C_3   0.500685 0.499674 0.910454 -0.008840
C23   C     C_R   0.364358 0.502094 0.499334 0.915366
C24   C     C_R   0.635621 0.501271 0.500662 0.907862
C25   C     C_1   0.499823 0.500080 0.189748 0.112467
C26   C     C_1   0.500245 0.499879 0.810255 0.116015
C27   C     C_R   0.253477 0.532921 0.578753 -0.254192
C28   C     C_R   0.745117 0.544831 0.424917 -0.253214
C29   C     C_R   0.184017 0.560400 0.579315 -0.230070
C30   C     C_R   0.814810 0.572002 0.427864 -0.236971
C31   C     C_R   0.148354 0.579233 0.498856 -0.080623
C32   C     C_R   0.852491 0.575140 0.509412 -0.083358
C33   C     C_R   0.184616 0.572732 0.416855 0.405020
C34   C     C_R   0.818182 0.552233 0.589609 0.417245
C35   C     C_R   0.252662 0.537312 0.415958 0.348677
C36   C     C_R   0.749919 0.517012 0.584979 0.345049
C37   C     C_R   0.288510 0.521119 0.497625 -0.205556
C38   C     C_R   0.711852 0.517810 0.503039 -0.213811
C39   C     C_R   0.928855 0.593420 0.507377 0.320587
C40   C     C_R   0.071920 0.596060 0.501476 0.319211
H1    H     H_    0.279772 0.520973 0.642300 0.199489
H2    H     H_    0.717017 0.546094 0.361284 0.197144
H3    H     H_    0.598538 0.589167 0.947275 0.154997
H4    H     H_    0.401668 0.410764 0.052263 0.154603
H5    H     H_    0.158076 0.565853 0.643380 0.187269
H6    H     H_    0.839198 0.590504 0.365564 0.185463
H7    H     H_    0.515309 0.947016 0.344884 0.176699
H8    H     H_    0.482170 0.052704 0.655283 0.177109
H9    H     H_    0.515825 0.353450 0.945036 0.151973
H10   H     H_    0.483742 0.646406 0.054791 0.155218
N1    N     N_R   0.032739 0.596976 0.424941 -0.114970
N2    N     N_R   0.967999 0.596131 0.583899 -0.122398
N3    N     N_R   0.962653 0.595943 0.427794 -0.188846
N4    N     N_R   0.038096 0.597589 0.581075 -0.190413
N5    N     N_1   0.500020 0.500000 0.268010 -0.094110
N6    N     N_1   0.499980 0.500000 0.731990 -0.093043
O1    O     O_R   0.500000 0.376780 0.574460 -0.622849
O2    O     O_R   0.500000 0.623220 0.425540 -0.615389
O3    O     O_R   0.500010 0.376780 0.425520 -0.605342
O4    O     O_R   0.499990 0.623220 0.574480 -0.597005
O5    O     O_R   0.398130 0.499990 0.574490 -0.618402
O6    O     O_R   0.601870 0.500010 0.425510 -0.616484
O7    O     O_R   0.398140 0.499990 0.425550 -0.570395
O8    O     O_R   0.601860 0.500010 0.574450 -0.571929
Zn1   Zn    Zn3+2 0.499990 0.500000 0.599450 0.993308
Zn2   Zn    Zn3+2 0.500010 0.500000 0.400550 0.992109
O9    O     O_3   0.151998 0.595324 0.336826 -0.637185
C41   C     C_3   0.181411 0.672260 0.304855 0.106642
H11   H     H_    0.171151 0.674824 0.231499 0.168230
H12   H     H_    0.239957 0.676021 0.313852 0.157969
C42   C     C_3   0.146171 0.749391 0.348479 -0.363097
H13   H     H_    0.088319 0.747349 0.334651 0.243291
H14   H     H_    0.154833 0.747875 0.422193 0.220472
C43   C     C_3   0.176487 0.832316 0.312543 -0.969953
H15   H     H_    0.233995 0.836572 0.328018 0.266998
H16   H     H_    0.149633 0.886936 0.344648 0.272429
H17   H     H_    0.168083 0.836176 0.238890 0.266147
O10   O     O_3   0.853407 0.556725 0.671500 -0.628949
C44   C     C_3   0.824738 0.622740 0.724735 0.125305
H18   H     H_    0.835809 0.607106 0.796037 0.164454
H19   H     H_    0.766161 0.628379 0.718265 0.160703
C45   C     C_3   0.859759 0.708276 0.703753 -0.378044
H20   H     H_    0.917672 0.703828 0.716151 0.248266
H21   H     H_    0.850590 0.724443 0.632167 0.218404
C46   C     C_3   0.829859 0.779270 0.761825 -0.961974
H22   H     H_    0.772028 0.785403 0.749918 0.265254
H23   H     H_    0.855699 0.840418 0.744613 0.272388
H24   H     H_    0.839910 0.765912 0.833868 0.267960
O11   O     O_3   0.285302 0.522740 0.334858 -0.636654
C47   C     C_3   0.262834 0.443034 0.300996 0.113404
H25   H     H_    0.210361 0.450083 0.267403 0.177591
H26   H     H_    0.258690 0.394000 0.354668 0.119453
C48   C     C_3   0.316616 0.411521 0.232945 -0.322488
H27   H     H_    0.325450 0.461033 0.181479 0.219011
H28   H     H_    0.367821 0.399317 0.267733 0.241753
C49   C     C_3   0.291433 0.329893 0.187111 -0.981807
H29   H     H_    0.282117 0.279529 0.237599 0.275493
H30   H     H_    0.332346 0.307301 0.140005 0.264189
H31   H     H_    0.241749 0.341557 0.148759 0.269544
O12   O     O_3   0.719425 0.486779 0.662497 -0.637221
C50   C     C_3   0.727259 0.397656 0.665024 0.130469
H32   H     H_    0.783876 0.381241 0.676605 0.156697
H33   H     H_    0.708301 0.367102 0.601535 0.120191
C51   C     C_3   0.683359 0.362642 0.741911 -0.317128
H34   H     H_    0.701582 0.392251 0.805713 0.214979
H35   H     H_    0.626846 0.379310 0.731037 0.236103
C52   C     C_3   0.689945 0.266330 0.749003 -1.005888
H36   H     H_    0.670235 0.235280 0.686534 0.272478
H37   H     H_    0.657967 0.243283 0.805992 0.263270
H38   H     H_    0.745976 0.248229 0.760877 0.272562
O13   O     O_3   0.622807 0.061570 0.435415 -0.760093
H39   H     H_    0.652144 0.011442 0.420915 0.341485
O14   O     O_3   0.374685 0.938450 0.563819 -0.753435
H40   H     H_    0.345344 0.988565 0.578348 0.340949
O15   O     O_3   0.608336 0.938698 0.602070 -0.633775
C53   C     C_3   0.642517 0.003869 0.651311 0.096602
H41   H     H_    0.606105 0.031033 0.701945 0.141894
H42   H     H_    0.661147 0.055332 0.606235 0.173222
C54   C     C_3   0.706524 0.966635 0.700359 -0.323758
H43   H     H_    0.688531 0.916335 0.747023 0.230012
H44   H     H_    0.742742 0.937430 0.650917 0.233531
C55   C     C_3   0.746706 0.034692 0.753496 -0.970067
H45   H     H_    0.766770 0.084570 0.707778 0.270456
H46   H     H_    0.792427 0.005406 0.788842 0.270884
H47   H     H_    0.711703 0.064285 0.803999 0.270524
O16   O     O_3   0.389118 0.061305 0.398430 -0.639221
C56   C     C_3   0.353302 0.997037 0.349186 0.106799
H48   H     H_    0.295655 0.005613 0.359394 0.167506
H49   H     H_    0.365882 0.930984 0.371071 0.146249
C57   C     C_3   0.368902 0.007011 0.249411 -0.339948
H50   H     H_    0.353508 0.071794 0.227371 0.237443
H51   H     H_    0.426466 0.999266 0.238121 0.223675
C58   C     C_3   0.328503 0.941550 0.193003 -0.979911
H52   H     H_    0.343058 0.876168 0.213779 0.264751
H53   H     H_    0.341903 0.949645 0.121292 0.273252
H54   H     H_    0.270634 0.950365 0.200544 0.272490
O17   O     O_3   0.623711 0.438305 0.068649 -0.641293
C59   C     C_3   0.669755 0.412896 0.999966 0.057779
H55   H     H_    0.681880 0.467120 0.954887 0.133986
H56   H     H_    0.645962 0.359850 0.960199 0.141163
C60   C     C_3   0.738935 0.382029 0.042198 -0.300530
H57   H     H_    0.763426 0.434429 0.082018 0.228398
H58   H     H_    0.727753 0.328283 0.088063 0.234124
C61   C     C_3   0.790920 0.352757 0.971049 -0.967079
H59   H     H_    0.768229 0.298819 0.931986 0.272875
H60   H     H_    0.840674 0.331409 0.003948 0.271559
H61   H     H_    0.803512 0.405746 0.924881 0.269231
O18   O     O_3   0.376310 0.562130 0.932535 -0.644715
C62   C     C_3   0.329080 0.586592 0.000817 0.068235
H62   H     H_    0.311981 0.652703 0.986839 0.171954
H63   H     H_    0.352461 0.586855 0.069849 0.117968
C63   C     C_3   0.264112 0.528460 0.998467 -0.343758
H64   H     H_    0.240216 0.528768 0.930077 0.239456
H65   H     H_    0.280322 0.462438 0.014396 0.218701
C64   C     C_3   0.208765 0.557291 0.065659 -0.953489
H66   H     H_    0.231597 0.558951 0.134474 0.275178
H67   H     H_    0.163425 0.512294 0.064455 0.272968
H68   H     H_    0.189152 0.621591 0.048122 0.262166

loop_
_geom_bond_atom_site_label_1
_geom_bond_atom_site_label_2
_ccdc_geom_bond_type
C48   H27   S    
C64   H67   S    
O13   H39   S    
C20   H3    S    
C6    C9    S    
C51   H35   S    
C46   H22   S    
C31   C40   S    
C15   C19   S    
O16   C56   S    
C43   H16   S    
C35   C37   A    
C16   H10   S    
C5    C11   S    
C18   O18   S    
C60   H58   S    
O3    Zn2   S    
C6    C12   S    
C2    O4    A    
C46   H24   S    
C27   C29   A    
N6    Zn1   S    
C49   H31   S    
C17   C20   S    
C53   H41   S    
C18   C19   S    
C32   C39   S    
C3    C12   S    
O2    Zn2   S    
C15   C22   S    
C23   O5    A    
C53   H42   S    
C41   H11   S    
C43   H17   S    
C49   H30   S    
C58   H54   S    
C24   C38   S    
C52   H36   S    
C31   C33   A    
C23   O7    A    
C39   N2    A    
O7    Zn2   S    
C48   H28   S    
C1    C7    S    
C64   H68   S    
C24   O6    A    
C52   H37   S    
C61   H61   S    
C51   H34   S    
N2    N4    A    
C46   H23   S    
C43   H15   S    
O6    Zn2   S    
O9    C41   S    
C50   H32   S    
O18   C62   S    
C4    C6    S    
C62   C63   S    
O1    Zn1   S    
C42   H14   S    
O10   C44   S    
C5    O13   S    
C23   C37   S    
C17   C21   S    
C29   H5    S    
N1    N3    A    
C32   C34   A    
C57   H51   S    
C56   H49   S    
C6    O14   S    
C3    C9    S    
C1    O1    A    
C42   C43   S    
C27   H1    S    
C47   H26   S    
C63   C64   S    
C28   C38   A    
C16   C20   S    
C49   H29   S    
C36   O12   S    
C16   C18   S    
C4    C11   S    
C9    C11   S    
C54   H44   S    
C10   C12   S    
C35   O11   S    
C61   H60   S    
C1    O3    A    
C12   C14   S    
O4    Zn1   S    
C48   C49   S    
C40   N4    A    
C58   H52   S    
C52   H38   S    
C60   C61   S    
C57   C58   S    
C20   C22   S    
C55   H46   S    
C56   H48   S    
C45   C46   S    
C64   H66   S    
N5    Zn2   S    
C19   H4    S    
C33   O9    S    
C47   C48   S    
C44   H19   S    
O14   H40   S    
C54   C55   S    
C15   C17   S    
C21   C25   S    
C8    C14   T    
C19   C21   S    
C18   C22   S    
C30   H6    S    
C2    C8    S    
C25   N5    T    
C63   H65   S    
C61   H59   S    
C3    C5    S    
C59   C60   S    
C26   N6    T    
C44   C45   S    
C54   H43   S    
C2    O2    A    
C16   C21   S    
C59   H56   S    
C50   C51   S    
C40   N1    A    
O17   C59   S    
C45   H21   S    
C53   C54   S    
C4    O16   S    
O8    Zn1   S    
C55   H47   S    
C62   H63   S    
C57   H50   S    
C55   H45   S    
C56   C57   S    
C5    C10   S    
C29   C31   A    
C3    O15   S    
C62   H62   S    
C34   O10   S    
C36   C38   A    
C30   C32   A    
C11   C13   S    
C47   H25   S    
C39   N3    A    
C27   C37   A    
C41   C42   S    
C28   H2    S    
O12   C50   S    
C33   C35   A    
C28   C30   A    
C24   O8    A    
C34   C36   A    
C15   H9    S    
C59   H55   S    
C44   H18   S    
O5    Zn1   S    
C7    C13   T    
C42   H13   S    
C63   H64   S    
C9    H8    S    
C50   H33   S    
C45   H20   S    
C22   C26   S    
C10   H7    S    
C58   H53   S    
C41   H12   S    
C17   O17   S    
O11   C47   S    
C60   H57   S    
C4    C10   S    
C51   C52   S    
O15   C53   S    
