data_mof_unit_34248.cif
_audit_creation_date              2012-12-10T17:33:04-0500
_audit_creation_method            fapswitch 2.2
_symmetry_space_group_name_H-M    P1
_symmetry_Int_Tables_number       1
_space_group_crystal_system       triclinic
_cell_length_a                    12.400021
_cell_length_b                    13.285875
_cell_length_c                    14.281605
_cell_angle_alpha                 92.681502
_cell_angle_beta                  108.258098
_cell_angle_gamma                 117.175076
_cell_volume                      1936.87989894

loop_
_atom_site_label
_atom_site_type_symbol
_atom_type_description
_atom_site_fract_x
_atom_site_fract_y
_atom_site_fract_z
_atom_type_partial_charge
C1    C     C_R   0.648616 0.714114 0.504882 0.786628
C2    C     C_R   0.165110 0.425246 0.996898 0.147275
C3    C     C_R   0.112500 0.437614 0.068447 0.108834
C4    C     C_R   0.617609 0.514854 0.686408 0.784752
C5    C     C_R   0.285416 0.427823 0.028833 -0.201127
C6    C     C_R   0.355351 0.445703 0.131399 -0.165334
C7    C     C_R   0.187571 0.460408 0.172054 -0.238811
C8    C     C_R   0.205796 0.960294 0.468980 -0.214780
C9    C     C_R   0.257983 0.161396 0.477154 -0.180096
C10   C     C_R   0.702035 0.925161 0.529286 -0.063213
C11   C     C_R   0.792216 0.041882 0.543634 -0.237474
C12   C     C_R   0.824940 0.458617 0.908174 0.032430
C13   C     C_R   0.909217 0.075624 0.529552 0.252572
C14   C     C_R   0.929780 0.989971 0.487201 0.032201
C15   C     C_R   0.834642 0.871070 0.466610 -0.025434
C16   C     C_R   0.346967 0.285364 0.487403 0.809880
C17   C     C_R   0.045400 0.017163 0.469234 0.025459
C18   C     C_R   0.077445 0.929581 0.457325 0.095560
C19   C     C_R   0.976552 0.814567 0.423071 -0.257955
C20   C     C_R   0.851043 0.789933 0.413550 0.016765
C21   C     C_R   0.125697 0.125189 0.454921 -0.008670
C22   C     C_R   0.299535 0.077740 0.488070 -0.053430
C23   C     C_R   0.762491 0.453454 0.977444 0.127594
C24   C     C_R   0.726700 0.837328 0.497786 -0.164998
C25   C     C_R   0.256017 0.686709 0.660748 -0.288917
C26   C     C_R   0.654273 0.335108 0.370014 0.476455
C27   C     C_R   0.732902 0.294979 0.349928 -0.284164
C28   C     C_R   0.379990 0.481451 0.312885 0.813903
C29   C     C_R   0.867728 0.358692 0.397888 -0.266925
C30   C     C_R   0.928124 0.461236 0.471326 -0.004669
C31   C     C_R   0.844361 0.495980 0.495497 0.249941
C32   C     C_R   0.068059 0.527321 0.524444 -0.029155
C33   C     C_R   0.120791 0.623191 0.604703 0.166042
C34   C     C_R   0.930669 0.434860 0.932914 0.005401
C35   C     C_R   0.038275 0.654391 0.629364 -0.276270
C36   C     C_R   0.903624 0.592667 0.575938 -0.167669
C37   C     C_R   0.158963 0.502651 0.501931 0.009949
C38   C     C_R   0.339261 0.656214 0.636623 0.097108
C39   C     C_R   0.673106 0.506067 0.790665 -0.050138
C40   C     C_R   0.307657 0.463328 0.203979 -0.051082
C41   C     C_R   0.654046 0.471199 0.950735 -0.172521
C42   C     C_R   0.607962 0.494686 0.857021 -0.216132
C43   C     C_R   0.785102 0.495016 0.819469 -0.206367
C44   C     C_3   0.821474 0.525940 0.224227 -0.672521
C45   C     C_R   0.989336 0.432139 0.034844 0.016069
C46   C     C_1   0.434739 0.108628 0.514439 0.275635
C47   C     C_1   0.064422 0.176029 0.384567 0.279674
C48   C     C_1   0.586093 0.900546 0.549003 0.310020
C49   C     C_3   0.106059 0.223848 0.663145 -0.677172
C50   C     C_1   0.741961 0.704021 0.326926 0.260412
C51   C     C_3   0.470300 0.246037 0.208521 -0.740649
C52   C     C_1   0.903545 0.370634 0.753460 0.229120
C53   C     C_R   0.921827 0.421087 0.099959 -0.267447
C54   C     C_R   0.809882 0.431086 0.072101 0.221567
C55   C     C_R   0.979029 0.410783 0.861132 -0.024915
C56   C     C_R   0.095978 0.408080 0.894202 -0.273083
Cu1   Cu    Cu3+1 0.416420 0.526630 0.522910 0.952581
Cu2   Cu    Cu3+1 0.583580 0.473370 0.477090 0.970651
H1    H     H_    0.325711 0.416409 0.974520 0.131636
H2    H     H_    0.922314 0.324400 0.377598 0.186125
H3    H     H_    0.689537 0.214563 0.295416 0.159875
H4    H     H_    0.849409 0.622367 0.602225 0.198830
H5    H     H_    0.447588 0.447362 0.153532 0.182754
H6    H     H_    0.133199 0.391887 0.839233 0.142685
H7    H     H_    0.603104 0.465158 0.001365 0.169818
H8    H     H_    0.520738 0.502523 0.836148 0.154281
H9    H     H_    0.841931 0.517752 0.772366 0.158741
H10   H     H_    0.952633 0.402023 0.173156 0.157905
H11   H     H_    0.727439 0.348779 0.168821 0.260849
H12   H     H_    0.992055 0.748113 0.392706 0.146749
H13   H     H_    0.831744 0.603841 0.193697 0.245098
H14   H     H_    0.920162 0.539422 0.268690 0.218008
H15   H     H_    0.768411 0.514335 0.275804 0.243379
H16   H     H_    0.970870 0.251428 0.556775 0.268273
H17   H     H_    0.181463 0.317035 0.681813 0.230076
H18   H     H_    0.154993 0.171302 0.665332 0.236847
H19   H     H_    0.060856 0.207730 0.720835 0.219877
H20   H     H_    0.474704 0.194429 0.342559 0.252235
H21   H     H_    0.364819 0.219397 0.176978 0.242373
H22   H     H_    0.482349 0.174556 0.178968 0.210707
H23   H     H_    0.233091 0.893784 0.465636 0.162171
H24   H     H_    0.524787 0.324537 0.182836 0.245460
H25   H     H_    0.775124 0.108087 0.572209 0.183574
H26   H     H_    0.443413 0.704802 0.680360 0.133734
H27   H     H_    0.156083 0.479508 0.229524 0.153441
H28   H     H_    0.078282 0.727553 0.691206 0.151902
H29   H     H_    0.297196 0.759513 0.723191 0.144147
H30   H     H_    0.127466 0.433710 0.439937 0.144317
N1    N     N_R   0.290690 0.566960 0.557640 -0.184476
N2    N     N_1   0.843380 0.337956 0.667266 -0.278220
N3    N     N_R   0.709100 0.433710 0.442970 -0.221424
N4    N     N_2   0.749237 0.423869 0.142630 -0.454668
N5    N     N_1   0.543290 0.133810 0.535716 -0.277712
N6    N     N_1   0.016002 0.214720 0.325781 -0.350367
N7    N     N_1   0.493270 0.881719 0.564543 -0.303882
N8    N     N_2   0.007456 0.195104 0.563711 -0.429209
N9    N     N_1   0.653964 0.637748 0.256239 -0.320520
N10   N     N_2   0.516391 0.269431 0.317838 -0.373184
O1    O     O_R   0.545970 0.684450 0.528810 -0.571264
O2    O     O_R   0.687130 0.639470 0.490120 -0.599374
O3    O     O_R   0.519670 0.535100 0.660030 -0.589470
O4    O     O_R   0.660830 0.490120 0.621340 -0.588423
O5    O     O_R   0.312870 0.360530 0.509880 -0.569286
O6    O     O_R   0.454030 0.315550 0.471190 -0.563461
O7    O     O_R   0.339170 0.509880 0.378660 -0.590736
O8    O     O_R   0.480330 0.464900 0.339970 -0.543546

loop_
_geom_bond_atom_site_label_1
_geom_bond_atom_site_label_2
_ccdc_geom_bond_type
Cu1   O7    S    
C55   C56   A    
C48   N7    T    
C27   C29   A    
C41   C42   A    
C37   H30   S    
C52   N2    T    
C19   C20   A    
C1    O1    A    
C7    H27   S    
C53   C54   A    
C38   N1    A    
C26   C27   A    
Cu1   N1    S    
C9    C16   S    
C12   C43   A    
C3    C7    A    
C30   C31   A    
C35   H28   S    
C9    C22   A    
C28   C40   S    
Cu1   O1    S    
C25   H29   S    
C44   H13   S    
C18   C19   A    
C53   H10   S    
C51   H22   S    
C20   C50   S    
C27   H3    S    
C16   O6    A    
C35   C36   A    
C28   O8    A    
C4    O4    A    
H20   N10   S    
C8    C22   A    
C7    C40   A    
C49   H17   S    
Cu2   O4    S    
H11   N4    S    
Cu2   N3    S    
C44   N4    S    
C52   C55   S    
C51   N10   S    
C45   C53   A    
C34   C55   A    
C13   C14   A    
C14   C17   A    
C36   H4    S    
C1    O2    A    
C39   C42   A    
C15   C20   A    
Cu1   O5    S    
C5    H1    S    
C13   N8    S    
C8    H23   S    
H16   N8    S    
Cu2   O2    S    
C39   C43   A    
C11   H25   S    
C26   N3    A    
C3    C45   A    
C8    C18   A    
Cu2   O8    S    
C6    H5    S    
C54   N4    S    
C29   C30   A    
C25   C38   A    
C16   O5    A    
C12   C23   A    
C29   H2    S    
C28   O7    A    
C4    O3    A    
C56   H6    S    
C17   C18   A    
C49   H18   S    
C34   C45   A    
C32   C37   A    
C51   H24   S    
C26   N10   S    
C15   C24   A    
C22   C46   S    
C31   N3    A    
C10   C48   S    
C6    C40   A    
C2    C5    A    
Cu2   O6    S    
C12   C34   A    
C23   C54   A    
C50   N9    T    
C38   H26   S    
C14   C15   A    
C41   H7    S    
Cu1   O3    S    
C4    C39   S    
C23   C41   A    
C37   N1    A    
C10   C24   A    
C32   C33   A    
C2    C3    A    
C2    C56   A    
C30   C32   A    
C11   C13   A    
C9    C21   A    
Cu1   Cu2   S    
C5    C6    A    
C46   N5    T    
C33   C35   A    
C47   N6    T    
C49   H19   S    
C44   H14   S    
C49   N8    S    
C44   H15   S    
C51   H21   S    
C10   C11   A    
C1    C24   S    
C43   H9    S    
C42   H8    S    
C31   C36   A    
C19   H12   S    
C25   C33   A    
C21   C47   S    
C17   C21   A    
