data_mof_unit_27273.cif
_audit_creation_date              2012-12-10T17:51:29-0500
_audit_creation_method            fapswitch 2.2
_symmetry_space_group_name_H-M    P1
_symmetry_Int_Tables_number       1
_space_group_crystal_system       triclinic
_cell_length_a                    14.686732
_cell_length_b                    14.56919
_cell_length_c                    17.166243
_cell_angle_alpha                 105.743619
_cell_angle_beta                  73.671284
_cell_angle_gamma                 114.96572
_cell_volume                      3146.01052615

loop_
_atom_site_label
_atom_site_type_symbol
_atom_type_description
_atom_site_fract_x
_atom_site_fract_y
_atom_site_fract_z
_atom_type_partial_charge
C1    C     C_R   0.118564 0.688511 0.513839 0.801808
C2    C     C_R   0.712607 0.173818 0.478270 -0.227700
C3    C     C_R   0.360103 0.922379 0.506348 0.073761
C4    C     C_R   0.639900 0.077614 0.493576 0.073754
C5    C     C_R   0.323373 0.998486 0.508401 0.133043
C6    C     C_R   0.676628 0.001499 0.491510 0.133060
C7    C     C_R   0.467088 0.946719 0.494471 0.001680
C8    C     C_R   0.532915 0.053274 0.505441 0.001681
C9    C     C_R   0.488060 0.130197 0.529426 0.081765
C10   C     C_R   0.511940 0.869793 0.470478 0.081746
C11   C     C_R   0.387812 0.101281 0.519192 -0.271092
C12   C     C_R   0.881436 0.311489 0.486154 0.801840
C13   C     C_R   0.612191 0.898705 0.480702 -0.271058
C14   C     C_R   0.284675 0.315479 0.368900 -0.014332
C15   C     C_R   0.715276 0.684461 0.631161 -0.014315
C16   C     C_R   0.988107 0.500080 0.652555 0.801798
C17   C     C_R   0.011921 0.499966 0.347450 0.801778
C18   C     C_R   0.205716 0.353026 0.388258 0.050251
C19   C     C_R   0.794252 0.646933 0.611782 0.050248
C20   C     C_R   0.287807 0.491998 0.486142 -0.025462
C21   C     C_R   0.712209 0.508021 0.513840 -0.025499
C22   C     C_R   0.372745 0.462200 0.468771 -0.039498
C23   C     C_R   0.185434 0.797051 0.516871 -0.060457
C24   C     C_R   0.627260 0.537806 0.531223 -0.039500
C25   C     C_R   0.369467 0.371437 0.409749 0.111530
C26   C     C_R   0.630516 0.628541 0.590273 0.111526
C27   C     C_R   0.459198 0.518144 0.509098 0.087655
C28   C     C_R   0.540812 0.481868 0.490890 0.087665
C29   C     C_R   0.533086 0.390514 0.433181 -0.243363
C30   C     C_R   0.466923 0.609495 0.566810 -0.243351
C31   C     C_R   0.450382 0.337479 0.393551 -0.217091
C32   C     C_R   0.549609 0.662509 0.606461 -0.217079
C33   C     C_R   0.977199 0.489228 0.737315 -0.060235
C34   C     C_R   0.814566 0.202946 0.483096 -0.060474
C35   C     C_R   0.022969 0.511056 0.262728 -0.060282
C36   C     C_R   0.032188 0.440035 0.753583 -0.230445
C37   C     C_R   0.967943 0.560252 0.246509 -0.230261
C38   C     C_R   0.021543 0.425945 0.833479 0.134906
C39   C     C_R   0.978844 0.574726 0.166681 0.134849
C40   C     C_R   0.958234 0.467535 0.898541 0.159440
C41   C     C_R   0.042374 0.533423 0.101610 0.159441
C42   C     C_R   0.900283 0.512853 0.881726 -0.195670
C43   C     C_R   0.100343 0.488090 0.118384 -0.195615
C44   C     C_R   0.909248 0.523283 0.801511 -0.206656
C45   C     C_R   0.219583 0.971630 0.508173 -0.194009
C46   C     C_R   0.091171 0.477340 0.198549 -0.206658
C47   C     C_2   0.957298 0.473639 0.985037 -0.263076
C48   C     C_2   0.043341 0.527412 0.015121 -0.263361
C49   C     C_3   0.534539 0.238872 0.577507 -0.381487
C50   C     C_3   0.566395 0.239223 0.655568 -0.334704
C51   C     C_3   0.615803 0.348926 0.699974 -0.833921
C52   C     C_3   0.465446 0.761116 0.422406 -0.381489
C53   C     C_3   0.433563 0.760758 0.344355 -0.334662
C54   C     C_3   0.384122 0.651052 0.299968 -0.833987
C55   C     C_3   0.278990 0.216193 0.307139 -0.432860
C56   C     C_R   0.780414 0.028350 0.491746 -0.194009
C57   C     C_3   0.182484 0.160505 0.268690 -0.363638
C58   C     C_3   0.185264 0.061853 0.209591 -0.845487
C59   C     C_3   0.720899 0.783674 0.693001 -0.432859
C60   C     C_3   0.817328 0.839273 0.731548 -0.363667
C61   C     C_3   0.814461 0.937827 0.790759 -0.845468
C62   C     C_3   0.922638 0.634763 0.154049 -0.434903
C63   C     C_3   0.963153 0.747358 0.197364 -0.340158
C64   C     C_3   0.907064 0.807808 0.184238 -0.855821
C65   C     C_3   0.077727 0.365926 0.846158 -0.434956
C66   C     C_3   0.036531 0.253100 0.803526 -0.340229
C67   C     C_R   0.151439 0.870158 0.509367 -0.205325
C68   C     C_3   0.092910 0.192745 0.816336 -0.855981
C69   C     C_R   0.848558 0.129827 0.490581 -0.205381
C70   C     C_R   0.287400 0.826183 0.521680 -0.227691
Cu1   Cu    Cu3+1 0.916740 0.524770 0.521640 0.916541
Cu2   Cu    Cu3+1 0.083260 0.475230 0.478360 0.916559
H1    H     H_    0.082924 0.411210 0.703740 0.156238
H2    H     H_    0.884500 0.442280 0.025812 0.160940
H3    H     H_    0.850838 0.543702 0.931352 0.133147
H4    H     H_    0.149940 0.457441 0.068753 0.133081
H5    H     H_    0.356018 0.159465 0.528958 0.143848
H6    H     H_    0.643984 0.840518 0.470927 0.143857
H7    H     H_    0.692206 0.225194 0.458375 0.138103
H8    H     H_    0.307813 0.774820 0.541581 0.138099
H9    H     H_    0.191217 0.029092 0.507671 0.132265
H10   H     H_    0.808779 0.970881 0.492235 0.132257
H11   H     H_    0.686396 0.392095 0.659540 0.280791
H12   H     H_    0.916991 0.588792 0.296342 0.156199
H13   H     H_    0.561816 0.389532 0.717636 0.247556
H14   H     H_    0.636723 0.347010 0.756682 0.237649
H15   H     H_    0.497723 0.196529 0.697907 0.214746
H16   H     H_    0.621846 0.200952 0.640559 0.231691
H17   H     H_    0.597168 0.291833 0.539181 0.187596
H18   H     H_    0.477049 0.275791 0.598649 0.194472
H19   H     H_    0.438097 0.610429 0.282296 0.247553
H20   H     H_    0.313537 0.607900 0.340420 0.280793
H21   H     H_    0.363182 0.652962 0.243268 0.237656
H22   H     H_    0.502228 0.803434 0.302000 0.214733
H23   H     H_    0.451165 0.268476 0.349889 0.140196
H24   H     H_    0.378123 0.799044 0.359373 0.231694
H25   H     H_    0.522931 0.724191 0.401254 0.194465
H26   H     H_    0.402824 0.708163 0.460744 0.187601
H27   H     H_    0.253659 0.079401 0.159348 0.252501
H28   H     H_    0.187125 0.007502 0.243156 0.251778
H29   H     H_    0.115767 0.024391 0.181662 0.242798
H30   H     H_    0.113277 0.139804 0.318008 0.215584
H31   H     H_    0.177061 0.211444 0.233710 0.214113
H32   H     H_    0.346586 0.234545 0.256190 0.203635
H33   H     H_    0.283456 0.161695 0.339139 0.204326
H34   H     H_    0.548820 0.731504 0.650132 0.140187
H35   H     H_    0.812642 0.992274 0.757271 0.251819
H36   H     H_    0.746014 0.920172 0.840945 0.252494
H37   H     H_    0.883903 0.975224 0.818754 0.242628
H38   H     H_    0.822703 0.788235 0.766458 0.214108
H39   H     H_    0.886587 0.860080 0.682293 0.215603
H40   H     H_    0.716491 0.838251 0.661049 0.204308
H41   H     H_    0.653248 0.765248 0.743896 0.203658
H42   H     H_    0.589863 0.356696 0.416941 0.126995
H43   H     H_    0.410149 0.643318 0.583047 0.127004
H44   H     H_    0.135544 0.440561 0.209949 0.152719
H45   H     H_    0.718971 0.443893 0.467074 0.128367
H46   H     H_    0.864912 0.560075 0.790077 0.152662
H47   H     H_    0.919765 0.809284 0.117575 0.252467
H48   H     H_    0.823673 0.772460 0.208386 0.254912
H49   H     H_    0.936368 0.888124 0.217666 0.242578
H50   H     H_    0.952775 0.751563 0.264736 0.215826
H51   H     H_    0.046255 0.784034 0.172564 0.223931
H52   H     H_    0.930712 0.634752 0.087899 0.217557
H53   H     H_    0.839643 0.597665 0.178909 0.191658
H54   H     H_    0.176062 0.227538 0.791216 0.254925
H55   H     H_    0.081405 0.192158 0.883011 0.252604
H56   H     H_    0.281065 0.556152 0.532882 0.128363
H57   H     H_    0.062851 0.112155 0.783634 0.242537
H58   H     H_    0.953618 0.216796 0.829065 0.223954
H59   H     H_    0.045961 0.248277 0.736189 0.215995
H60   H     H_    0.160629 0.402587 0.820783 0.191811
H61   H     H_    0.070251 0.366556 0.912328 0.217395
H62   H     H_    0.927587 0.150509 0.493834 0.148664
H63   H     H_    0.072406 0.849470 0.506121 0.148671
H64   H     H_    0.860476 0.686086 0.640485 0.129816
H65   H     H_    0.139477 0.313854 0.359574 0.129835
H66   H     H_    0.116141 0.558752 0.974345 0.160920
N1    N     N_R   0.208390 0.438070 0.445820 -0.195880
N2    N     N_R   0.791610 0.561930 0.554180 -0.195882
O1    O     O_R   0.020090 0.662480 0.528530 -0.590207
O2    O     O_R   0.979910 0.337520 0.471470 -0.590207
O3    O     O_R   0.160710 0.620650 0.491980 -0.585924
O4    O     O_R   0.839290 0.379350 0.508020 -0.585896
O5    O     O_R   0.921540 0.523360 0.633990 -0.588664
O6    O     O_R   0.078460 0.476640 0.366010 -0.588664
O7    O     O_R   0.062170 0.481520 0.597440 -0.585332
O8    O     O_R   0.937830 0.518480 0.402560 -0.585379

loop_
_geom_bond_atom_site_label_1
_geom_bond_atom_site_label_2
_ccdc_geom_bond_type
C25   C31   A    
C40   C47   S    
C66   C68   S    
C29   H42   S    
C26   C32   A    
C69   H62   S    
C68   H54   S    
Cu2   O3    S    
C14   C18   A    
C67   H63   S    
C49   H18   S    
C4    C8    A    
C10   C52   S    
C51   H13   S    
C62   H52   S    
C7    C8    A    
C39   C41   A    
C53   C54   S    
Cu2   O2    S    
C57   H30   S    
C42   H3    S    
C64   H47   S    
C55   H33   S    
C16   O7    A    
C20   N1    A    
C28   C29   A    
C35   C37   A    
C24   C26   A    
C20   H56   S    
C3    C7    A    
C31   H23   S    
C64   H49   S    
C52   H25   S    
C33   C36   A    
C7    C10   A    
C23   C67   A    
C61   H36   S    
C54   H21   S    
C21   H45   S    
C2    H7    S    
C11   H5    S    
C15   C19   A    
Cu2   N1    S    
C19   N2    A    
C22   C25   A    
C45   C67   A    
C37   H12   S    
C30   C32   A    
C50   H16   S    
Cu1   O1    S    
C2    C34   A    
C40   C42   A    
C14   C55   S    
C61   H37   S    
C59   C60   S    
C32   H34   S    
C27   C30   A    
C41   C43   A    
C23   C70   A    
C18   N1    A    
C42   C44   A    
C51   H14   S    
C50   C51   S    
C30   H43   S    
C57   H31   S    
C70   H8    S    
C3    C70   A    
C9    C49   S    
C4    C6    A    
C49   H17   S    
C56   C69   A    
C8    C9    A    
C15   C26   A    
C19   H64   S    
C5    C45   A    
C55   H32   S    
C12   O4    A    
C16   O5    A    
C18   H65   S    
C2    C4    A    
C54   H20   S    
C62   C63   S    
C1    O3    A    
C16   C33   S    
C47   C48   D    
C34   C69   A    
C38   C65   S    
C44   H46   S    
C59   H41   S    
C17   O8    A    
C59   H40   S    
C58   H28   S    
C58   H29   S    
C56   H10   S    
C9    C11   A    
C68   H55   S    
C50   H15   S    
Cu1   O5    S    
C20   C22   A    
C1    C23   S    
C22   C27   A    
C55   C57   S    
C12   C34   S    
C51   H11   S    
C65   H60   S    
C52   C53   S    
C66   H59   S    
C43   H4    S    
C39   C62   S    
C13   H6    S    
C53   H22   S    
C33   C44   A    
C15   C59   S    
C45   H9    S    
C58   H27   S    
C24   C28   A    
C47   H2    S    
C6    C56   A    
C3    C5    A    
C10   C13   A    
C62   H53   S    
C63   H51   S    
C5    C11   A    
Cu1   N2    S    
C46   H44   S    
Cu2   O7    S    
C64   H48   S    
C48   H66   S    
C36   C38   A    
C17   O6    A    
Cu1   Cu2   S    
C37   C39   A    
C60   H39   S    
C6    C13   A    
C38   C40   A    
C63   H50   S    
C57   C58   S    
Cu2   O6    S    
C52   H26   S    
C41   C48   S    
C12   O2    A    
Cu1   O8    S    
C65   C66   S    
C14   C25   A    
C68   H57   S    
C61   H35   S    
C43   C46   A    
C1    O1    A    
C60   H38   S    
C36   H1    S    
C63   C64   S    
C54   H19   S    
C29   C31   A    
C49   C50   S    
C21   C24   A    
C27   C28   A    
C60   C61   S    
C17   C35   S    
C21   N2    A    
C66   H58   S    
C35   C46   A    
C65   H61   S    
Cu1   O4    S    
C53   H24   S    
