data_mof_unit_26719.cif
_audit_creation_date              2012-10-26T19:35:14-0400
_audit_creation_method            fapswitch 2.2
_symmetry_space_group_name_H-M    P1
_symmetry_Int_Tables_number       1
_space_group_crystal_system       triclinic
_cell_length_a                    10.878348
_cell_length_b                    10.810898
_cell_length_c                    9.53509
_cell_angle_alpha                 89.887844
_cell_angle_beta                  91.551168
_cell_angle_gamma                 90.719327
_cell_volume                      1120.87076385

loop_
_atom_site_label
_atom_site_type_symbol
_atom_type_description
_atom_site_fract_x
_atom_site_fract_y
_atom_site_fract_z
_atom_type_partial_charge
C1    C     C_R   0.500723 0.262451 0.500246 0.543450
C2    C     C_R   0.559856 0.936721 0.390924 -0.146352
C3    C     C_R   0.506104 0.871173 0.501312 0.040824
C4    C     C_R   0.262954 0.512710 0.497710 0.543744
C5    C     C_R   0.466039 0.935978 0.617578 0.074865
C6    C     C_3   0.344000 0.929723 0.685885 -0.286057
C7    C     C_3   0.346825 0.069979 0.687995 -0.273636
C8    C     C_R   0.579523 0.575062 0.076065 0.129854
C9    C     C_R   0.428511 0.419148 0.072405 0.024074
C10   C     C_R   0.428380 0.419230 0.923488 0.000179
C11   C     C_R   0.580278 0.574805 0.928303 0.118203
C12   C     C_R   0.069173 0.560443 0.618731 0.010280
C13   C     C_3   0.585455 0.713085 0.923413 -0.115894
C14   C     C_3   0.584627 0.712664 0.082487 -0.289917
C15   C     C_R   0.499958 0.737709 0.499963 0.564090
C16   C     C_R   0.738334 0.496480 0.502907 0.558602
C17   C     C_R   0.130665 0.623224 0.730833 -0.090642
C18   C     C_R   0.078443 0.630218 0.861806 -0.101871
C19   C     C_R   0.965802 0.572917 0.883892 -0.134327
C20   C     C_R   0.898488 0.522134 0.771029 -0.093454
C21   C     C_R   0.944594 0.525907 0.633096 0.031123
C22   C     C_2   0.106553 0.496910 0.227541 0.223182
C23   C     C_R   0.128982 0.531643 0.493117 -0.000244
C24   C     C_2   0.703665 0.762780 0.866441 0.235516
C25   C     C_R   0.057507 0.503422 0.370652 -0.008531
C26   C     C_R   0.931785 0.486631 0.380826 -0.181202
C27   C     C_R   0.873506 0.497349 0.509116 -0.017386
C28   C     C_R   0.467867 0.063459 0.618380 0.042355
C29   C     C_R   0.508142 0.129469 0.502186 0.007845
C30   C     C_R   0.560306 0.065685 0.390876 -0.156909
Cu1   Cu    Cu3+1 0.499990 0.499980 0.640670 0.950931
Cu2   Cu    Cu3+1 0.500010 0.500020 0.359330 0.973916
H1    H     H_    0.349327 0.888507 0.792560 0.128495
H2    H     H_    0.928463 0.571085 0.988009 0.103408
H3    H     H_    0.813765 0.476470 0.797100 0.146236
H4    H     H_    0.878433 0.467007 0.285467 0.124252
H5    H     H_    0.598374 0.115073 0.302787 0.133350
H6    H     H_    0.270170 0.890389 0.615687 0.128505
H7    H     H_    0.074083 0.424864 0.156033 0.083342
H8    H     H_    0.790573 0.742469 0.918869 0.104271
H9    H     H_    0.127119 0.677465 0.946699 0.167193
H10   H     H_    0.598881 0.888899 0.303744 0.122171
H11   H     H_    0.274060 0.112360 0.619976 0.134725
H12   H     H_    0.355990 0.109071 0.795574 0.134992
H13   H     H_    0.368674 0.355536 0.126677 0.117010
H14   H     H_    0.368435 0.355682 0.865863 0.116372
H15   H     H_    0.501423 0.753807 0.874761 0.156516
H16   H     H_    0.671267 0.746259 0.134935 0.108263
H17   H     H_    0.499125 0.752740 0.123413 0.157377
H18   H     H_    0.218830 0.668565 0.717724 0.129565
N1    N     N_R   0.500790 0.500930 0.147930 -0.218213
N2    N     N_R   0.500790 0.500890 0.852020 -0.244901
O1    O     O_R   0.500000 0.319640 0.618810 -0.502533
O2    O     O_2   0.702750 0.828597 0.762424 -0.495336
O3    O     O_R   0.500010 0.319680 0.381230 -0.519773
O4    O     O_R   0.319640 0.499980 0.618820 -0.525622
O5    O     O_R   0.319650 0.500020 0.381230 -0.449190
O6    O     O_R   0.499990 0.680320 0.618770 -0.486059
O7    O     O_R   0.500000 0.680360 0.381190 -0.508836
O8    O     O_R   0.680350 0.499980 0.618770 -0.503705
O9    O     O_R   0.680360 0.500020 0.381180 -0.506762
O10   O     O_2   0.175922 0.577274 0.184759 -0.511728

loop_
_geom_bond_atom_site_label_1
_geom_bond_atom_site_label_2
_ccdc_geom_bond_type
C17   H18   S    
C4    O5    A    
C14   H16   S    
C6    H6    S    
Cu2   N1    S    
C10   H14   S    
C6    C7    S    
C7    H11   S    
Cu1   O4    S    
C22   O10   D    
C5    C28   A    
C9    C10   A    
Cu2   O3    S    
C19   C20   A    
C8    N1    A    
C6    H1    S    
Cu1   N2    S    
C2    C30   A    
C10   N2    A    
C16   C27   S    
C1    C29   S    
C2    C3    A    
C21   C27   A    
C7    H12   S    
Cu1   O1    S    
C12   C17   A    
C9    H13   S    
C11   C13   S    
C12   C23   A    
C26   C27   A    
C29   C30   A    
Cu2   O5    S    
C2    H10   S    
C8    C11   A    
C22   H7    S    
Cu2   O7    S    
Cu1   O6    S    
C26   H4    S    
C28   C29   A    
C24   H8    S    
Cu2   O9    S    
C17   C18   A    
C23   C25   A    
C1    O3    A    
C5    C6    S    
C15   O6    A    
C14   H17   S    
C16   O9    A    
C24   O2    D    
C3    C15   S    
C20   C21   A    
C13   C24   S    
C18   C19   A    
C16   O8    A    
C18   H9    S    
C13   H15   S    
C4    C23   S    
C1    O1    A    
C8    C14   S    
C11   N2    A    
Cu1   O8    S    
C25   C26   A    
C13   C14   S    
C20   H3    S    
C15   O7    A    
C12   C21   A    
C22   C25   S    
C4    O4    A    
C7    C28   S    
Cu1   Cu2   S    
C30   H5    S    
C3    C5    A    
C19   H2    S    
C9    N1    A    
