data_mof_unit_57620.cif
_audit_creation_date              2012-12-10T19:42:12-0500
_audit_creation_method            fapswitch 2.2
_symmetry_space_group_name_H-M    P1
_symmetry_Int_Tables_number       1
_space_group_crystal_system       triclinic
_cell_length_a                    10.852078
_cell_length_b                    10.950535
_cell_length_c                    9.660126
_cell_angle_alpha                 90.456486
_cell_angle_beta                  90.467857
_cell_angle_gamma                 90.128927
_cell_volume                      1147.89353079

loop_
_atom_site_label
_atom_site_type_symbol
_atom_type_description
_atom_site_fract_x
_atom_site_fract_y
_atom_site_fract_z
_atom_type_partial_charge
C1    C     C_R   0.499692 0.265430 0.499221 0.912040
C2    C     C_R   0.209898 0.728289 0.037194 -0.199014
C3    C     C_R   0.932555 0.539392 0.390096 -0.238391
C4    C     C_R   0.871175 0.489024 0.502159 -0.115474
C5    C     C_R   0.937417 0.434385 0.612146 -0.114688
C6    C     C_R   0.067270 0.434457 0.608390 0.359651
C7    C     C_R   0.127800 0.493092 0.498094 -0.119489
C8    C     C_R   0.059650 0.542734 0.386758 -0.090087
C9    C     C_R   0.872576 0.443278 0.858091 -0.121941
C10   C     C_R   0.807484 0.398794 0.971159 -0.112618
C11   C     C_R   0.741043 0.290026 0.959046 -0.211094
C12   C     C_R   0.262069 0.498685 0.499315 0.836434
C13   C     C_R   0.740254 0.224789 0.834191 -0.094291
C14   C     C_R   0.805715 0.267291 0.719675 0.447886
C15   C     C_R   0.872002 0.379229 0.731353 -0.013707
C16   C     C_2   0.510426 0.934439 0.387621 0.246226
C17   C     C_2   0.531422 0.866873 0.501953 0.174225
C18   C     C_2   0.534937 0.067214 0.391106 0.389160
C19   C     C_2   0.490161 0.133936 0.496388 -0.270348
C20   C     C_2   0.431587 0.426794 0.920765 -0.049788
C21   C     C_2   0.435129 0.423664 0.076686 -0.037720
C22   C     C_R   0.506591 0.734958 0.500488 0.790508
C23   C     C_R   0.737553 0.495729 0.500777 0.836116
C24   C     C_R   0.198603 0.787794 0.164659 -0.073011
C25   C     C_R   0.152724 0.725268 0.278629 -0.162529
C26   C     C_R   0.116539 0.602515 0.265838 0.046504
C27   C     C_R   0.127797 0.541768 0.135794 0.432937
C28   C     C_R   0.174452 0.606189 0.022909 -0.146538
Cu1   Cu    Cu3+1 0.500020 0.500020 0.638630 0.965925
Cu2   Cu    Cu3+1 0.499980 0.499980 0.361370 0.989880
H1    H     H_    0.245634 0.777004 0.949057 0.154389
H2    H     H_    0.689914 0.256225 0.046554 0.188820
H3    H     H_    0.688412 0.140369 0.826253 0.170797
H4    H     H_    0.440649 0.091354 0.580651 0.126431
H5    H     H_    0.369273 0.364032 0.868028 0.191252
H6    H     H_    0.561619 0.554903 0.895055 0.195130
H7    H     H_    0.379421 0.355094 0.127225 0.172795
H8    H     H_    0.224334 0.882955 0.174902 0.150329
H9    H     H_    0.548107 0.566784 0.106962 0.200625
H10   H     H_    0.143507 0.773065 0.376611 0.135516
H11   H     H_    0.183250 0.561164 0.923284 0.186990
H12   H     H_    0.881068 0.580357 0.305662 0.166786
H13   H     H_    0.922397 0.528740 0.868591 0.150281
H14   H     H_    0.807883 0.449174 0.068051 0.154039
N1    N     N_2   0.498640 0.498660 0.846910 -0.286210
N2    N     N_2   0.498610 0.498630 0.153040 -0.281378
O1    O     O_R   0.500020 0.321960 0.617040 -0.583953
O2    O     O_R   0.499980 0.321920 0.382900 -0.539839
O3    O     O_R   0.319660 0.500030 0.617070 -0.531960
O4    O     O_R   0.319620 0.499990 0.382930 -0.587548
O5    O     O_R   0.500020 0.678080 0.617100 -0.608756
O6    O     O_R   0.499980 0.678040 0.382960 -0.518706
O7    O     O_R   0.680380 0.500010 0.617070 -0.579349
O8    O     O_R   0.680340 0.499970 0.382930 -0.589195
O9    O     O_3   0.801503 0.197359 0.600060 -0.721742
H15   H     H_    0.857118 0.232454 0.530170 0.322635
O10   O     O_3   0.465148 0.880836 0.267294 -0.749425
H16   H     H_    0.448282 0.945825 0.198859 0.315637
O11   O     O_3   0.585059 0.921640 0.617742 -0.759674
H17   H     H_    0.603645 0.858935 0.688120 0.337080
O12   O     O_3   0.599475 0.122418 0.285539 -0.726744
H18   H     H_    0.632248 0.057599 0.223872 0.319737
O13   O     O_3   0.095330 0.421024 0.114064 -0.757816
H19   H     H_    0.070634 0.383639 0.202469 0.330236
O14   O     O_3   0.138039 0.376145 0.708032 -0.742916
H20   H     H_    0.086610 0.322578 0.765835 0.338942

loop_
_geom_bond_atom_site_label_1
_geom_bond_atom_site_label_2
_ccdc_geom_bond_type
C12   O4    A    
O9    H15   S    
C1    O2    A    
C13   H3    S    
Cu1   Cu2   S    
C8    C26   S    
C9    C10   A    
C24   H8    S    
C17   C22   S    
Cu2   N2    S    
C5    C15   S    
Cu2   O8    S    
C14   O9    S    
C26   C27   A    
O11   H17   S    
C3    H12   S    
Cu1   O3    S    
C13   C14   A    
C24   C25   A    
C18   C19   D    
C4    C5    A    
C11   C13   A    
C22   O5    A    
O10   H16   S    
C6    C7    A    
C27   O13   S    
Cu1   O1    S    
H9    N2    S    
C5    C6    A    
C16   C18   S    
C6    O14   S    
C17   O11   S    
C11   H2    S    
C23   O7    A    
C16   O10   S    
O14   H20   S    
C25   H10   S    
C2    C24   A    
O12   H18   S    
Cu2   O4    S    
C7    C12   S    
C9    H13   S    
C12   O3    A    
C7    C8    A    
C10   C11   A    
O13   H19   S    
C10   H14   S    
C3    C4    A    
C21   N2    D    
C28   H11   S    
H6    N1    S    
C21   H7    S    
C20   C21   S    
C23   O8    A    
C22   O6    A    
C3    C8    A    
Cu1   O5    S    
Cu2   O2    S    
C27   C28   A    
C4    C23   S    
Cu2   O6    S    
C14   C15   A    
C2    H1    S    
C2    C28   A    
C25   C26   A    
C9    C15   A    
C1    C19   S    
C20   H5    S    
C18   O12   S    
C1    O1    A    
C20   N1    D    
Cu1   N1    S    
C16   C17   D    
Cu1   O7    S    
C19   H4    S    
