data_mof_unit_36495.cif
_audit_creation_date              2012-12-10T18:57:12-0500
_audit_creation_method            fapswitch 2.2
_symmetry_space_group_name_H-M    P1
_symmetry_Int_Tables_number       1
_space_group_crystal_system       triclinic
_cell_length_a                    8.720176
_cell_length_b                    10.772052
_cell_length_c                    9.580223
_cell_angle_alpha                 90.676755
_cell_angle_beta                  97.872199
_cell_angle_gamma                 90.547063
_cell_volume                      891.310939576

loop_
_atom_site_label
_atom_site_type_symbol
_atom_type_description
_atom_site_fract_x
_atom_site_fract_y
_atom_site_fract_z
_atom_type_partial_charge
C1    C     C_R   0.498351 0.262865 0.498851 0.803874
C2    C     C_R   0.366656 0.933866 0.429038 -0.023800
C3    C     C_R   0.497117 0.870971 0.497380 -0.084757
C4    C     C_R   0.633074 0.938669 0.539137 -0.048316
C5    C     C_3   0.749660 0.935651 0.668643 -0.282319
C6    C     C_3   0.748997 0.077329 0.667573 0.441927
C7    C     C_R   0.619437 0.552790 0.089270 0.234424
C8    C     C_R   0.393408 0.433308 0.061145 -0.075664
C9    C     C_R   0.394044 0.431694 0.912645 0.058512
C10   C     C_R   0.620611 0.551736 0.942648 0.222190
C11   C     C_3   0.680490 0.681879 0.946295 -0.291596
C12   C     C_R   0.203959 0.500447 0.463856 0.888983
C13   C     C_3   0.675578 0.683781 0.104821 -0.496107
C14   C     C_R   0.500840 0.737383 0.500396 0.800977
C15   C     C_R   0.796013 0.500868 0.536129 0.870592
C16   C     C_2   0.037969 0.500962 0.444022 -0.341215
C17   C     C_2   0.961936 0.502365 0.555847 -0.315124
C18   C     C_R   0.632736 0.066164 0.538420 -0.026453
C19   C     C_R   0.497682 0.130030 0.494356 -0.010933
C20   C     C_R   0.367499 0.064150 0.428554 -0.225326
Cu1   Cu    Cu3+1 0.499990 0.499980 0.640670 0.999494
Cu2   Cu    Cu3+1 0.500010 0.500020 0.359330 0.963623
H1    H     H_    0.978103 0.499626 0.336697 0.175475
H2    H     H_    0.599177 0.747165 0.886809 0.179772
H3    H     H_    0.790458 0.691534 0.171345 0.210755
H4    H     H_    0.586591 0.747671 0.136247 0.220480
H5    H     H_    0.021711 0.504433 0.663104 0.193575
H6    H     H_    0.265757 0.113769 0.382217 0.139430
H7    H     H_    0.704627 0.894895 0.760611 0.184159
H8    H     H_    0.858753 0.123304 0.648089 0.082651
H9    H     H_    0.306450 0.380794 0.106598 0.142305
N1    N     N_R   0.500980 0.500930 0.148050 -0.189545
N2    N     N_R   0.500990 0.500890 0.852140 -0.216142
O1    O     O_R   0.500000 0.319640 0.618810 -0.529943
O2    O     O_R   0.500020 0.319680 0.381230 -0.594711
O3    O     O_R   0.274830 0.499980 0.591380 -0.579816
O4    O     O_R   0.274850 0.500020 0.353800 -0.587610
O5    O     O_R   0.499980 0.680320 0.618770 -0.587762
O6    O     O_R   0.500000 0.680360 0.381190 -0.580969
O7    O     O_R   0.725150 0.499980 0.646200 -0.577458
O8    O     O_R   0.725170 0.500020 0.408620 -0.581039
C21   C     C_1   0.283065 0.352474 0.828488 0.333289
N3    N     N_1   0.193849 0.287771 0.761989 -0.297420
C22   C     C_1   0.839679 0.686155 0.911756 0.306016
N4    N     N_1   0.965478 0.688628 0.885975 -0.271261
C23   C     C_1   0.230317 0.867416 0.363621 0.277260
N5    N     N_1   0.121336 0.814106 0.310837 -0.275683
C24   C     C_1   0.896862 0.883055 0.638858 0.240736
N6    N     N_1   0.012797 0.841580 0.615694 -0.246750
F1    F     F_    0.685908 0.127053 0.780650 -0.632779

loop_
_geom_bond_atom_site_label_1
_geom_bond_atom_site_label_2
_ccdc_geom_bond_type
C8    C9    A    
C7    C10   A    
C10   N2    A    
Cu1   O1    S    
C12   O3    A    
C19   C20   A    
C4    C18   A    
C15   O7    A    
Cu2   O4    S    
C2    C3    A    
C8    N1    A    
C11   C22   S    
Cu1   O3    S    
Cu1   Cu2   S    
C2    C23   S    
C9    N2    A    
Cu2   O2    S    
C11   C13   S    
C13   H3    S    
C9    C21   S    
C3    C14   S    
Cu2   N1    S    
Cu2   O6    S    
C24   N6    T    
C6    H8    S    
C1    O1    A    
C16   H1    S    
C5    H7    S    
C5    C6    S    
C6    C18   S    
C5    C24   S    
C13   H4    S    
C1    C19   S    
Cu2   O8    S    
C14   O5    A    
C10   C11   S    
C2    C20   A    
C3    C4    A    
C17   H5    S    
C11   H2    S    
C7    C13   S    
Cu1   N2    S    
C22   N4    T    
C15   O8    A    
C18   C19   A    
C21   N3    T    
C12   O4    A    
C15   C17   S    
C1    O2    A    
C23   N5    T    
C4    C5    S    
C7    N1    A    
C20   H6    S    
C14   O6    A    
C8    H9    S    
C6    F1    S    
Cu1   O5    S    
C12   C16   S    
C16   C17   D    
Cu1   O7    S    
