data_mof_unit_66174.cif
_audit_creation_date              2012-12-11T16:03:03-0500
_audit_creation_method            fapswitch 2.2
_symmetry_space_group_name_H-M    P1
_symmetry_Int_Tables_number       1
_space_group_crystal_system       triclinic
_cell_length_a                    6.964538
_cell_length_b                    23.159157
_cell_length_c                    25.096048
_cell_angle_alpha                 106.610673
_cell_angle_beta                  90.011288
_cell_angle_gamma                 90.173682
_cell_volume                      3878.87447745

loop_
_atom_site_label
_atom_site_type_symbol
_atom_type_description
_atom_site_fract_x
_atom_site_fract_y
_atom_site_fract_z
_atom_type_partial_charge
O1    O     O_R   0.494320 0.441930 0.440920 -0.526143
O2    O     O_R   0.820780 0.446390 0.546550 -0.508428
O3    O     O_R   0.994330 0.558070 0.559080 -0.521680
C1    C     C_R   0.651994 0.433791 0.562935 0.767215
O4    O     O_R   0.823820 0.435090 0.440550 -0.531506
O5    O     O_R   0.997390 0.546680 0.452330 -0.534086
C2    C     C_R   0.654796 0.416680 0.418635 0.693736
O6    O     O_R   0.491260 0.453320 0.547670 -0.511117
O7    O     O_3   0.661870 0.536630 0.503990 -0.351399
V1    V     V_3+5 0.935460 0.493210 0.499260 1.484710
O8    O     O_R   0.327300 0.553610 0.453450 -0.521688
C3    C     C_R   0.158645 0.567361 0.438247 0.741956
O9    O     O_R   0.324250 0.564910 0.559450 -0.522229
C4    C     C_R   0.155439 0.583243 0.581427 0.725042
V2    V     V_3+5 0.435850 0.506790 0.500740 1.489083
O10   O     O_3   0.159570 0.463370 0.496010 -0.349148
C5    C     C_1   0.144956 0.635263 0.633490 -0.205634
C6    C     C_1   0.133437 0.678034 0.676834 0.012999
C7    C     C_1   0.118277 0.728588 0.728333 0.013699
C8    C     C_1   0.105179 0.771183 0.771770 0.016366
C9    C     C_1   0.090005 0.821757 0.823255 0.021749
C10   C     C_1   0.078451 0.864566 0.866571 -0.185854
C11   C     C_R   0.231625 0.854538 0.099702 0.136770
C12   C     C_R   0.235140 0.819658 0.137121 -0.141020
H1    H     H_    0.357651 0.790876 0.136804 0.165494
C13   C     C_R   0.081596 0.820290 0.173572 -0.011630
C14   C     C_R   0.922234 0.856675 0.171739 -0.120337
H2    H     H_    0.801146 0.858198 0.199166 0.146610
C15   C     C_R   0.918975 0.892699 0.135368 -0.162520
H3    H     H_    0.795360 0.921177 0.136076 0.140836
C16   C     C_R   0.073559 0.892867 0.099175 -0.089689
N1    N     N_R   0.928152 0.769986 0.237970 -0.268487
N2    N     N_R   0.937315 0.737156 0.273834 -0.258339
C17   C     C_R   0.108682 0.716671 0.286924 0.533502
N3    N     N_R   0.269768 0.729748 0.262071 -0.214769
N4    N     N_R   0.260450 0.762151 0.225990 -0.278879
C18   C     C_R   0.089731 0.783273 0.213298 0.503695
C19   C     C_R   0.280228 0.687575 0.364345 0.448769
C20   C     C_R   0.295948 0.650880 0.400538 0.081442
C21   C     C_R   0.149045 0.608452 0.401824 -0.158760
C22   C     C_R   0.987657 0.605275 0.367307 -0.157569
H4    H     H_    0.872402 0.573773 0.367333 0.155752
C23   C     C_R   0.973498 0.641298 0.331254 -0.153488
H5    H     H_    0.848633 0.636471 0.304573 0.178525
C24   C     C_R   0.120930 0.681523 0.328117 -0.115096
C25   C     C_R   0.468609 0.364698 0.607190 0.431133
C26   C     C_R   0.455558 0.332601 0.646807 -0.288617
H6    H     H_    0.318136 0.316353 0.655128 0.227822
C27   C     C_R   0.618542 0.319478 0.673727 -0.229125
C28   C     C_R   0.797828 0.339283 0.659516 0.400486
C29   C     C_R   0.806988 0.381427 0.628502 0.337064
C30   C     C_R   0.642364 0.393307 0.600208 -0.343416
N5    N     N_R   0.752600 0.281146 0.748831 -0.215017
N6    N     N_R   0.743418 0.247421 0.783802 -0.284357
C31   C     C_R   0.583918 0.214525 0.786164 0.612131
N7    N     N_R   0.433329 0.217138 0.752506 -0.263432
N8    N     N_R   0.442894 0.250794 0.717359 -0.293180
C32   C     C_R   0.603527 0.283268 0.714396 0.593074
C33   C     C_R   0.450974 0.191082 0.870675 0.410078
C34   C     C_R   0.456861 0.157893 0.910028 0.089774
C35   C     C_R   0.577211 0.106876 0.901126 -0.178846
C36   C     C_R   0.698730 0.092214 0.854679 -0.208098
H7    H     H_    0.791158 0.053172 0.847180 0.157432
C37   C     C_R   0.699630 0.126431 0.816808 0.117972
C38   C     C_R   0.576251 0.176312 0.824534 -0.143077
C39   C     C_1   0.643653 0.364634 0.366613 -0.214983
C40   C     C_1   0.632240 0.321853 0.323269 0.002053
C41   C     C_1   0.617563 0.271318 0.271745 0.006371
C42   C     C_1   0.604962 0.228744 0.228271 0.010698
C43   C     C_1   0.590332 0.178201 0.176752 0.017700
C44   C     C_1   0.579007 0.135407 0.133417 -0.186571
O11   O     O_R   0.731800 0.046750 0.952380 -0.535019
O12   O     O_R   0.399050 0.064920 0.059460 -0.519577
O13   O     O_R   0.225670 0.953300 0.047660 -0.524597
C45   C     C_R   0.568014 0.083344 0.081408 0.725270
O14   O     O_R   0.402270 0.053620 0.953470 -0.526126
O15   O     O_R   0.228900 0.941920 0.940910 -0.518886
C46   C     C_R   0.570902 0.066970 0.938152 0.758252
O16   O     O_R   0.728560 0.058130 0.059130 -0.526035
O17   O     O_3   0.561250 0.963410 0.996040 -0.346486
V3    V     V_3+5 0.287590 0.006790 0.000740 1.492858
O18   O     O_R   0.898990 0.935020 0.940500 -0.524784
C47   C     C_R   0.067862 0.916653 0.918589 0.723796
O19   O     O_R   0.895770 0.946320 0.046490 -0.530163
C48   C     C_R   0.064972 0.932952 0.061964 0.718046
V4    V     V_3+5 0.787210 0.993120 0.999190 1.477380
O20   O     O_3   0.063420 0.036580 0.003960 -0.353443
I1    I     I_    0.464601 0.840869 0.042794 -0.379692
O21   O     O_3   0.965996 0.316267 0.674123 -0.529702
C49   C     C_3   0.993072 0.258122 0.636806 -0.170296
H8    H     H_    0.027143 0.261276 0.594441 0.120131
H9    H     H_    0.867085 0.227894 0.634791 0.129597
H10   H     H_    0.115473 0.236152 0.651362 0.189066
O22   O     O_3   0.980882 0.407560 0.622813 -0.500349
C50   C     C_3   0.011595 0.456969 0.670124 -0.087994
H11   H     H_    0.025871 0.442121 0.708372 0.143574
H12   H     H_    0.895105 0.490956 0.675189 0.073824
H13   H     H_    0.148251 0.479290 0.664545 0.140908
O23   O     O_3   0.337713 0.242021 0.880500 -0.537725
C51   C     C_3   0.150656 0.224517 0.860564 -0.093034
H14   H     H_    0.149837 0.204185 0.814806 0.175327
H15   H     H_    0.058788 0.265216 0.869949 0.190325
H16   H     H_    0.084692 0.192604 0.881051 0.140401
I2    I     I_    0.299332 0.190837 0.985710 -0.331228
I3    I     I_    0.883097 0.097886 0.746670 -0.395242
O24   O     O_3   0.425601 0.728157 0.363462 -0.528235
C52   C     C_3   0.371640 0.785553 0.397532 -0.135328
H17   H     H_    0.491998 0.817384 0.398755 0.171958
H18   H     H_    0.343196 0.784968 0.441024 0.140050
H19   H     H_    0.244108 0.803088 0.380547 0.118901
I4    I     I_    0.540909 0.666242 0.454416 -0.364924
O25   O     O_3   0.308341 0.368796 0.576259 -0.499181
C53   C     C_3   0.309293 0.319980 0.527439 -0.122065
H20   H     H_    0.307949 0.275955 0.537093 0.093982
H21   H     H_    0.434730 0.322553 0.500717 0.084419
H22   H     H_    0.177365 0.322218 0.503338 0.148518

loop_
_geom_bond_atom_site_label_1
_geom_bond_atom_site_label_2
_ccdc_geom_bond_type
C31   N7    A    
C19   O24   S    
C16   C48   S    
C25   O25   S    
C14   C15   A    
C33   O23   S    
C22   H4    S    
C50   H11   S    
C1    O6    A    
N8    C32   A    
C50   H13   S    
C37   I3    S    
C26   C27   A    
N5    N6    A    
C13   C14   A    
C15   H3    S    
C1    C30   S    
N4    C18   A    
O19   V4    S    
C17   N3    A    
C42   C43   S    
O5    C3    A    
C19   C20   A    
O24   C52   S    
O15   C47   A    
V2    O10   S    
C25   C30   A    
N7    N8    A    
C6    C7    S    
C19   C24   A    
O11   C46   A    
C25   C26   A    
O8    V2    S    
C26   H6    S    
C41   C42   T    
C36   C37   A    
C52   H17   S    
C43   C44   T    
O1    V2    S    
O7    V1    S    
C53   H22   S    
C20   I4    S    
C39   C40   T    
C33   C34   A    
O9    C4    A    
C22   C23   A    
C4    C5    S    
O22   C50   S    
O12   V3    S    
O25   C53   S    
C31   C38   S    
C5    C6    T    
C40   C41   S    
C12   H1    S    
C20   C21   A    
O4    C2    A    
V4    O20   S    
C28   C29   A    
O18   V4    S    
C51   H16   S    
C27   C32   S    
C29   C30   A    
C34   C35   A    
N3    N4    A    
C11   C16   A    
C3    C21   S    
O2    C1    A    
C23   H5    S    
C36   H7    S    
C28   O21   S    
C49   H9    S    
O23   C51   S    
O15   V3    S    
C35   C46   S    
C11   C12   A    
C51   H15   S    
N2    C17   A    
C34   I2    S    
C17   C24   S    
N1    C18   A    
O19   C48   A    
C23   C24   A    
V3    O20   S    
O3    C4    A    
C21   C22   A    
O18   C47   A    
O6    V2    S    
C11   I1    S    
O9    V2    S    
C52   H19   S    
O12   C45   A    
O13   V3    S    
O2    V1    S    
C49   H10   S    
C53   H20   S    
N6    C31   A    
O1    C2    A    
C12   C13   A    
O14   C46   A    
O17   V3    S    
O14   V3    S    
O5    V1    S    
O11   V4    S    
N5    C32   A    
C50   H12   S    
C13   C18   S    
O17   V4    S    
N1    N2    A    
C7    C8    T    
O7    V2    S    
O4    V1    S    
C15   C16   A    
O3    V1    S    
V1    O10   S    
C10   C47   S    
C2    C39   S    
C44   C45   S    
C49   H8    S    
C52   H18   S    
C37   C38   A    
C51   H14   S    
O13   C48   A    
C35   C36   A    
C29   O22   S    
C8    C9    S    
C27   C28   A    
C14   H2    S    
O21   C49   S    
C9    C10   T    
C45   O16   A    
O16   V4    S    
C33   C38   A    
O8    C3    A    
C53   H21   S    
