data_mof_unit_15617.cif
_audit_creation_date              2012-12-11T19:38:35-0500
_audit_creation_method            fapswitch 2.2
_symmetry_space_group_name_H-M    P1
_symmetry_Int_Tables_number       1
_space_group_crystal_system       triclinic
_cell_length_a                    8.43993
_cell_length_b                    15.241075
_cell_length_c                    22.621714
_cell_angle_alpha                 97.795826
_cell_angle_beta                  88.84541
_cell_angle_gamma                 99.562229
_cell_volume                      2842.95263314

loop_
_atom_site_label
_atom_site_type_symbol
_atom_type_description
_atom_site_fract_x
_atom_site_fract_y
_atom_site_fract_z
_atom_type_partial_charge
Ba1   Ba    Ba6+2 0.856850 0.543240 0.473390 1.782954
Ba2   Ba    Ba6+2 0.332990 0.456830 0.526620 1.761080
C1    C     C_3   0.636082 0.842871 0.293872 0.235408
C2    C     C_R   0.114184 0.571463 0.940624 -0.009965
C3    C     C_R   0.062176 0.572159 0.881447 0.564725
C4    C     C_3   0.125213 0.802912 0.319838 0.761467
C5    C     C_R   0.902041 0.427158 0.882094 0.616589
C6    C     C_R   0.956232 0.422936 0.940298 -0.074927
C7    C     C_R   0.063198 0.495361 0.969689 -0.046704
C8    C     C_R   0.215708 0.645247 0.971515 -0.088315
C9    C     C_R   0.265230 0.643575 0.029897 -0.067211
C10   C     C_R   0.217324 0.567432 0.059081 -0.015403
C11   C     C_R   0.116928 0.492493 0.028687 -0.116456
C12   C     C_3   0.637842 0.762842 0.327881 0.635878
C13   C     C_R   0.905477 0.347384 0.969522 -0.159359
C14   C     C_R   0.962443 0.341936 0.026885 0.421380
C15   C     C_R   0.069923 0.415109 0.057110 -0.040343
C16   C     C_3   0.133652 0.878405 0.278559 0.988107
C17   C     C_R   0.131531 0.413360 0.115055 0.625282
C18   C     C_R   0.266263 0.565500 0.118235 0.633974
C19   C     C_2   0.765900 0.478170 0.769785 -0.016565
C20   C     C_3   0.725284 0.478154 0.704569 0.060721
C21   C     C_1   0.010250 0.512745 0.685247 0.091444
C22   C     C_2   0.050261 0.513966 0.742167 -0.123355
C23   C     C_3   0.445009 0.315004 0.342363 0.393806
C24   C     C_2   0.921320 0.496905 0.788630 0.214435
C25   C     C_R   0.434781 0.517928 0.226601 0.379414
C26   C     C_R   0.472662 0.529816 0.288592 -0.091980
C27   C     C_R   0.198459 0.467596 0.311385 -0.000434
C28   C     C_3   0.180554 0.755330 0.619313 0.694708
C29   C     C_R   0.157170 0.460985 0.250766 -0.214992
C30   C     C_R   0.273108 0.488162 0.207784 0.187422
C31   C     C_2   0.870007 0.467546 0.665549 -0.205916
C32   C     C_R   0.850617 0.167278 0.529511 -0.053336
C33   C     C_R   0.788824 0.073839 0.523494 -0.030687
C34   C     C_3   0.381398 0.272221 0.280733 0.337894
C35   C     C_R   0.659079 0.886173 0.513140 -0.116547
C36   C     C_R   0.803820 0.922063 0.543449 -0.070318
C37   C     C_R   0.868738 0.013188 0.547747 -0.091347
C38   C     C_R   0.590906 0.792877 0.508694 0.057976
C39   C     C_R   0.447589 0.761746 0.476532 0.261925
C40   C     C_3   0.109051 0.840003 0.646884 0.277407
C41   C     C_R   0.616024 0.193618 0.477552 0.089780
C42   C     C_R   0.553591 0.100162 0.469469 -0.031676
C43   C     C_R   0.640274 0.040196 0.493467 -0.041886
C44   C     C_R   0.404528 0.064445 0.440891 0.430140
C45   C     C_3   0.930844 0.230565 0.674308 0.476164
C46   C     C_R   0.339093 0.974947 0.441772 -0.134885
C47   C     C_R   0.424646 0.914186 0.461628 -0.078934
C48   C     C_R   0.576483 0.946413 0.488287 0.009807
C49   C     C_R   0.359954 0.822097 0.455456 0.027134
C50   C     C_R   0.762540 0.225125 0.507009 -0.265377
C51   C     C_3   0.878647 0.259848 0.337817 0.683659
C52   C     C_3   0.894453 0.231710 0.270374 0.197875
C53   C     C_3   0.658393 0.664349 0.659947 0.711001
C54   C     C_3   0.568542 0.686802 0.719269 0.567324
C55   C     C_3   0.897230 0.900014 0.690283 0.218073
C56   C     C_3   0.927618 0.205409 0.737950 1.000940
C57   C     C_3   0.945544 0.139457 0.381403 0.179306
C58   C     C_3   0.465461 0.632632 0.805854 0.168131
C59   C     C_3   0.450338 0.210274 0.187276 0.222878
C60   C     C_3   0.084114 0.223388 0.825151 0.184772
C61   C     C_3   0.467037 0.138217 0.615694 0.300474
C62   C     C_3   0.326352 0.035829 0.782542 0.117406
C63   C     C_3   0.113194 0.663410 0.263634 0.248596
C64   C     C_3   0.225443 0.853193 0.177714 0.184996
C65   C     C_3   0.001457 0.993488 0.256383 0.128354
C66   C     C_3   0.432401 0.853468 0.637206 0.058392
C67   C     C_3   0.421358 0.232742 0.703191 0.744985
C68   C     C_3   0.440673 0.166636 0.747277 0.256971
C69   C     C_R   0.354382 0.504540 0.329603 -0.340092
H1    H     H_    0.714576 0.784652 0.368335 0.060060
H2    H     H_    0.342941 0.336203 0.368970 -0.047825
H3    H     H_    0.538590 0.374296 0.338145 -0.036963
H4    H     H_    0.321198 0.320665 0.260851 -0.064045
H5    H     H_    0.291709 0.211473 0.286294 0.018245
H6    H     H_    0.748840 0.856635 0.268588 0.097993
H7    H     H_    0.953699 0.304880 0.677086 -0.047357
H8    H     H_    0.811448 0.203723 0.653654 -0.113873
H9    H     H_    0.331080 0.271623 0.723769 0.088963
H10   H     H_    0.548560 0.135150 0.735227 0.054844
H11   H     H_    0.459100 0.205149 0.792789 0.009987
H12   H     H_    0.174982 0.869990 0.688909 -0.004264
H13   H     H_    0.822267 0.291307 0.947332 0.098680
H14   H     H_    0.342472 0.702246 0.052046 0.104846
H15   H     H_    0.256904 0.704884 0.950692 0.108818
H16   H     H_    0.175526 0.523272 0.754803 0.109886
H17   H     H_    0.668727 0.468930 0.801671 0.103801
H18   H     H_    0.033540 0.439395 0.237400 0.177691
H19   H     H_    0.385752 0.511640 0.376310 0.096251
H20   H     H_    0.250609 0.792987 0.325039 -0.134524
H21   H     H_    0.857244 0.430038 0.621051 0.036116
H22   H     H_    0.868634 0.880543 0.564936 0.140391
H23   H     H_    0.126200 0.888726 0.613821 -0.012350
H24   H     H_    0.981400 0.035468 0.571301 0.106384
H25   H     H_    0.219394 0.954170 0.424987 0.083920
H26   H     H_    0.810392 0.296181 0.511834 0.051480
H27   H     H_    0.109139 0.724364 0.579144 0.068576
H28   H     H_    0.931452 0.957672 0.664880 0.014646
H29   H     H_    0.947204 0.916237 0.736288 0.056279
H30   H     H_    0.765049 0.890138 0.693918 0.125152
H31   H     H_    0.006815 0.176184 0.422576 0.092841
H32   H     H_    0.035742 0.134513 0.345324 0.015782
H33   H     H_    0.894470 0.070866 0.390485 0.072835
H34   H     H_    0.784449 0.301886 0.344612 0.091479
H35   H     H_    0.851412 0.272375 0.196178 0.355668
H36   H     H_    0.859430 0.682809 0.706060 0.314052
H37   H     H_    0.711934 0.939769 0.356200 0.307569
H38   H     H_    0.729723 0.757071 0.775793 0.309533
H39   H     H_    0.355603 0.659668 0.796364 0.095847
H40   H     H_    0.538681 0.679641 0.840620 0.070098
H41   H     H_    0.426895 0.568508 0.824141 0.064101
H42   H     H_    0.423804 0.700660 0.308335 0.251614
H43   H     H_    0.396738 0.259191 0.164955 0.072874
H44   H     H_    0.361359 0.148140 0.189597 0.013720
H45   H     H_    0.809741 0.168224 0.256742 0.077649
H46   H     H_    0.552067 0.191257 0.159386 0.070283
H47   H     H_    0.295291 0.967051 0.324195 0.305420
H48   H     H_    0.204229 0.253962 0.843794 0.044592
H49   H     H_    0.072257 0.149716 0.825047 0.077177
H50   H     H_    0.994335 0.250548 0.855495 0.069583
H51   H     H_    0.764508 0.201589 0.800296 0.306560
H52   H     H_    0.008118 0.092328 0.721111 0.330319
H53   H     H_    0.571819 0.183908 0.601196 0.000503
H54   H     H_    0.404113 0.099619 0.575604 0.053357
H55   H     H_    0.505156 0.087490 0.640599 -0.022275
H56   H     H_    0.018446 0.219716 0.259096 -0.006903
H57   H     H_    0.356435 0.067188 0.829165 0.035092
H58   H     H_    0.421368 0.997511 0.763850 0.049860
H59   H     H_    0.213221 0.987412 0.784024 0.070436
H60   H     H_    0.161247 0.629185 0.297510 -0.008238
H61   H     H_    0.212925 0.695184 0.237017 0.033794
H62   H     H_    0.033783 0.614116 0.232178 0.095720
H63   H     H_    0.837009 0.222206 0.027338 0.286561
H64   H     H_    0.658091 0.544682 0.201226 0.320231
H65   H     H_    0.223755 0.079480 0.392605 0.271594
H66   H     H_    0.366350 0.652071 0.427998 0.301378
H67   H     H_    0.588153 0.602962 0.635517 -0.003730
H68   H     H_    0.253047 0.925983 0.173492 0.057356
H69   H     H_    0.186623 0.816824 0.133197 0.060521
H70   H     H_    0.334266 0.828093 0.190525 0.080260
H71   H     H_    0.966121 0.959013 0.210993 0.085811
H72   H     H_    0.113931 0.042742 0.254672 0.055580
H73   H     H_    0.902353 0.030418 0.271263 0.066183
H74   H     H_    0.430550 0.843364 0.684929 0.086013
H75   H     H_    0.392863 0.917396 0.630714 0.011085
H76   H     H_    0.558205 0.865000 0.623143 0.084355
H77   H     H_    0.446036 0.694702 0.706514 0.054668
H78   H     H_    0.538070 0.826431 0.260285 0.086883
N1    N     N_R   0.962433 0.498698 0.851604 -0.419867
N2    N     N_R   0.224517 0.488767 0.145876 -0.424288
O1    O     O_2   0.889550 0.449610 0.359390 -0.476032
O2    O     O_2   0.184424 0.177907 0.536275 -0.449699
O3    O     O_3   0.051567 0.193865 0.640532 -0.594835
O4    O     O_3   0.130110 0.450560 0.430470 -0.450904
O5    O     O_3   0.576420 0.610430 0.532020 -0.436063
O6    O     O_2   0.341600 0.276000 0.466340 -0.414771
O7    O     O_3   0.513315 0.251603 0.367910 -0.581177
O8    O     O_2   0.388234 0.421039 0.708096 -0.508400
O9    O     O_3   0.569055 0.289556 0.696640 -0.677674
O10   O     O_2   0.102714 0.639084 0.857069 -0.623114
O11   O     O_2   0.800483 0.366837 0.858693 -0.582790
O12   O     O_3   0.671230 0.738069 0.628347 -0.622707
O13   O     O_2   0.104335 0.344204 0.137799 -0.551453
O14   O     O_2   0.345328 0.632845 0.145254 -0.594749
O15   O     O_3   0.674110 0.616450 0.398780 -0.461421
O16   O     O_2   0.807853 0.548822 0.296587 -0.468421
O17   O     O_3   0.026648 0.304998 0.363522 -0.689265
O18   O     O_3   0.702470 0.695832 0.290616 -0.586850
O19   O     O_2   0.848090 0.724020 0.533700 -0.463623
O20   O     O_3   0.092920 0.663620 0.428750 -0.443713
O21   O     O_2   0.058388 0.818759 0.488431 -0.504928
O22   O     O_3   0.945823 0.820936 0.660725 -0.632341
O23   O     O_3   0.060658 0.828074 0.376442 -0.631166
O24   O     O_3   0.820131 0.182854 0.365822 -0.690971
O25   O     O_3   0.855818 0.298207 0.238913 -0.724922
O26   O     O_3   0.812809 0.646617 0.668980 -0.778321
O27   O     O_3   0.611336 0.918976 0.332867 -0.709824
O28   O     O_3   0.641799 0.768964 0.751119 -0.774316
O29   O     O_3   0.558236 0.615774 0.754205 -0.710124
O30   O     O_3   0.480655 0.731998 0.345017 -0.825582
O31   O     O_3   0.509707 0.248804 0.244377 -0.610734
O32   O     O_3   0.287898 0.932084 0.284024 -0.769399
O33   O     O_3   0.073836 0.246833 0.767119 -0.663502
O34   O     O_2   0.300150 0.550420 0.640640 -0.499570
O35   O     O_3   0.798130 0.238411 0.767815 -0.722774
O36   O     O_3   0.905035 0.111123 0.734649 -0.810924
O37   O     O_3   0.358588 0.187751 0.647583 -0.599077
O38   O     O_3   0.302079 0.100331 0.745964 -0.656518
O39   O     O_3   0.023061 0.725441 0.293063 -0.614707
O40   O     O_3   0.911574 0.266364 0.054255 -0.693699
O41   O     O_3   0.549733 0.535289 0.183487 -0.684171
O42   O     O_3   0.321728 0.116161 0.411553 -0.706227
O43   O     O_3   0.385898 0.671903 0.471006 -0.698171
O44   O     O_3   0.099171 0.835477 0.218591 -0.660422
O45   O     O_3   0.059600 0.549520 0.569540 -0.475148
O46   O     O_3   0.015075 0.932372 0.297158 -0.686576
O47   O     O_3   0.343234 0.778462 0.600850 -0.718612
O48   O     O_3   0.515600 0.383630 0.601220 -0.462555
O49   O     O_3   0.172046 0.694134 0.661286 -0.651694
O50   O     O_3   0.613290 0.389640 0.467990 -0.503761
O51   O     O_3   0.096790 0.336450 0.571260 -0.471396
P1    P     P_3+3 0.056000 0.422550 0.367550 1.005080
P2    P     P_3+3 0.670460 0.710570 0.550500 1.096760
P3    P     P_3+3 0.146611 0.780847 0.433137 0.997750
P4    P     P_3+3 0.133720 0.577520 0.632450 1.060683
P5    P     P_3+3 0.044187 0.219224 0.567488 0.997036
P6    P     P_3+3 0.664362 0.593854 0.320124 1.041178
P7    P     P_3+3 0.522317 0.277993 0.445577 1.055443
P8    P     P_3+3 0.544432 0.395415 0.678256 0.978376

loop_
_geom_bond_atom_site_label_1
_geom_bond_atom_site_label_2
_ccdc_geom_bond_type
C28   O49   S    
C53   C54   S    
O6    P7    D    
Ba2   O4    S    
C27   P1    S    
C56   O35   S    
C50   H26   S    
Ba2   O51   S    
C45   H8    S    
C19   C24   D    
C65   H72   S    
C12   O30   S    
O18   P6    S    
C64   O44   S    
C5    C6    A    
C64   H70   S    
C51   C52   S    
C18   O14   D    
C30   N2    S    
C59   O31   S    
C39   O43   S    
C53   H67   S    
C57   H33   S    
C43   C48   A    
C56   O33   S    
O21   P3    D    
C34   H4    S    
C1    O27   S    
C22   C24   S    
C32   C33   A    
C35   C38   A    
C57   O24   S    
C36   C37   A    
C41   C50   A    
H51   O35   S    
C13   C14   A    
C55   H28   S    
Ba1   O19   S    
C67   O9    S    
Ba1   O1    S    
C66   O47   S    
Ba1   Ba2   S    
C52   O25   S    
Ba1   O4    S    
C68   H10   S    
C7    C11   A    
C34   H5    S    
O2    P5    D    
H42   O30   S    
C64   H68   S    
C38   P2    S    
C14   C15   A    
C29   H18   S    
C52   H45   S    
C59   H44   S    
O23   P3    S    
C17   N2    Am   
C21   C22   D    
O1    P1    D    
Ba2   P4    S    
O20   P3    S    
O19   P2    D    
O3    P5    S    
C25   C26   A    
O7    P7    S    
C25   C30   A    
C19   H17   S    
Ba1   O50   S    
C55   H30   S    
C19   C20   S    
H36   O26   S    
O45   P4    S    
C53   O26   S    
C10   C18   A    
Ba2   O50   S    
O15   P6    S    
C12   O18   S    
O4    P1    S    
C65   H73   S    
O50   P7    S    
C63   O39   S    
C63   H60   S    
C42   C44   A    
C61   H53   S    
C4    C16   S    
C5    O11   D    
C44   C46   A    
O12   P2    S    
C1    H78   S    
C59   H46   S    
Ba2   O48   S    
C24   N1    S    
Ba1   O45   S    
C21   C31   D    
C31   H21   S    
C6    C7    A    
C4    O23   S    
C47   C49   A    
H47   O32   S    
C55   H29   S    
Ba1   O20   S    
C3    N1    Am   
Ba2   O45   S    
C3    O10   D    
H63   O40   S    
C54   H77   S    
Ba1   O5    S    
C33   C37   A    
C41   C42   A    
C33   C43   A    
C35   C36   A    
C58   H41   S    
C14   O40   S    
C5    N1    Am   
H38   O28   S    
C51   O17   S    
C29   C30   A    
O5    P2    S    
C4    O39   S    
C16   O46   S    
C62   H57   S    
H37   O27   S    
C10   C11   A    
C16   O32   S    
O8    P8    D    
C67   O37   S    
C37   H24   S    
C60   H48   S    
C61   H54   S    
C66   H76   S    
C41   P7    S    
C55   O22   S    
C46   C47   A    
C28   O47   S    
C62   H59   S    
C61   O37   S    
C6    C13   A    
O51   P5    S    
C21   P4    S    
C26   P6    S    
C26   C69   A    
C34   O31   S    
C25   O41   S    
C2    C8    A    
C1    H6    S    
C23   O7    S    
C63   H61   S    
C66   H75   S    
C42   C43   A    
C51   O24   S    
C44   O42   S    
C54   O29   S    
C20   C31   S    
H66   O43   S    
C8    H15   S    
Ba2   O5    S    
C46   H25   S    
C16   O44   S    
C40   H23   S    
C57   H31   S    
C12   H1    S    
O34   P4    D    
C40   H12   S    
C2    C3    A    
C65   O46   S    
C40   O22   S    
C9    C10   A    
C49   P3    S    
C13   H13   S    
C45   O3    S    
C1    C12   S    
C32   P5    S    
C58   O29   S    
O9    P8    S    
C52   H56   S    
C28   H27   S    
C32   C50   A    
C18   N2    Am   
C11   C15   A    
C62   O38   S    
C23   H3    S    
C57   H32   S    
O16   P6    D    
O48   P8    S    
Ba2   O34   S    
C53   O12   S    
C60   H49   S    
C27   C29   A    
C58   H40   S    
C45   C56   S    
C35   C48   A    
C65   H71   S    
C69   H19   S    
Ba1   O15   S    
C9    H14   S    
Ba2   O6    S    
C20   P8    S    
C36   H22   S    
C15   C17   A    
C23   H2    S    
C17   O13   D    
H52   O36   S    
C67   C68   S    
C68   H11   S    
C22   H16   S    
O49   P4    S    
H64   O41   S    
C61   H55   S    
C58   H39   S    
C8    C9    A    
C23   C34   S    
C60   O33   S    
O17   P1    S    
C51   H34   S    
H65   O42   S    
C64   H69   S    
C62   H58   S    
C56   O36   S    
C47   C48   A    
C59   H43   S    
H35   O25   S    
C28   C40   S    
C67   H9    S    
C38   C39   A    
C45   H7    S    
C2    C7    A    
Ba1   P2    S    
C39   C49   A    
C60   H50   S    
C63   H62   S    
C66   H74   S    
C4    H20   S    
C68   O38   S    
C27   C69   A    
C54   O28   S    
Ba1   P1    S    
