data_mof_unit_35237.cif
_audit_creation_date              2012-12-10T19:24:10-0500
_audit_creation_method            fapswitch 2.2
_symmetry_space_group_name_H-M    P1
_symmetry_Int_Tables_number       1
_space_group_crystal_system       triclinic
_cell_length_a                    10.497088
_cell_length_b                    10.494116
_cell_length_c                    9.845487
_cell_angle_alpha                 90.5687
_cell_angle_beta                  87.486425
_cell_angle_gamma                 90.065089
_cell_volume                      1083.45866569

loop_
_atom_site_label
_atom_site_type_symbol
_atom_type_description
_atom_site_fract_x
_atom_site_fract_y
_atom_site_fract_z
_atom_type_partial_charge
C1    C     C_R   0.499496 0.258010 0.499363 0.909472
C2    C     C_3   0.613924 0.492781 0.041737 0.043801
C3    C     C_R   0.257680 0.500974 0.502484 0.905717
C4    C     C_R   0.742320 0.499026 0.497516 0.905718
C5    C     C_3   0.030900 0.516909 0.630100 -0.098198
C6    C     C_3   0.969100 0.483089 0.369900 -0.098168
C7    C     C_3   0.952857 0.404073 0.576145 -0.164017
C8    C     C_3   0.047143 0.595925 0.423855 -0.163999
C9    C     C_3   0.877775 0.498676 0.493960 -0.017243
C10   C     C_3   0.122225 0.501322 0.506040 -0.017245
C11   C     C_3   0.953290 0.611408 0.547900 -0.126078
C12   C     C_R   0.500505 0.741989 0.500636 0.909472
C13   C     C_3   0.046710 0.388590 0.452100 -0.126081
C14   C     C_3   0.599706 0.044787 0.568096 -0.270545
C15   C     C_3   0.400295 0.955213 0.431903 -0.270545
C16   C     C_3   0.608595 0.959181 0.440332 0.048113
C17   C     C_3   0.391406 0.040819 0.559667 0.048121
C18   C     C_3   0.501385 0.876945 0.501556 0.013213
C19   C     C_3   0.498616 0.123055 0.498444 0.013213
C20   C     C_2   0.732300 0.916333 0.373136 0.360123
C21   C     C_2   0.267701 0.083666 0.626863 0.360111
C22   C     C_2   0.366691 0.292718 0.108921 0.536158
C23   C     C_3   0.491040 0.960532 0.630227 -0.216855
C24   C     C_2   0.633308 0.707282 0.891078 0.536177
C25   C     C_2   0.254323 0.521599 0.910204 0.492009
C26   C     C_2   0.745679 0.478420 0.089796 0.492065
C27   C     C_3   0.508961 0.039468 0.369772 -0.216853
C28   C     C_3   0.436831 0.404859 0.049939 0.062315
C29   C     C_3   0.563168 0.595141 0.950061 0.062296
C30   C     C_3   0.551192 0.396393 0.947358 -0.274106
C31   C     C_3   0.448808 0.603607 0.052642 -0.274074
C32   C     C_3   0.386077 0.507220 0.958263 0.043825
H1    H     H_    0.910342 0.325335 0.637582 0.154033
H2    H     H_    0.517327 0.074324 0.263696 0.138301
H3    H     H_    0.594449 0.309611 0.899247 0.143364
H4    H     H_    0.405552 0.690389 0.100753 0.143361
H5    H     H_    0.799622 0.986858 0.334027 0.055643
H6    H     H_    0.200379 0.013140 0.665971 0.055645
H7    H     H_    0.401675 0.197142 0.087454 -0.015992
H8    H     H_    0.598324 0.802858 0.912544 -0.015990
H9    H     H_    0.229300 0.607188 0.856704 0.013201
H10   H     H_    0.770727 0.392814 0.143251 0.013167
H11   H     H_    0.089658 0.674664 0.362417 0.154037
H12   H     H_    0.054767 0.532515 0.736971 0.197053
H13   H     H_    0.945234 0.467482 0.263028 0.197053
H14   H     H_    0.911118 0.702610 0.586136 0.191343
H15   H     H_    0.088882 0.297389 0.413863 0.191343
H16   H     H_    0.681134 0.085116 0.622681 0.141270
H17   H     H_    0.318867 0.914884 0.377319 0.141271
H18   H     H_    0.482674 0.925675 0.736303 0.138300
N1    N     N_3   0.499910 0.500030 0.863290 -0.119793
N2    N     N_3   0.500090 0.499970 0.136710 -0.119782
O1    O     O_R   0.500010 0.313960 0.616610 -0.597012
O2    O     O_2   0.241783 0.196672 0.637963 -0.556700
O3    O     O_2   0.270477 0.308078 0.181176 -0.541575
O4    O     O_2   0.729523 0.691922 0.818826 -0.541587
O5    O     O_2   0.174507 0.439040 0.932906 -0.538416
O6    O     O_2   0.825466 0.561017 0.067148 -0.538402
O7    O     O_R   0.499990 0.686040 0.383390 -0.597010
O8    O     O_R   0.500060 0.313950 0.383350 -0.648090
O9    O     O_R   0.499940 0.686050 0.616650 -0.648092
O10   O     O_R   0.313930 0.499970 0.616610 -0.625245
O11   O     O_R   0.686070 0.500030 0.383390 -0.625228
O12   O     O_R   0.313980 0.499960 0.383350 -0.580861
O13   O     O_R   0.686020 0.500040 0.616650 -0.580866
O14   O     O_2   0.758218 0.803327 0.362038 -0.556682
Zn1   Zn    Zn3+2 0.499970 0.500010 0.655740 0.985504
Zn2   Zn    Zn3+2 0.500030 0.499990 0.344260 0.985521

loop_
_geom_bond_atom_site_label_1
_geom_bond_atom_site_label_2
_ccdc_geom_bond_type
C15   C18   S    
C30   N1    S    
C12   O9    A    
C6    H13   S    
C8    H11   S    
C31   N2    S    
C6    C9    S    
C3    O12   A    
C4    O11   A    
C17   C23   S    
C30   H3    S    
C2    C29   S    
O12   Zn2   S    
C20   O14   D    
C5    C11   S    
C21   O2    D    
C15   C17   S    
C1    O1    A    
C24   C29   S    
C17   C19   S    
C12   O7    A    
C21   H6    S    
O13   Zn1   S    
C19   C27   S    
N2    Zn2   S    
C16   C27   S    
C22   C28   S    
C7    H1    S    
C25   O5    D    
C27   H2    S    
C1    C19   S    
C18   C23   S    
C28   C32   S    
C1    O8    A    
C25   H9    S    
C5    C7    S    
C23   H18   S    
C14   H16   S    
C17   C21   S    
C14   C23   S    
C32   N1    S    
O7    Zn2   S    
C26   O6    D    
O9    Zn1   S    
C15   C27   S    
C31   C32   S    
C16   C20   S    
C2    C26   S    
N1    Zn1   S    
C9    C11   S    
C2    N2    S    
O10   Zn1   S    
C8    C10   S    
C5    H12   S    
C14   C16   S    
C26   H10   S    
C13   H15   S    
C29   N1    S    
C3    O10   A    
C7    C9    S    
O11   Zn2   S    
C14   C19   S    
C10   C13   S    
C6    C8    S    
C22   O3    D    
C24   O4    D    
C2    C30   S    
C28   C30   S    
C5    C10   S    
C29   C31   S    
C3    C10   S    
C6    C13   S    
C20   H5    S    
C28   N2    S    
C4    O13   A    
C25   C32   S    
C8    C11   S    
C22   H7    S    
C24   H8    S    
C15   H17   S    
O1    Zn1   S    
C7    C13   S    
O8    Zn2   S    
C16   C18   S    
C12   C18   S    
C31   H4    S    
C11   H14   S    
C4    C9    S    
