data_mof_unit_12268.cif
_audit_creation_date              2012-12-10T17:31:21-0500
_audit_creation_method            fapswitch 2.2
_symmetry_space_group_name_H-M    P1
_symmetry_Int_Tables_number       1
_space_group_crystal_system       triclinic
_cell_length_a                    19.687284
_cell_length_b                    19.179712
_cell_length_c                    12.387424
_cell_angle_alpha                 89.998765
_cell_angle_beta                  130.090663
_cell_angle_gamma                 90.296553
_cell_volume                      3578.2889139

loop_
_atom_site_label
_atom_site_type_symbol
_atom_type_description
_atom_site_fract_x
_atom_site_fract_y
_atom_site_fract_z
_atom_type_partial_charge
C1    C     C_R   0.608851 0.896891 0.649388 0.859128
C2    C     C_R   0.607858 0.103702 0.648383 0.860772
C3    C     C_R   0.108851 0.396892 0.649388 0.859130
C4    C     C_R   0.107858 0.603702 0.648383 0.860772
C5    C     C_R   0.236137 0.775876 0.037138 -0.117108
C6    C     C_R   0.233382 0.213554 0.018304 -0.123053
C7    C     C_R   0.736137 0.275875 0.037138 -0.117108
C8    C     C_R   0.733381 0.713553 0.018303 -0.123051
C9    C     C_R   0.671210 0.257900 0.047806 -0.239943
C10   C     C_R   0.660657 0.719647 0.015258 -0.234366
C11   C     C_R   0.171209 0.757900 0.047806 -0.239942
C12   C     C_R   0.160657 0.219647 0.015258 -0.234363
C13   C     C_R   0.592243 0.226004 0.930316 0.418352
C14   C     C_R   0.588630 0.762029 0.912781 0.473661
C15   C     C_R   0.092242 0.726004 0.930315 0.418351
C16   C     C_R   0.088629 0.262028 0.912777 0.473670
C17   C     C_R   0.585176 0.203890 0.814734 0.471483
C18   C     C_R   0.584344 0.792288 0.806257 0.466217
C19   C     C_R   0.085176 0.703890 0.814734 0.471482
C20   C     C_R   0.084344 0.292287 0.806255 0.466217
C21   C     C_R   0.291644 0.833148 0.117667 0.495671
C22   C     C_R   0.311690 0.180658 0.136277 0.483484
C23   C     C_R   0.791644 0.333147 0.117667 0.495670
C24   C     C_R   0.811689 0.680658 0.136276 0.483485
C25   C     C_R   0.255589 0.823640 0.270136 0.351020
C26   C     C_R   0.236687 0.149608 0.227274 0.288533
C27   C     C_R   0.755590 0.323639 0.270137 0.351022
C28   C     C_R   0.736686 0.649607 0.227272 0.288534
C29   C     C_R   0.663467 0.167182 0.726268 -0.239466
C30   C     C_R   0.661975 0.831615 0.720092 -0.258431
C31   C     C_R   0.163467 0.667182 0.726268 -0.239466
C32   C     C_R   0.161975 0.331615 0.720093 -0.258429
C33   C     C_R   0.683300 0.997859 0.291370 -0.409087
C34   C     C_R   0.183300 0.497858 0.291370 -0.409087
C35   C     C_R   0.345620 0.988076 0.624652 0.603308
C36   C     C_R   0.845620 0.488077 0.624652 0.603309
C37   C     C_R   0.317859 0.966209 0.700796 0.172780
C38   C     C_R   0.817859 0.466210 0.700796 0.172777
C39   C     C_R   0.385211 0.098284 0.341625 0.872280
C40   C     C_R   0.383140 0.902556 0.340302 0.859727
C41   C     C_R   0.885211 0.598284 0.341624 0.872279
C42   C     C_R   0.883140 0.402556 0.340302 0.859730
C43   C     C_R   0.380261 0.964201 0.848764 0.316275
C44   C     C_R   0.880261 0.464203 0.848764 0.316275
C45   C     C_R   0.467320 0.990556 0.922800 -0.144646
C46   C     C_R   0.967320 0.490558 0.922800 -0.144646
C47   C     C_R   0.495513 0.999610 0.843461 0.057242
C48   C     C_R   0.995513 0.499611 0.843461 0.057236
C49   C     C_R   0.530114 0.998817 0.073848 -0.129007
C50   C     C_R   0.030114 0.498817 0.073848 -0.129004
C51   C     C_R   0.621587 0.000504 0.143735 -0.008676
C52   C     C_R   0.121587 0.500503 0.143735 -0.008675
C53   C     C_R   0.650287 0.003621 0.065329 0.355411
C54   C     C_R   0.150287 0.503620 0.065329 0.355416
C55   C     C_R   0.587250 0.004382 0.917309 -0.237118
C56   C     C_R   0.087250 0.504381 0.917309 -0.237115
C57   C     C_R   0.504984 0.006825 0.157733 0.493275
C58   C     C_R   0.004984 0.506825 0.157733 0.493278
C59   C     C_R   0.654568 0.992762 0.370348 0.632348
C60   C     C_R   0.154568 0.492761 0.370348 0.632348
C61   C     C_R   0.682214 0.281117 0.167169 0.343098
C62   C     C_R   0.659291 0.682209 0.111788 0.353172
C63   C     C_R   0.182213 0.781118 0.167168 0.343097
C64   C     C_R   0.159292 0.182210 0.111790 0.353177
C65   C     C_R   0.311115 0.850639 0.244436 -0.352770
C66   C     C_R   0.311728 0.145702 0.237070 -0.328474
C67   C     C_R   0.811115 0.350639 0.244436 -0.352770
C68   C     C_R   0.811728 0.645701 0.237069 -0.328474
C69   C     C_R   0.724453 0.190404 0.709218 0.362150
C70   C     C_R   0.713769 0.805288 0.686976 0.404084
C71   C     C_R   0.224452 0.690404 0.709217 0.362152
C72   C     C_R   0.213770 0.305288 0.686977 0.404085
C73   C     C_R   0.291016 0.738168 0.805901 0.279141
C74   C     C_R   0.265873 0.246222 0.754263 0.263221
C75   C     C_R   0.791016 0.238168 0.805902 0.279140
C76   C     C_R   0.765871 0.746221 0.754261 0.263223
C77   C     C_R   0.304521 0.754604 0.928448 0.456273
C78   C     C_R   0.270379 0.213355 0.860369 0.441657
C79   C     C_R   0.804522 0.254604 0.928448 0.456275
C80   C     C_R   0.770377 0.713355 0.860368 0.441656
C81   C     C_R   0.734679 0.244786 0.931592 -0.100961
C82   C     C_R   0.725918 0.742387 0.904754 -0.088900
C83   C     C_R   0.234679 0.744786 0.931592 -0.100961
C84   C     C_R   0.225920 0.242387 0.904755 -0.088901
C85   C     C_R   0.661242 0.203004 0.825345 -0.235838
C86   C     C_R   0.659441 0.792454 0.815218 -0.256349
C87   C     C_R   0.161242 0.703004 0.825344 -0.235838
C88   C     C_R   0.159442 0.292454 0.815218 -0.256348
Cu1   Cu    Cu3+1 0.526340 0.000000 0.421010 1.033633
Cu2   Cu    Cu3+1 0.026340 0.500000 0.421010 1.033633
Cu3   Cu    Cu3+1 0.473640 0.000000 0.578990 1.039232
Cu4   Cu    Cu3+1 0.973640 0.500000 0.578990 1.039231
H1    H     H_    0.753270 0.998869 0.343827 0.206284
H2    H     H_    0.253270 0.498867 0.343826 0.206285
H3    H     H_    0.612802 0.004543 0.863541 0.195507
H4    H     H_    0.112802 0.504542 0.863541 0.195507
N1    N     N_R   0.566260 0.000000 0.302220 -0.270947
N2    N     N_R   0.066260 0.500000 0.302220 -0.270948
N3    N     N_R   0.434410 1.000000 0.697680 -0.251920
N4    N     N_R   0.934410 0.500000 0.697680 -0.251920
O1    O     O_R   0.608610 0.924520 0.551740 -0.516664
O2    O     O_R   0.608610 0.075480 0.551740 -0.513975
O3    O     O_R   0.108610 0.424520 0.551740 -0.516664
O4    O     O_R   0.108610 0.575480 0.551740 -0.513977
O5    O     O_R   0.564110 0.924510 0.685150 -0.575993
O6    O     O_R   0.564110 0.075490 0.685150 -0.592832
O7    O     O_R   0.064110 0.424510 0.685150 -0.575994
O8    O     O_R   0.064110 0.575490 0.685150 -0.592832
O9    O     O_R   0.435880 0.075470 0.314850 -0.558293
O10   O     O_R   0.435880 0.924530 0.314850 -0.607996
O11   O     O_R   0.935880 0.575470 0.314850 -0.558293
O12   O     O_R   0.935880 0.424530 0.314850 -0.607995
O13   O     O_R   0.391380 0.075460 0.448260 -0.497975
O14   O     O_R   0.391380 0.924540 0.448260 -0.469636
O15   O     O_R   0.891380 0.575460 0.448260 -0.497976
O16   O     O_R   0.891380 0.424540 0.448260 -0.469636
O17   O     O_3   0.264527 0.849035 0.383462 -0.547422
C89   C     C_3   0.270004 0.795118 0.466242 -0.068111
H5    H     H_    0.327558 0.806738 0.577653 0.244704
H6    H     H_    0.279630 0.741946 0.441860 0.094468
H7    H     H_    0.209408 0.795260 0.455194 0.216195
O18   O     O_3   0.235926 0.116905 0.325378 -0.579279
C90   C     C_3   0.253513 0.165982 0.425483 -0.244412
H8    H     H_    0.233280 0.220354 0.385056 0.142932
H9    H     H_    0.324958 0.164992 0.519421 0.248290
H10   H     H_    0.216478 0.149557 0.460509 0.159148
O19   O     O_3   0.764528 0.349033 0.383464 -0.547421
C91   C     C_3   0.770007 0.295116 0.466245 -0.068113
H11   H     H_    0.827564 0.306735 0.577655 0.244704
H12   H     H_    0.779632 0.241944 0.441860 0.094467
H13   H     H_    0.709414 0.295258 0.455202 0.216197
O20   O     O_3   0.735925 0.616904 0.325376 -0.579278
C92   C     C_3   0.753511 0.665981 0.425481 -0.244411
H14   H     H_    0.733278 0.720353 0.385053 0.142930
H15   H     H_    0.824956 0.664992 0.519419 0.248289
H16   H     H_    0.716476 0.649555 0.460507 0.159149
O21   O     O_3   0.740283 0.005853 0.135138 -0.756095
H17   H     H_    0.749421 0.008622 0.065331 0.310204
O22   O     O_3   0.240283 0.505850 0.135138 -0.756096
H18   H     H_    0.249421 0.508620 0.065331 0.310203
O23   O     O_3   0.419722 0.027005 0.092688 -0.643652
H19   H     H_    0.401039 0.002025 0.139012 0.382709
O24   O     O_3   0.919723 0.527006 0.092689 -0.643648
H20   H     H_    0.901039 0.502025 0.139012 0.382709
O25   O     O_3   0.290347 0.989791 0.477222 -0.500152
C93   C     C_3   0.197945 0.990430 0.402518 -0.068998
H21   H     H_    0.179611 0.029134 0.446594 0.121655
H22   H     H_    0.172568 0.937385 0.395141 0.215837
H23   H     H_    0.163323 0.005071 0.291566 0.172793
O26   O     O_3   0.790347 0.489791 0.477222 -0.500152
C94   C     C_3   0.697945 0.490429 0.402517 -0.068997
H24   H     H_    0.679610 0.529133 0.446592 0.121657
H25   H     H_    0.672569 0.437383 0.395142 0.215838
H26   H     H_    0.663323 0.505069 0.291565 0.172791
O27   O     O_3   0.356839 0.926536 0.914833 -0.698015
H27   H     H_    0.410483 0.905567 0.001378 0.362885
O28   O     O_3   0.856839 0.426537 0.914834 -0.698016
H28   H     H_    0.910483 0.405568 0.001377 0.362885
O29   O     O_3   0.233409 0.939307 0.630659 -0.773286
H29   H     H_    0.219911 0.935420 0.694817 0.362350
O30   O     O_3   0.733409 0.439308 0.630660 -0.773287
H30   H     H_    0.719911 0.435420 0.694817 0.362350
O31   O     O_3   0.517201 0.228096 0.917486 -0.523577
C95   C     C_3   0.495875 0.159749 0.927738 -0.170422
H31   H     H_    0.555578 0.128814 0.009599 0.108758
H32   H     H_    0.456869 0.133482 0.823665 0.179871
H33   H     H_    0.455295 0.162118 0.960569 0.245133
O32   O     O_3   0.522794 0.776998 0.918714 -0.494256
C96   C     C_3   0.557427 0.827101 0.026585 -0.224962
H34   H     H_    0.565823 0.877096 0.992865 0.148839
H35   H     H_    0.622023 0.812283 0.129405 0.136847
H36   H     H_    0.511306 0.833347 0.047477 0.195863
O33   O     O_3   0.017201 0.728096 0.917485 -0.523577
C97   C     C_3   0.995874 0.659750 0.927737 -0.170420
H37   H     H_    0.055577 0.628814 0.009598 0.108757
H38   H     H_    0.956868 0.633483 0.823664 0.179872
H39   H     H_    0.955294 0.662119 0.960567 0.245131
O34   O     O_3   0.022791 0.276995 0.918707 -0.494252
C98   C     C_3   0.057420 0.327100 0.026574 -0.225039
H40   H     H_    0.065809 0.377093 0.992850 0.148857
H41   H     H_    0.122016 0.312289 0.129390 0.136850
H42   H     H_    0.011304 0.333333 0.047472 0.195901
O35   O     O_3   0.621723 0.264876 0.184667 -0.687064
H43   H     H_    0.618411 0.213351 0.183942 0.327244
O36   O     O_3   0.580544 0.676296 0.088479 -0.694129
H44   H     H_    0.586305 0.641910 0.153452 0.332280
O37   O     O_3   0.121721 0.764877 0.184664 -0.687065
H45   H     H_    0.118410 0.713352 0.183941 0.327244
O38   O     O_3   0.080545 0.176298 0.088481 -0.694129
H46   H     H_    0.086307 0.141913 0.153457 0.332280
O39   O     O_3   0.305395 0.883240 0.053710 -0.508834
C99   C     C_3   0.228150 0.924775 0.969103 -0.274024
H47   H     H_    0.206167 0.943556 0.027417 0.129108
H48   H     H_    0.173270 0.896104 0.871955 0.154152
H49   H     H_    0.242998 0.971754 0.936490 0.206092
O40   O     O_3   0.389344 0.184656 0.156166 -0.488058
C100  C     C_3   0.437935 0.243784 0.239712 -0.241014
H50   H     H_    0.459123 0.238704 0.347009 0.125253
H51   H     H_    0.399378 0.292530 0.188500 0.140253
H52   H     H_    0.498881 0.247961 0.252148 0.224681
O41   O     O_3   0.805395 0.383240 0.053710 -0.508833
C101  C     C_3   0.728150 0.424775 0.969103 -0.274025
H53   H     H_    0.706166 0.443555 0.027416 0.129108
H54   H     H_    0.673270 0.396104 0.871955 0.154152
H55   H     H_    0.742998 0.471755 0.936492 0.206092
O42   O     O_3   0.889344 0.684655 0.156165 -0.488058
C102  C     C_3   0.937934 0.743784 0.239710 -0.241015
H56   H     H_    0.959122 0.738703 0.347008 0.125253
H57   H     H_    0.899377 0.792529 0.188498 0.140252
H58   H     H_    0.998880 0.747961 0.252147 0.224680
O43   O     O_3   0.712416 0.172336 0.589464 -0.555185
C103  C     C_3   0.785178 0.132831 0.627157 -0.202059
H59   H     H_    0.800891 0.089217 0.699246 0.170976
H60   H     H_    0.845198 0.165253 0.674775 0.197161
H61   H     H_    0.767651 0.110940 0.529267 0.172797
O44   O     O_3   0.708163 0.832797 0.578427 -0.520290
C104  C     C_3   0.636780 0.800244 0.450678 -0.240315
H62   H     H_    0.642534 0.742613 0.456906 0.123929
H63   H     H_    0.636922 0.818210 0.365689 0.160720
H64   H     H_    0.571698 0.814363 0.419892 0.164261
O45   O     O_3   0.212415 0.672336 0.589463 -0.555185
C105  C     C_3   0.285177 0.632832 0.627154 -0.202061
H65   H     H_    0.300890 0.589218 0.699245 0.170976
H66   H     H_    0.345197 0.665254 0.674772 0.197159
H67   H     H_    0.267649 0.610940 0.529264 0.172797
O46   O     O_3   0.208164 0.332798 0.578427 -0.520290
C106  C     C_3   0.136781 0.300245 0.450679 -0.240316
H68   H     H_    0.142535 0.242613 0.456907 0.123928
H69   H     H_    0.136923 0.318210 0.365690 0.160722
H70   H     H_    0.071699 0.314363 0.419893 0.164261
O47   O     O_3   0.387498 0.777724 0.045172 -0.556911
C107  C     C_3   0.434967 0.719901 0.133156 -0.317223
H71   H     H_    0.428715 0.673151 0.073656 0.172673
H72   H     H_    0.413465 0.706889 0.194647 0.144561
H73   H     H_    0.506232 0.733679 0.208112 0.183221
O48   O     O_3   0.303027 0.146333 0.898917 -0.518856
C108  C     C_3   0.231346 0.099632 0.809421 -0.337593
H74   H     H_    0.188408 0.114313 0.695839 0.113846
H75   H     H_    0.190702 0.094840 0.842381 0.161537
H76   H     H_    0.258604 0.048067 0.818002 0.226861
O49   O     O_3   0.887498 0.277725 0.045173 -0.556913
C109  C     C_3   0.934967 0.219902 0.133157 -0.317232
H77   H     H_    0.928716 0.173152 0.073658 0.172675
H78   H     H_    0.913464 0.206889 0.194647 0.144563
H79   H     H_    0.006232 0.233679 0.208114 0.183219
O50   O     O_3   0.803025 0.646332 0.898915 -0.518855
C110  C     C_3   0.731343 0.599632 0.809419 -0.337593
H80   H     H_    0.688406 0.614313 0.695837 0.113847
H81   H     H_    0.690700 0.594839 0.842380 0.161537
H82   H     H_    0.758601 0.548067 0.818000 0.226860
O51   O     O_3   0.343894 0.766358 0.780797 -0.698305
H83   H     H_    0.370749 0.809821 0.836214 0.387914
O52   O     O_3   0.306947 0.219438 0.706102 -0.706183
H84   H     H_    0.316754 0.169040 0.726807 0.323033
O53   O     O_3   0.843894 0.266358 0.780798 -0.698303
H85   H     H_    0.870746 0.309823 0.836209 0.387908
O54   O     O_3   0.806945 0.719437 0.706100 -0.706185
H86   H     H_    0.816752 0.669038 0.726806 0.323033
O55   O     O_3   0.501666 0.191651 0.686533 -0.554203
C111  C     C_3   0.472140 0.253818 0.607282 -0.325494
H87   H     H_    0.520216 0.274002 0.595535 0.144545
H88   H     H_    0.458677 0.294416 0.655424 0.196392
H89   H     H_    0.409261 0.243069 0.499420 0.162932
O56   O     O_3   0.501463 0.807982 0.680689 -0.526600
C112  C     C_3   0.471807 0.749980 0.589172 -0.353242
H90   H     H_    0.450949 0.706690 0.622096 0.161543
H91   H     H_    0.522054 0.731008 0.581701 0.130869
H92   H     H_    0.414166 0.765527 0.481296 0.176202
O57   O     O_3   0.001665 0.691651 0.686533 -0.554202
C113  C     C_3   0.972140 0.753818 0.607281 -0.325493
H93   H     H_    0.020215 0.774002 0.595533 0.144545
H94   H     H_    0.958676 0.794416 0.655423 0.196391
H95   H     H_    0.909260 0.743068 0.499419 0.162932
O58   O     O_3   0.001463 0.307981 0.680686 -0.526602
C114  C     C_3   0.971808 0.249978 0.589168 -0.353251
H96   H     H_    0.950951 0.206687 0.622092 0.161542
H97   H     H_    0.022056 0.231008 0.581698 0.130871
H98   H     H_    0.914168 0.265525 0.481292 0.176202
O59   O     O_3   0.712668 0.986221 0.516803 -0.535869
C115  C     C_3   0.795585 0.956959 0.574145 -0.294590
H99   H     H_    0.788251 0.910246 0.513937 0.189007
H100  H     H_    0.828833 0.939933 0.683511 0.216773
H101  H     H_    0.839625 0.996594 0.581194 0.110393
O60   O     O_3   0.212668 0.486221 0.516803 -0.535868
C116  C     C_3   0.295586 0.456959 0.574146 -0.294589
H102  H     H_    0.288253 0.410246 0.513939 0.189007
H103  H     H_    0.328834 0.439934 0.683512 0.216772
H104  H     H_    0.339625 0.496595 0.581194 0.110392

loop_
_geom_bond_atom_site_label_1
_geom_bond_atom_site_label_2
_ccdc_geom_bond_type
C110  H81   S    
C83   C87   A    
C8    C10   A    
O27   H27   S    
O28   H28   S    
C71   O45   S    
C59   O59   S    
Cu1   O2    S    
C20   O58   S    
C96   H34   S    
C14   C18   A    
C114  H96   S    
C58   N2    A    
C115  H101  S    
Cu2   O12   S    
C39   C66   S    
C91   H11   S    
O57   C113  S    
O30   H30   S    
C49   C57   A    
C90   H8    S    
C32   C72   A    
O33   C97   S    
C104  H64   S    
C15   C19   A    
C4    O8    A    
O55   C111  S    
C18   C86   A    
C101  H54   S    
C23   O41   S    
C2    C29   S    
C9    C61   A    
Cu1   O1    S    
C1    C30   S    
O60   C116  S    
C28   C68   A    
C115  H100  S    
O58   C114  S    
C116  H104  S    
C75   O53   S    
O29   H29   S    
C6    C12   A    
O52   H84   S    
C5    C83   A    
C35   N3    A    
C90   H9    S    
C2    O2    A    
C3    O3    A    
O24   H20   S    
C6    C22   A    
Cu1   O9    S    
C74   O52   S    
C61   O35   S    
C47   N3    A    
O48   C108  S    
Cu3   O5    S    
C48   C56   A    
O49   C109  S    
C25   C63   A    
C94   H26   S    
C23   C67   A    
C100  H51   S    
C26   C64   A    
C89   H5    S    
C22   C66   A    
O34   C98   S    
C9    C13   A    
C27   C61   A    
Cu1   N1    S    
C97   H37   S    
C27   O19   S    
C58   O24   S    
Cu4   O8    S    
C38   O30   S    
C40   O14   A    
C12   C16   A    
C52   C54   A    
O20   C92   S    
C49   C51   A    
C101  H55   S    
C92   H16   S    
C50   C52   A    
C94   H24   S    
C60   O60   S    
C69   C75   A    
C69   O43   S    
C30   C86   A    
C112  H90   S    
C93   H22   S    
C79   O49   S    
C7    C23   A    
C4    C31   S    
C98   H42   S    
C21   C65   A    
C53   C55   A    
C33   C59   A    
C72   O46   S    
C108  H74   S    
C34   C60   A    
C44   O28   S    
C96   H35   S    
Cu3   O6    S    
C22   O40   S    
C10   C62   A    
C11   C15   A    
Cu2   O11   S    
C41   O15   A    
C111  H89   S    
C43   O27   S    
C17   C85   A    
C30   C70   A    
C16   O34   S    
C38   C44   A    
C13   O31   S    
C41   C68   S    
C29   C69   A    
C45   C47   A    
Cu2   Cu4   S    
C48   N4    A    
C54   C56   A    
C77   O47   S    
C109  H79   S    
C6    C84   A    
C101  H53   S    
C15   O33   S    
C102  H56   S    
C26   C66   A    
C99   H49   S    
C76   C80   A    
O51   H83   S    
C114  H98   S    
C31   C87   A    
C115  H99   S    
C72   C74   A    
C10   C14   A    
C79   C81   A    
O42   C102  S    
O40   C100  S    
C90   H10   S    
C42   O12   A    
C41   O11   A    
C44   C46   A    
C105  H67   S    
C39   O13   A    
C104  H62   S    
C82   C86   A    
Cu1   O10   S    
C2    O6    A    
C107  H73   S    
C33   C51   A    
O39   C99   S    
C33   H1    S    
C28   O20   S    
C89   H7    S    
C99   H48   S    
C37   C43   A    
C100  H52   S    
O35   H43   S    
O43   C103  S    
C18   O56   S    
C116  H102  S    
C78   C84   A    
C102  H58   S    
C93   H23   S    
C112  H91   S    
Cu4   O7    S    
C109  H78   S    
C106  H68   S    
C27   C67   A    
C103  H61   S    
C45   C49   A    
C16   C20   A    
C114  H97   S    
C57   N1    A    
C111  H88   S    
C107  H72   S    
C109  H77   S    
C20   C88   A    
C50   C58   A    
C25   C65   A    
C36   N4    A    
C56   H4    S    
O44   C104  S    
C105  H66   S    
C43   C45   A    
C97   H39   S    
Cu2   O4    S    
C93   H21   S    
C1    O5    A    
C62   O36   S    
C55   H3    S    
O32   C96   S    
C7    C81   A    
C103  H60   S    
O46   C106  S    
C63   O37   S    
C40   C65   S    
C108  H75   S    
C70   C76   A    
C42   C67   S    
C59   N1    A    
C96   H36   S    
C113  H94   S    
C17   O55   S    
C29   C85   A    
C97   H38   S    
C14   O32   S    
O53   H85   S    
C91   H13   S    
C1    O1    A    
O25   C93   S    
O54   H86   S    
C8    C82   A    
Cu4   N4    S    
C47   C55   A    
C53   O21   S    
C76   O54   S    
C110  H82   S    
C42   O16   A    
O38   H46   S    
C7    C9    A    
C35   O25   S    
O50   C110  S    
C95   H31   S    
C73   C77   A    
C19   O57   S    
C35   C37   A    
C112  H92   S    
C113  H93   S    
C34   C52   A    
C95   H33   S    
C34   H2    S    
C111  H87   S    
C100  H50   S    
C91   H12   S    
O45   C105  S    
C40   O10   A    
O22   H18   S    
C28   C62   A    
C5    C11   A    
C57   O23   S    
C104  H63   S    
O21   H17   S    
C46   C50   A    
C60   N2    A    
Cu4   O16   S    
Cu3   O14   S    
C13   C17   A    
C64   O38   S    
C3    O7    A    
C99   H47   S    
C37   O29   S    
C95   H32   S    
O56   C112  S    
O59   C115  S    
C70   O44   S    
O37   H45   S    
C116  H103  S    
C106  H69   S    
Cu3   N3    S    
O23   H19   S    
C36   C38   A    
C36   O26   S    
O36   H44   S    
C92   H14   S    
C84   C88   A    
C19   C87   A    
C12   C64   A    
C4    O4    A    
C24   O42   S    
C107  H71   S    
C8    C24   A    
C80   C82   A    
C54   O22   S    
C80   O50   S    
C94   H25   S    
C25   O17   S    
C3    C32   S    
Cu4   O15   S    
C89   H6    S    
Cu2   O3    S    
O31   C95   S    
C113  H95   S    
C24   C68   A    
C98   H40   S    
C46   C48   A    
Cu3   O13   S    
C39   O9    A    
C106  H70   S    
C5    C21   A    
O41   C101  S    
C78   O48   S    
Cu1   Cu3   S    
C74   C78   A    
C108  H76   S    
C71   C73   A    
O47   C107  S    
C102  H57   S    
C92   H15   S    
C77   C83   A    
O26   C94   S    
C98   H41   S    
C26   O18   S    
C21   O39   S    
C51   C53   A    
O18   C90   S    
O17   C89   S    
C11   C63   A    
C75   C79   A    
C105  H65   S    
Cu2   N2    S    
C81   C85   A    
O19   C91   S    
C110  H80   S    
C103  H59   S    
C31   C71   A    
C73   O51   S    
C32   C88   A    
