data_mof_unit_65318.cif
_audit_creation_date              2012-12-10T18:36:52-0500
_audit_creation_method            fapswitch 2.2
_symmetry_space_group_name_H-M    P1
_symmetry_Int_Tables_number       1
_space_group_crystal_system       triclinic
_cell_length_a                    25.551496
_cell_length_b                    25.553337
_cell_length_c                    25.560369
_cell_angle_alpha                 119.974055
_cell_angle_beta                  90.033577
_cell_angle_gamma                 119.992197
_cell_volume                      11803.4854051

loop_
_atom_site_label
_atom_site_type_symbol
_atom_type_description
_atom_site_fract_x
_atom_site_fract_y
_atom_site_fract_z
_atom_type_partial_charge
C1    C     C_R   0.599643 0.699286 0.599665 0.815333
C2    C     C_1   0.826903 0.499474 0.826731 0.011816
C3    C     C_3   0.430310 0.577916 0.263902 -0.302722
C4    C     C_3   0.343263 0.660432 0.229236 -0.328437
C5    C     C_3   0.362272 0.451623 0.784577 -0.307070
C6    C     C_3   0.175482 0.568879 0.722733 -0.272606
C7    C     C_3   0.381621 0.076883 0.395892 -0.328108
C8    C     C_3   0.298452 0.042896 0.320987 0.384985
C9    C     C_R   0.400389 0.300753 0.400328 0.824897
C10   C     C_3   0.297140 0.041933 0.219741 -0.131998
C11   C     C_3   0.253026 0.955758 0.177188 -0.484498
C12   C     C_1   0.139075 0.778355 0.138960 -0.114491
C13   C     C_3   0.285694 0.073112 0.285878 0.106485
C14   C     C_3   0.258595 0.956935 0.275560 -0.487441
C15   C     C_3   0.211869 0.926578 0.213108 0.149482
C16   C     C_3   0.169443 0.956553 0.229359 -0.147230
C17   C     C_1   0.860331 0.499740 0.860250 -0.132392
C18   C     C_3   0.213164 0.043544 0.272946 -0.317346
C19   C     C_1   0.171930 0.844990 0.172276 -0.033925
C20   C     C_1   0.326963 0.154900 0.327146 -0.030181
C21   C     C_R   0.400276 0.499903 0.599583 0.820413
C22   C     C_1   0.360550 0.221527 0.360656 -0.107521
C23   C     C_3   0.759698 0.582372 0.304143 -0.430565
C24   C     C_3   0.672517 0.444265 0.214416 0.335218
C25   C     C_3   0.715554 0.451033 0.171988 -0.450260
C26   C     C_1   0.860915 0.501157 0.139379 -0.113173
C27   C     C_3   0.714033 0.502863 0.287511 0.081266
C28   C     C_3   0.787879 0.551372 0.738937 -0.322773
C29   C     C_3   0.805131 0.585938 0.262506 -0.006531
C30   C     C_3   0.787661 0.505083 0.214403 0.122653
C31   C     C_3   0.796917 0.477303 0.253630 -0.543376
C32   C     C_3   0.757439 0.481192 0.300370 0.367602
C33   C     C_R   0.599710 0.500093 0.400450 0.817072
C34   C     C_1   0.827876 0.502623 0.172941 0.001897
C35   C     C_1   0.672897 0.501452 0.327836 0.002494
C36   C     C_1   0.639400 0.500645 0.360940 -0.122087
C37   C     C_3   0.785415 0.958420 0.752251 0.919474
C38   C     C_3   0.686006 0.956368 0.768501 0.383453
C39   C     C_3   0.713752 0.499699 0.712848 0.058922
C40   C     C_3   0.731711 0.042858 0.812775 -0.443674
C41   C     C_1   0.860436 0.221236 0.860989 -0.144892
C42   C     C_3   0.714688 0.926752 0.715750 0.087784
C43   C     C_3   0.828401 0.044469 0.787567 -0.431472
C44   C     C_3   0.787203 0.073037 0.787602 0.166795
C45   C     C_R   0.400204 0.500039 0.400187 0.819585
C46   C     C_3   0.757886 0.042762 0.717764 -0.421990
C47   C     C_3   0.714792 0.957216 0.675591 -0.442205
C48   C     C_1   0.827341 0.154548 0.827913 -0.050521
C49   C     C_1   0.673231 0.845238 0.674027 -0.037435
C50   C     C_3   0.784879 0.565492 0.804684 0.502399
C51   C     C_1   0.639398 0.778571 0.639894 -0.146832
C52   C     C_3   0.247530 0.525602 0.321705 0.328441
C53   C     C_3   0.237055 0.416488 0.222656 -0.171650
C54   C     C_3   0.196504 0.418042 0.177830 -0.240289
C55   C     C_1   0.139111 0.499529 0.139173 -0.138398
C56   C     C_3   0.286093 0.497121 0.284159 0.011776
C57   C     C_R   0.599875 0.499961 0.599877 0.822889
C58   C     C_3   0.203116 0.523669 0.278122 -0.402073
C59   C     C_3   0.212584 0.497536 0.211818 0.042911
C60   C     C_3   0.284548 0.550883 0.222543 0.304358
C61   C     C_3   0.786197 0.499050 0.785936 0.058297
C62   C     C_3   0.328182 0.550170 0.264820 0.241090
C63   C     C_1   0.172143 0.498845 0.172020 -0.009484
C64   C     C_1   0.327168 0.498867 0.326418 -0.031400
C65   C     C_1   0.360553 0.499743 0.360463 -0.146348
C66   C     C_3   0.287923 0.571135 0.743660 -0.611734
C67   C     C_3   0.311916 0.499877 0.768957 0.437024
C68   C     C_3   0.267392 0.498058 0.810787 -0.562795
C69   C     C_3   0.789000 0.483914 0.719886 -0.183834
C70   C     C_1   0.139136 0.499601 0.860532 -0.130280
C71   C     C_3   0.286959 0.500601 0.713776 0.204537
C72   C     C_3   0.711576 0.514267 0.778541 0.499785
C73   C     C_3   0.246047 0.572381 0.788702 0.452381
C74   C     C_3   0.213382 0.500438 0.786573 0.173821
C75   C     C_3   0.173781 0.430821 0.716698 -0.407383
C76   C     C_3   0.216513 0.431980 0.673600 -0.374499
C77   C     C_1   0.172533 0.499852 0.827262 -0.015740
C78   C     C_1   0.327477 0.500194 0.672740 -0.034576
C79   C     C_1   0.360694 0.499985 0.639294 -0.139669
C80   C     C_R   0.900435 0.500136 0.099700 0.833618
C81   C     C_3   0.714502 0.432323 0.692887 -0.184519
C82   C     C_R   0.099444 0.499568 0.900140 0.814936
C83   C     C_3   0.712088 0.446914 0.759363 -0.322812
C84   C     C_R   0.099758 0.699115 0.099392 0.832720
C85   C     C_R   0.900108 0.300566 0.900435 0.820923
C86   C     C_R   0.099758 0.499835 0.099729 0.820554
C87   C     C_R   0.900044 0.499904 0.900066 0.829990
C88   C     C_1   0.639589 0.499841 0.639402 -0.141214
C89   C     C_2   0.366462 0.070242 0.226134 0.463717
C90   C     C_2   0.194980 0.076083 0.246637 0.437902
C91   C     C_2   0.124357 0.927165 0.261039 0.393807
C92   C     C_2   0.798062 0.618738 0.229139 0.368056
C93   C     C_3   0.623735 0.500074 0.206396 -0.237336
C94   C     C_1   0.673028 0.499755 0.672555 0.006099
C95   C     C_3   0.813473 0.500783 0.387515 -0.292093
C96   C     C_2   0.874844 0.639619 0.305956 0.435373
C97   C     C_3   0.777079 0.884394 0.787651 -0.226952
C98   C     C_3   0.585604 0.925248 0.778439 -0.324534
C99   C     C_3   0.671209 0.531750 0.861714 -0.295037
C100  C     C_3   0.816810 0.923176 0.657398 -0.364246
C101  C     C_3   0.201991 0.522454 0.399867 -0.279310
C102  C     C_2   0.268584 0.377802 0.188890 0.494968
C103  C     C_2   0.125506 0.358136 0.154365 0.422015
C104  C     C_3   0.819216 0.687182 0.866567 -0.285596
H1    H     H_    0.685212 0.377576 0.645931 0.157907
H2    H     H_    0.654123 0.389659 0.205275 0.103931
H3    H     H_    0.704796 0.468434 0.143994 0.237418
H4    H     H_    0.704279 0.395323 0.135601 0.158503
H5    H     H_    0.725079 0.424753 0.289749 0.051401
H6    H     H_    0.848477 0.509535 0.280537 0.201252
H7    H     H_    0.788078 0.621086 0.356137 0.250723
H8    H     H_    0.681826 0.404047 0.767754 0.160478
H9    H     H_    0.781022 0.418962 0.220070 0.152960
H10   H     H_    0.855791 0.072315 0.837989 0.194641
H11   H     H_    0.683656 0.934860 0.797873 0.112495
H12   H     H_    0.281579 0.932393 0.162468 0.169947
H13   H     H_    0.752061 0.061608 0.862147 0.154644
H14   H     H_    0.704253 0.066514 0.815971 0.205277
H15   H     H_    0.728180 0.935244 0.632566 0.156846
H16   H     H_    0.665235 0.937898 0.655097 0.241908
H17   H     H_    0.796561 0.062829 0.698230 0.173772
H18   H     H_    0.865752 0.062294 0.766180 0.162869
H19   H     H_    0.728992 0.063473 0.716132 0.201308
H20   H     H_    0.152114 0.487147 0.272125 0.242344
H21   H     H_    0.204588 0.383101 0.238951 0.202090
H22   H     H_    0.209716 0.405755 0.133729 0.160820
H23   H     H_    0.221138 0.935543 0.132150 0.206536
H24   H     H_    0.359587 0.607389 0.310060 0.101043
H25   H     H_    0.283350 0.584519 0.363108 0.066557
H26   H     H_    0.214049 0.579939 0.302178 0.176991
H27   H     H_    0.290097 0.529145 0.174069 0.126560
H28   H     H_    0.281207 0.618169 0.838070 0.089664
H29   H     H_    0.338137 0.621114 0.772424 0.150672
H30   H     H_    0.360838 0.552696 0.799432 0.046459
H31   H     H_    0.296553 0.545932 0.861614 0.130891
H32   H     H_    0.818170 0.593405 0.729675 0.161340
H33   H     H_    0.245784 0.447258 0.809766 0.226482
H34   H     H_    0.205614 0.063672 0.320281 0.089425
H35   H     H_    0.197481 0.432624 0.634930 0.156829
H36   H     H_    0.214245 0.380294 0.649738 0.214916
H37   H     H_    0.131668 0.426232 0.697355 0.178127
H38   H     H_    0.273092 0.573733 0.704784 0.199941
H39   H     H_    0.153975 0.380259 0.715704 0.187351
H40   H     H_    0.291216 0.939067 0.263118 0.207552
H41   H     H_    0.283709 0.060804 0.194617 0.214926
H42   H     H_    0.388093 0.049934 0.240176 0.120344
H43   H     H_    0.198329 0.126377 0.279708 0.067897
H44   H     H_    0.143165 0.942092 0.308027 0.063493
H45   H     H_    0.281153 0.058507 0.362913 0.065483
H46   H     H_    0.799166 0.668424 0.256726 0.099913
H47   H     H_    0.665788 0.532458 0.196464 0.153071
H48   H     H_    0.625464 0.534375 0.256044 0.155661
H49   H     H_    0.581111 0.483329 0.174131 0.189905
H50   H     H_    0.832754 0.471032 0.355742 0.152348
H51   H     H_    0.770291 0.462498 0.392514 0.159700
H52   H     H_    0.850716 0.544704 0.435656 0.199240
H53   H     H_    0.907978 0.624017 0.295957 0.071043
H54   H     H_    0.824557 0.893419 0.790194 0.212593
H55   H     H_    0.741186 0.834454 0.740021 0.168713
H56   H     H_    0.231822 0.933096 0.300890 0.137348
H57   H     H_    0.761538 0.873756 0.823822 0.159617
H58   H     H_    0.609336 0.977086 0.827728 0.155788
H59   H     H_    0.573653 0.877984 0.780115 0.164243
H60   H     H_    0.539981 0.913517 0.757231 0.202782
H61   H     H_    0.720671 0.570558 0.896559 0.197230
H62   H     H_    0.649403 0.475108 0.849034 0.162888
H63   H     H_    0.642154 0.550855 0.885753 0.192607
H64   H     H_    0.830072 0.974927 0.663825 0.153278
H65   H     H_    0.770776 0.873952 0.618184 0.178878
H66   H     H_    0.854225 0.914953 0.642134 0.213399
H67   H     H_    0.139044 0.935503 0.182999 0.223302
H68   H     H_    0.180726 0.549082 0.394569 0.150872
H69   H     H_    0.248256 0.564769 0.440225 0.156149
H70   H     H_    0.168468 0.484572 0.411803 0.196166
H71   H     H_    0.293904 0.369403 0.214641 0.077161
H72   H     H_    0.098555 0.321691 0.103541 0.071290
H73   H     H_    0.768842 0.669399 0.853641 0.185399
H74   H     H_    0.842876 0.700920 0.834523 0.159763
H75   H     H_    0.845217 0.738550 0.915980 0.201775
H76   H     H_    0.441773 0.586030 0.310433 0.155215
H77   H     H_    0.448246 0.631724 0.271758 0.147894
H78   H     H_    0.821214 0.470801 0.696103 0.158193
H79   H     H_    0.455842 0.556074 0.235227 0.202047
H80   H     H_    0.318717 0.634573 0.178567 0.167186
H81   H     H_    0.386791 0.660867 0.233510 0.164946
H82   H     H_    0.358890 0.718735 0.257824 0.196608
H83   H     H_    0.357401 0.470846 0.832918 0.155781
H84   H     H_    0.410280 0.492965 0.788152 0.163310
H85   H     H_    0.358560 0.399707 0.765011 0.203073
H86   H     H_    0.164349 0.514768 0.683301 0.145551
H87   H     H_    0.207388 0.612271 0.715411 0.168036
H88   H     H_    0.129633 0.563680 0.720253 0.187673
H89   H     H_    0.732379 0.603558 0.300183 0.124652
H90   H     H_    0.351699 0.021506 0.387100 0.160109
H91   H     H_    0.377854 0.117639 0.438148 0.171429
H92   H     H_    0.432277 0.095595 0.407194 0.198591
O1    O     O_3   0.500000 0.500000 0.500000 -0.485498
O2    O     O_R   0.960830 0.335840 0.918110 -0.635551
O3    O     O_R   0.082190 0.542890 0.125100 -0.633159
O4    O     O_R   0.625020 0.663960 0.582080 -0.638123
O5    O     O_R   0.874750 0.456980 0.917820 -0.636208
O6    O     O_R   0.082060 0.456790 0.039130 -0.641028
O7    O     O_R   0.960740 0.542810 0.917680 -0.627368
O8    O     O_R   0.081970 0.663760 0.038700 -0.631638
O9    O     O_R   0.874800 0.335990 0.918070 -0.638739
O10   O     O_R   0.961140 0.543090 0.125040 -0.636505
O11   O     O_R   0.081820 0.456620 0.917920 -0.641251
O12   O     O_R   0.418020 0.456930 0.581980 -0.629164
O13   O     O_R   0.418070 0.336020 0.461010 -0.640821
O14   O     O_R   0.417900 0.542920 0.581890 -0.640485
O15   O     O_R   0.539010 0.457110 0.375020 -0.623880
O16   O     O_R   0.417800 0.543010 0.460800 -0.637583
O17   O     O_R   0.625170 0.542960 0.582200 -0.638057
O18   O     O_R   0.417840 0.457080 0.374840 -0.634571
O19   O     O_R   0.539180 0.456950 0.582160 -0.630213
O20   O     O_2   0.398517 0.115249 0.214313 -0.562782
O21   O     O_2   0.178616 0.048495 0.189301 -0.562642
O22   O     O_2   0.066423 0.886869 0.234297 -0.536674
O23   O     O_R   0.625070 0.543050 0.461120 -0.634241
O24   O     O_2   0.792879 0.592336 0.172710 -0.577831
O25   O     O_3   0.615027 0.435478 0.194012 -0.576156
O26   O     O_3   0.799304 0.534177 0.364976 -0.576890
O27   O     O_2   0.895557 0.702505 0.351304 -0.571895
O28   O     O_3   0.782367 0.948633 0.803011 -0.677417
O29   O     O_3   0.623862 0.932444 0.739359 -0.592521
O30   O     O_3   0.669837 0.531340 0.806427 -0.616362
O31   O     O_3   0.815830 0.926324 0.713950 -0.616191
O32   O     O_3   0.210403 0.480876 0.342629 -0.563831
O33   O     O_2   0.265708 0.354826 0.133318 -0.548206
O34   O     O_R   0.538910 0.663940 0.581950 -0.631919
O35   O     O_2   0.097573 0.350813 0.191517 -0.548267
O36   O     O_3   0.822940 0.633511 0.865481 -0.605512
O37   O     O_3   0.363939 0.526386 0.229595 -0.585362
O38   O     O_3   0.300849 0.623792 0.253258 -0.618597
O39   O     O_3   0.313265 0.436879 0.742449 -0.587760
O40   O     O_3   0.202882 0.591164 0.784236 -0.588064
O41   O     O_3   0.364801 0.073984 0.341442 -0.610246
O42   O     O_R   0.418000 0.336080 0.374960 -0.621241
O43   O     O_3   0.999930 0.499860 0.999930 -0.486127
O44   O     O_R   0.874990 0.457140 0.039030 -0.630543
O45   O     O_R   0.081780 0.542610 0.917740 -0.627171
O46   O     O_R   0.082140 0.663870 0.124840 -0.632289
Zn1   Zn    Zn3+2 0.469350 0.438540 0.530750 0.985544
Zn2   Zn    Zn3+2 0.469190 0.561400 0.530630 0.972856
Zn3   Zn    Zn3+2 0.469250 0.438630 0.407810 0.999449
Zn4   Zn    Zn3+2 0.592210 0.561430 0.530810 0.978386
Zn5   Zn    Zn3+2 0.030570 0.561190 0.969050 0.998699
Zn6   Zn    Zn3+2 0.030810 0.561360 0.092130 0.991976
Zn7   Zn    Zn3+2 0.030630 0.438350 0.969310 0.971744
Zn8   Zn    Zn3+2 0.907720 0.438560 0.969250 0.988038

loop_
_geom_bond_atom_site_label_1
_geom_bond_atom_site_label_2
_ccdc_geom_bond_type
C40   H14   S    
O1    Zn2   S    
O44   Zn8   S    
C8    C13   S    
C75   H39   S    
O43   Zn7   S    
C93   O25   S    
C73   C74   S    
C101  H69   S    
C28   C69   S    
C16   H67   S    
C24   C27   S    
C3    H76   S    
O13   Zn1   S    
C98   H59   S    
C68   H33   S    
C85   O9    A    
C53   C54   S    
C15   C19   S    
C54   H22   S    
C67   O39   S    
C90   H43   S    
C13   C18   S    
C101  O32   S    
C52   H25   S    
C97   H55   S    
C21   O12   A    
C60   C62   S    
C69   C81   S    
C38   C42   S    
C43   H10   S    
C30   C31   S    
C9    C22   S    
C104  O36   S    
C104  H75   S    
C68   C74   S    
C15   C16   S    
O1    Zn4   S    
C33   C36   S    
C21   O14   A    
C12   C84   S    
C101  H68   S    
O43   Zn5   S    
C95   H52   S    
C4    H82   S    
C37   C42   S    
C92   O24   D    
C50   C72   S    
C91   H44   S    
C73   O40   S    
O9    Zn8   S    
C75   H37   S    
C81   C83   S    
C45   C65   S    
C11   C15   S    
C1    O34   A    
C26   C34   T    
C104  H73   S    
C104  H74   S    
C7    O41   S    
C10   C89   S    
C9    O13   A    
C49   C51   T    
C74   C77   S    
C55   C63   T    
C6    H87   S    
C25   H4    S    
C102  O33   D    
C39   C72   S    
O12   Zn1   S    
C46   H17   S    
C50   O36   S    
C23   C27   S    
C86   O6    A    
C67   C71   S    
C2    C61   S    
C31   H6    S    
C69   H78   S    
C71   C78   S    
C98   O29   S    
C84   O8    A    
C47   H15   S    
C40   H13   S    
C27   C32   S    
C73   H28   S    
C59   C60   S    
C62   O37   S    
C17   C87   S    
O43   Zn8   S    
C6    H86   S    
C101  H70   S    
C28   C50   S    
C60   H27   S    
C87   O7    A    
C82   O11   A    
C98   H58   S    
C52   O32   S    
C99   H63   S    
C54   C59   S    
C76   H36   S    
C103  O35   D    
C89   H42   S    
C52   C58   S    
C88   C94   T    
C95   O26   S    
C32   H5    S    
C30   C34   S    
C100  H66   S    
C67   C68   S    
C45   O16   A    
C55   C86   S    
C57   O19   A    
C54   C103  S    
C67   H30   S    
C60   O38   S    
C24   C25   S    
C39   C81   S    
C61   C83   S    
O4    Zn4   S    
O42   Zn3   S    
C78   C79   T    
C44   C46   S    
C28   C39   S    
C27   C35   S    
C102  H71   S    
C8    O41   S    
C66   C73   S    
C80   O10   A    
C24   O25   S    
C90   O21   D    
O46   Zn6   S    
C82   O45   A    
C14   H56   S    
O43   Zn6   S    
C35   C36   T    
C18   C90   S    
C4    H81   S    
C37   C43   S    
C100  O31   S    
O10   Zn6   S    
C75   C76   S    
C83   H8    S    
C39   C94   S    
C70   C77   T    
C29   C30   S    
C66   H29   S    
C1    C51   S    
C98   H60   S    
C66   C71   S    
C14   H40   S    
C37   O31   S    
C53   C102  S    
C96   O27   D    
C21   C79   S    
C56   C64   S    
C45   O18   A    
O23   Zn4   S    
C4    H80   S    
C7    H90   S    
C11   H12   S    
O11   Zn7   S    
C43   H18   S    
C53   H21   S    
O3    Zn6   S    
C3    H77   S    
C89   O20   D    
C11   H23   S    
C47   H16   S    
C57   O17   A    
O5    Zn8   S    
O19   Zn1   S    
C97   H57   S    
C38   O29   S    
C43   C44   S    
C92   H46   S    
C56   C62   S    
C46   H19   S    
C93   H47   S    
C1    O4    A    
C24   H2    S    
C5    H83   S    
C7    H91   S    
C23   H89   S    
C23   C29   S    
C41   C85   S    
C25   H3    S    
C53   C56   S    
C61   C69   S    
C25   C30   S    
C81   H1    S    
C6    O40   S    
C46   C47   S    
O1    Zn1   S    
C8    C14   S    
C13   C20   S    
C100  H65   S    
C28   H32   S    
C33   O23   A    
C4    O38   S    
C31   C32   S    
C37   O28   S    
C20   C22   T    
C58   H20   S    
C93   H48   S    
C10   C13   S    
C99   O30   S    
C29   C96   S    
C32   O26   S    
C97   O28   S    
C66   H38   S    
C62   H24   S    
C23   H7    S    
C86   O3    A    
C59   C63   S    
C57   C88   S    
C100  H64   S    
C95   H50   S    
C64   C65   T    
O15   Zn3   S    
C91   O22   D    
C93   H49   S    
C8    H45   S    
C58   C59   S    
O14   Zn2   S    
O16   Zn2   S    
C72   O30   S    
C97   H54   S    
C38   C40   S    
C38   H11   S    
C33   O15   A    
O2    Zn7   S    
C80   O44   A    
C71   C76   S    
C58   H26   S    
C12   C19   T    
O1    Zn3   S    
C103  H72   S    
C41   C48   T    
C87   O5    A    
C96   H53   S    
O18   Zn3   S    
C95   H51   S    
C42   C47   S    
C29   C92   S    
C99   H62   S    
C18   H34   S    
O17   Zn4   S    
C70   C82   S    
C26   C80   S    
C72   C83   S    
O34   Zn2   S    
C10   C11   S    
C42   C49   S    
C5    H85   S    
C44   C48   S    
C85   O2    A    
C40   C44   S    
O6    Zn7   S    
O7    Zn5   S    
C74   C75   S    
C76   H35   S    
C16   C91   S    
C16   C18   S    
C10   H41   S    
C5    O39   S    
C6    H88   S    
C9    O42   A    
C50   C61   S    
C14   C15   S    
O45   Zn5   S    
C84   O46   A    
C5    H84   S    
C99   H61   S    
C7    H92   S    
C3    H79   S    
C31   H9    S    
O8    Zn5   S    
C3    O37   S    
C52   C56   S    
C68   H31   S    
C2    C17   T    
