data_mof_unit_7454.cif
_audit_creation_date              2012-12-10T17:33:11-0500
_audit_creation_method            fapswitch 2.2
_symmetry_space_group_name_H-M    P1
_symmetry_Int_Tables_number       1
_space_group_crystal_system       triclinic
_cell_length_a                    15.538453
_cell_length_b                    15.496454
_cell_length_c                    17.883983
_cell_angle_alpha                 91.26684
_cell_angle_beta                  109.880509
_cell_angle_gamma                 68.702075
_cell_volume                      3747.73184533

loop_
_atom_site_label
_atom_site_type_symbol
_atom_type_description
_atom_site_fract_x
_atom_site_fract_y
_atom_site_fract_z
_atom_type_partial_charge
C1    C     C_R   0.464253 0.740156 0.532823 0.508731
C2    C     C_R   0.596109 0.405142 0.077909 0.187741
C3    C     C_R   0.667639 0.368999 0.043136 -0.095663
C4    C     C_R   0.539018 0.257643 0.472107 0.509100
C5    C     C_R   0.645617 0.394880 0.963063 0.017456
C6    C     C_R   0.551288 0.461276 0.917579 0.057284
C7    C     C_R   0.713368 0.348283 0.926056 -0.098959
C8    C     C_R   0.685834 0.363468 0.843436 -0.106776
C9    C     C_R   0.520740 0.464447 0.833857 -0.055126
C10   C     C_R   0.447585 0.949472 0.641984 -0.107108
C11   C     C_R   0.451572 0.835436 0.548094 0.036930
C12   C     C_R   0.314015 0.638335 0.154723 -0.079531
C13   C     C_R   0.590447 0.115893 0.399820 0.210677
C14   C     C_R   0.559138 0.045329 0.363826 0.194765
C15   C     C_R   0.514886 0.004175 0.400282 -0.139139
C16   C     C_R   0.757869 0.447744 0.532705 0.500650
C17   C     C_R   0.506937 0.027021 0.475091 -0.015161
C18   C     C_R   0.528027 0.105163 0.505869 -0.008314
C19   C     C_R   0.479727 0.974049 0.520602 0.049093
C20   C     C_R   0.471166 0.002045 0.594870 0.050721
C21   C     C_R   0.493294 0.078203 0.624423 -0.117193
C22   C     C_R   0.524934 0.126558 0.582273 -0.080693
C23   C     C_R   0.477407 0.536850 0.162526 -0.056057
C24   C     C_R   0.468415 0.889933 0.498053 -0.108148
C25   C     C_R   0.439393 0.865687 0.619240 -0.102950
C26   C     C_R   0.556510 0.157444 0.461265 -0.025991
C27   C     C_R   0.024112 0.389602 0.649117 -0.110260
C28   C     C_R   0.242045 0.552842 0.469513 0.505936
C29   C     C_R   0.861336 0.430091 0.549058 0.046393
C30   C     C_R   0.068031 0.621258 0.377505 -0.109504
C31   C     C_R   0.970739 0.626934 0.351298 0.202464
C32   C     C_R   0.941330 0.579953 0.397554 -0.096677
C33   C     C_R   0.007240 0.530863 0.473502 -0.004636
C34   C     C_R   0.447261 0.542662 0.078802 -0.000272
C35   C     C_R   0.104047 0.532388 0.502592 0.022329
C36   C     C_R   0.980153 0.481059 0.522019 0.039359
C37   C     C_R   0.048710 0.438154 0.599715 0.052339
C38   C     C_R   0.139650 0.447486 0.629237 -0.116283
C39   C     C_R   0.166028 0.495518 0.582267 -0.082929
C40   C     C_R   0.560838 0.440819 0.711810 0.504725
C41   C     C_R   0.886539 0.474133 0.497258 -0.109514
C42   C     C_R   0.930417 0.386847 0.624340 -0.101712
C43   C     C_R   0.136230 0.571919 0.451599 -0.014408
C44   C     C_R   0.440725 0.559048 0.287529 0.515303
C45   C     C_R   0.353362 0.610824 0.033604 -0.014168
C46   C     C_R   0.410662 0.579924 0.200505 -0.022003
C47   C     C_R   0.588491 0.419313 0.797249 0.038422
C48   C     C_R   0.284855 0.656055 0.071699 0.257595
C49   C     C_R   0.510904 0.487811 0.039345 -0.002996
C50   C     C_R   0.488844 0.516998 0.957318 -0.003139
C51   C     C_R   0.405886 0.600764 0.919164 0.224274
C52   C     C_R   0.334525 0.638631 0.953932 -0.047735
H1    H     H_    0.269020 0.698031 0.920878 0.228540
H2    H     H_    0.786900 0.299425 0.960831 0.136784
H3    H     H_    0.440892 0.970581 0.698593 0.142865
H4    H     H_    0.480718 0.860508 0.445681 0.112660
H5    H     H_    0.795606 0.073544 0.327896 0.384333
H6    H     H_    0.490100 0.952184 0.369808 0.162542
H7    H     H_    0.502226 0.144049 0.203408 0.362091
H8    H     H_    0.551733 0.177779 0.612698 0.153156
H9    H     H_    0.910231 0.354320 0.665234 0.128709
H10   H     H_    0.190358 0.418597 0.689688 0.124492
H11   H     H_    0.091364 0.652682 0.338379 0.182588
H12   H     H_    0.427499 0.822594 0.658594 0.140104
H13   H     H_    0.898949 0.821647 0.282822 0.364522
H14   H     H_    0.234920 0.505102 0.610358 0.160151
H15   H     H_    0.735964 0.311311 0.075513 0.147533
H16   H     H_    0.027762 0.801407 0.042908 0.395579
H17   H     H_    0.261728 0.671131 0.184050 0.197472
H18   H     H_    0.494989 0.684655 0.781136 0.364792
H19   H     H_    0.748646 0.331028 0.236822 0.340158
H20   H     H_    0.491254 0.097524 0.682620 0.124065
H21   H     H_    0.444945 0.502340 0.796313 0.166626
H22   H     H_    0.075997 0.357183 0.708426 0.131104
H23   H     H_    0.829432 0.506784 0.440409 0.111215
H24   H     H_    0.866246 0.584129 0.372789 0.149290
H25   H     H_    0.739239 0.329528 0.815292 0.122110
H26   H     H_    0.553680 0.500414 0.199230 0.203132
O1    O     O_3   0.500000 0.500000 0.500000 -0.465827
O2    O     O_R   0.596500 0.492780 0.688380 -0.525523
O3    O     O_R   0.388780 0.611210 0.325000 -0.546544
O4    O     O_R   0.499860 0.410860 0.661600 -0.551812
O5    O     O_R   0.514860 0.485140 0.325020 -0.486967
O6    O     O_2   0.633767 0.221468 0.313948 -0.148270
O7    O     O_2   0.747166 0.166906 0.452429 -0.270939
O8    O     O_3   0.756590 0.048792 0.348675 -0.436366
O9    O     O_2   0.664332 0.925380 0.288103 -0.150979
O10   O     O_2   0.484920 0.978915 0.226672 -0.262879
O11   O     O_3   0.567455 0.093214 0.213694 -0.379354
O12   O     O_R   0.707110 0.418540 0.472990 -0.501844
O13   O     O_2   0.899845 0.625848 0.193606 -0.202321
O14   O     O_2   0.782274 0.719220 0.254643 -0.218244
O15   O     O_3   0.910367 0.782531 0.239920 -0.450898
O16   O     O_2   0.164774 0.823497 0.989993 -0.242689
O17   O     O_2   0.115913 0.691436 0.947095 -0.258531
O18   O     O_3   0.094031 0.757288 0.077172 -0.489364
O19   O     O_2   0.327268 0.663592 0.762359 -0.319407
O20   O     O_2   0.358119 0.774744 0.856421 -0.218151
O21   O     O_3   0.509150 0.651821 0.833413 -0.501362
O22   O     O_2   0.509951 0.345565 0.163559 -0.225556
O23   O     O_R   0.267620 0.606720 0.435250 -0.535998
O24   O     O_2   0.653484 0.229868 0.143268 -0.214030
O25   O     O_3   0.684494 0.347052 0.244204 -0.480947
O26   O     O_R   0.540230 0.674660 0.578090 -0.531224
O27   O     O_R   0.485030 0.300080 0.513670 -0.561112
O28   O     O_R   0.403610 0.721990 0.472930 -0.527550
O29   O     O_R   0.571130 0.303270 0.435320 -0.455184
O30   O     O_R   0.717650 0.497270 0.578120 -0.542732
O31   O     O_R   0.307610 0.477470 0.513630 -0.540953
S1    S     S_3+6 0.683318 0.141035 0.378646 0.105759
S2    S     S_3+6 0.569193 0.008050 0.271504 0.110215
S3    S     S_3+6 0.887003 0.688664 0.257475 0.073832
S4    S     S_3+6 0.162265 0.734101 0.018239 0.034111
S5    S     S_3+6 0.397693 0.675040 0.840203 0.007344
S6    S     S_3+6 0.608661 0.329619 0.157596 0.042432
Zn1   Zn    Zn3+2 0.572030 0.427990 0.434470 1.055729
Zn2   Zn    Zn3+2 0.587090 0.540470 0.584680 0.965878
Zn3   Zn    Zn3+2 0.449010 0.423430 0.546420 0.937730
Zn4   Zn    Zn3+2 0.391880 0.608100 0.434430 0.974670

loop_
_geom_bond_atom_site_label_1
_geom_bond_atom_site_label_2
_ccdc_geom_bond_type
C40   C47   S    
C12   H17   S    
C16   O12   A    
C29   C42   A    
O25   S6    S    
C19   C20   A    
C18   C26   A    
C12   C48   A    
C44   O5    A    
O21   S5    S    
C7    C8    A    
H18   O21   S    
H16   O18   S    
C36   C37   A    
O8    S1    S    
O17   S4    D    
C22   H8    S    
C30   C31   A    
O28   Zn4   S    
O20   S5    D    
O9    S2    D    
O3    Zn4   S    
C11   C25   A    
O1    Zn3   S    
C11   C24   A    
C33   C36   A    
H5    O8    S    
H7    O11   S    
O24   S6    D    
C13   C14   A    
C17   C19   A    
O10   S2    D    
C28   O23   A    
C10   C20   A    
O1    Zn4   S    
C31   S3    S    
C40   O2    A    
O12   Zn1   S    
C27   H22   S    
C35   C43   A    
C1    O28   A    
H13   O15   S    
C23   C46   A    
C21   C22   A    
C36   C41   A    
O22   S6    D    
C9    H21   S    
C6    C9    A    
O5    Zn1   S    
O16   S4    D    
C44   C46   S    
O31   Zn3   S    
C50   C51   A    
C14   S2    S    
C4    O29   A    
C51   S5    S    
C21   H20   S    
C51   C52   A    
O23   Zn4   S    
C40   O4    A    
C38   C39   A    
C12   C46   A    
O7    S1    D    
C5    C7    A    
O14   S3    D    
C45   C52   A    
C16   C29   S    
O6    S1    D    
C25   H12   S    
O13   S3    D    
C35   C39   A    
C37   C38   A    
C2    C49   A    
C15   H6    S    
C41   H23   S    
C2    S6    S    
C31   C32   A    
C42   H9    S    
C23   C34   A    
C17   C18   A    
C34   C45   A    
C6    C50   A    
C10   H3    S    
C1    O26   A    
C30   C43   A    
C10   C25   A    
C9    C47   A    
C8    H25   S    
C39   H14   S    
C13   C26   A    
O4    Zn3   S    
O27   Zn3   S    
C52   H1    S    
O26   Zn2   S    
C45   C48   A    
C15   C17   A    
H19   O25   S    
O2    Zn2   S    
C34   C49   A    
C29   C41   A    
C18   C22   A    
O30   Zn2   S    
C3    H15   S    
C13   S1    S    
C3    C5    A    
C32   H24   S    
C4    C26   S    
C28   O31   A    
C24   H4    S    
C4    O27   A    
O11   S2    S    
C28   C43   S    
C44   O3    A    
C32   C33   A    
C2    C3    A    
C8    C47   A    
O1    Zn1   S    
C27   C42   A    
C5    C6    A    
C27   C37   A    
O1    Zn2   S    
C33   C35   A    
C19   C24   A    
C23   H26   S    
O18   S4    S    
O29   Zn1   S    
C16   O30   A    
O15   S3    S    
C20   C21   A    
C49   C50   A    
C14   C15   A    
C1    C11   S    
C7    H2    S    
O19   S5    D    
C30   H11   S    
C48   S4    S    
C38   H10   S    
