data_mof_unit_44501.cif
_audit_creation_date              2012-12-11T15:39:21-0500
_audit_creation_method            fapswitch 2.2
_symmetry_space_group_name_H-M    P1
_symmetry_Int_Tables_number       1
_space_group_crystal_system       triclinic
_cell_length_a                    14.317827
_cell_length_b                    14.817415
_cell_length_c                    33.221804
_cell_angle_alpha                 97.523848
_cell_angle_beta                  90.677562
_cell_angle_gamma                 118.755947
_cell_volume                      6102.97935146

loop_
_atom_site_label
_atom_site_type_symbol
_atom_type_description
_atom_site_fract_x
_atom_site_fract_y
_atom_site_fract_z
_atom_type_partial_charge
C1    C     C_R   0.616481 0.910796 0.436831 0.543485
C2    C     C_R   0.711935 0.437218 0.949340 0.540011
C3    C     C_R   0.591343 0.848971 0.775819 -0.128599
C4    C     C_R   0.602768 0.861097 0.735065 -0.143163
C5    C     C_R   0.616574 0.789209 0.707372 0.032810
C6    C     C_R   0.614431 0.701773 0.720707 0.095725
C7    C     C_R   0.601982 0.689649 0.761678 -0.092074
C8    C     C_R   0.592784 0.764239 0.789539 0.002414
C9    C     C_R   0.554319 0.738054 0.633731 -0.089844
C10   C     C_R   0.554996 0.766172 0.595294 -0.119090
C11   C     C_R   0.714091 0.931816 0.618111 -0.127420
C12   C     C_3   0.535642 0.319388 0.095697 -0.276751
C13   C     C_R   0.709515 0.740166 0.950315 0.537698
C14   C     C_3   0.489583 0.202539 0.096004 -0.454259
C15   C     C_3   0.198922 0.711358 0.288266 -0.272267
C16   C     C_3   0.203061 0.619306 0.302638 -0.459510
C17   C     C_3   0.165963 0.017281 0.101190 -0.275022
C18   C     C_3   0.079013 0.047412 0.108087 -0.428616
C19   C     C_3   0.485175 0.307289 0.818214 -0.278374
C20   C     C_3   0.507983 0.405591 0.800697 -0.441175
C21   C     C_3   0.491258 0.568446 0.909461 -0.261742
C22   C     C_3   0.378723 0.499341 0.888067 -0.473289
C23   C     C_R   0.837498 0.478017 0.170102 -0.131635
C24   C     C_R   0.836359 0.490185 0.129410 -0.139971
C25   C     C_R   0.792114 0.371273 0.248164 -0.115284
C26   C     C_R   0.783262 0.358108 0.288974 -0.112455
C27   C     C_R   0.725452 0.395176 0.313385 0.032938
C28   C     C_R   0.681672 0.450461 0.296663 -0.114806
C29   C     C_R   0.688678 0.461586 0.255666 -0.114447
C30   C     C_R   0.741819 0.419972 0.231117 0.026450
C31   C     C_R   0.741398 0.424422 0.187390 0.011188
C32   C     C_R   0.596050 0.334269 0.366217 -0.118478
C33   C     C_R   0.593558 0.205278 0.456543 0.546538
C34   C     C_R   0.564078 0.288348 0.401059 -0.123274
C35   C     C_R   0.739517 0.305940 0.413695 -0.126107
C36   C     C_R   0.772091 0.353355 0.379019 -0.119237
C37   C     C_R   0.699366 0.364475 0.354118 0.033923
C38   C     C_R   0.634178 0.270238 0.424256 0.023688
C39   C     C_R   0.246691 0.880618 0.393130 0.000487
C40   C     C_R   0.232374 0.961484 0.381680 -0.134436
C41   C     C_R   0.211928 0.963563 0.340843 -0.129451
C42   C     C_R   0.713554 0.903315 0.656544 -0.115139
C43   C     C_R   0.204634 0.884661 0.310796 0.038995
C44   C     C_R   0.210881 0.798264 0.321661 0.035114
C45   C     C_R   0.295783 0.893153 0.434346 0.540276
C46   C     C_R   0.231933 0.797553 0.363195 -0.104032
C47   C     C_R   0.151014 0.781457 0.168595 -0.127448
C48   C     C_R   0.122962 0.755990 0.127061 -0.139657
C49   C     C_R   0.150249 0.930320 0.124247 0.010694
C50   C     C_R   0.177149 0.954534 0.166833 -0.094638
C51   C     C_R   0.173278 0.878601 0.188890 0.024876
C52   C     C_1   0.187285 0.894540 0.232523 -0.036101
C53   C     C_R   0.631390 0.807928 0.664941 0.054805
C54   C     C_1   0.195294 0.894703 0.268616 -0.037825
C55   C     C_R   0.114730 0.826664 0.104513 0.025391
C56   C     C_R   0.635303 0.881295 0.394763 0.021151
C57   C     C_R   0.614001 0.905269 0.551674 0.543350
C58   C     C_R   0.548716 0.807439 0.367145 -0.129985
C59   C     C_R   0.560060 0.798519 0.325346 -0.117119
C60   C     C_R   0.658012 0.862589 0.310801 0.039306
C61   C     C_R   0.746392 0.931116 0.338159 -0.113403
C62   C     C_R   0.735253 0.940404 0.379942 -0.124643
C63   C     C_R   0.763333 0.931799 0.171753 -0.111872
C64   C     C_R   0.631829 0.865385 0.587728 0.020103
C65   C     C_R   0.778814 0.915846 0.130464 -0.131343
C66   C     C_R   0.621661 0.744888 0.122377 -0.124374
C67   C     C_R   0.606018 0.761196 0.163383 -0.115353
C68   C     C_R   0.679097 0.852748 0.188455 0.039497
C69   C     C_R   0.589732 0.198901 0.571021 0.543419
C70   C     C_1   0.672522 0.859944 0.231676 -0.032221
C71   C     C_1   0.666369 0.861677 0.267805 -0.032268
C72   C     C_R   0.711385 0.819831 0.105919 0.019267
C73   C     C_R   0.622958 0.247118 0.614202 0.022620
C74   C     C_R   0.556223 0.274161 0.637527 -0.105080
C75   C     C_R   0.053575 0.781504 0.063701 0.533627
C76   C     C_R   0.573378 0.295478 0.679964 -0.090714
C77   C     C_R   0.657481 0.290482 0.699498 0.045018
C78   C     C_R   0.728518 0.270554 0.676536 -0.112756
C79   C     C_R   0.711698 0.249375 0.634078 -0.126349
C80   C     C_R   0.758745 0.334067 0.846578 -0.133954
C81   C     C_R   0.289343 0.886903 0.548537 0.544521
C82   C     C_R   0.768543 0.362927 0.888740 -0.136916
C83   C     C_R   0.592936 0.348981 0.884955 -0.118683
C84   C     C_R   0.583246 0.322346 0.842406 0.033371
C85   C     C_R   0.668659 0.317847 0.823166 0.051166
C86   C     C_R   0.743296 0.484485 0.065644 0.534376
C87   C     C_1   0.668772 0.305951 0.779525 -0.030228
C88   C     C_1   0.665929 0.299078 0.743018 -0.034120
C89   C     C_R   0.687878 0.375501 0.908112 0.004206
C90   C     C_R   0.070582 0.756225 0.909133 0.023951
C91   C     C_R   0.098269 0.852555 0.896937 -0.126815
C92   C     C_R   0.121538 0.867376 0.857047 -0.121795
C93   C     C_R   0.739175 0.447218 0.104991 0.028091
C94   C     C_R   0.116962 0.785944 0.828818 0.033404
C95   C     C_R   0.097392 0.692461 0.841829 -0.118095
C96   C     C_R   0.074755 0.677819 0.881821 -0.125489
C97   C     C_R   0.742450 0.789153 0.066305 0.542420
C98   C     C_R   0.181689 0.756948 0.761737 -0.115601
C99   C     C_R   0.185611 0.763013 0.720366 -0.112850
C100  C     C_R   0.132565 0.807909 0.702052 0.032601
C101  C     C_R   0.075033 0.846266 0.725527 -0.104851
C102  C     C_R   0.070432 0.839520 0.766926 -0.107437
C103  C     C_R   0.124343 0.795397 0.785356 0.030872
C104  C     C_R   0.182858 0.921258 0.648515 -0.119005
C105  C     C_R   0.641949 0.382607 0.121296 0.016882
C106  C     C_R   0.221734 0.941006 0.610592 -0.127735
C107  C     C_R   0.176117 0.759641 0.592483 -0.124063
C108  C     C_R   0.021837 0.732348 0.947556 0.543846
C109  C     C_R   0.137475 0.740069 0.630333 -0.114866
C110  C     C_R   0.145859 0.821928 0.659267 0.034908
C111  C     C_R   0.223938 0.861465 0.583247 0.022003
C112  C     C_R   0.657131 0.748917 0.913149 0.016411
C113  C     C_R   0.562894 0.664997 0.890787 0.004990
C114  C     C_R   0.539606 0.672367 0.850260 -0.100012
C115  C     C_R   0.602833 0.762660 0.833501 0.013168
C116  C     C_R   0.684955 0.849427 0.857899 -0.124274
C117  C     C_R   0.644369 0.375784 0.163039 -0.097093
C118  C     C_R   0.711911 0.842614 0.897091 -0.134995
Cr1   Cr    Cr6+3 0.424820 0.846020 0.489780 1.009545
Cr2   Cr    Cr6+3 0.657880 0.078580 0.505700 1.012324
Cr3   Cr    Cr6+3 0.417280 0.075360 0.504550 1.013540
Cr4   Cr    Cr6+3 0.903360 0.812540 0.006510 1.000763
Cr5   Cr    Cr6+3 0.914630 0.587050 0.006280 1.006494
Cr6   Cr    Cr6+3 0.673560 0.582680 0.008540 0.993030
H1    H     H_    0.482263 0.261468 0.408388 0.127603
H2    H     H_    0.205953 0.029064 0.332549 0.108312
H3    H     H_    0.846548 0.976163 0.118469 0.113121
H4    H     H_    0.819727 0.003558 0.190961 0.105166
H5    H     H_    0.822739 0.980404 0.327122 0.107014
H6    H     H_    0.803345 0.997966 0.400418 0.126435
H7    H     H_    0.470491 0.761442 0.377497 0.124130
H8    H     H_    0.540102 0.699925 0.175989 0.104254
H9    H     H_    0.567077 0.670528 0.104283 0.126127
H10   H     H_    0.491352 0.744818 0.304308 0.104850
H11   H     H_    0.842550 0.382443 0.905721 0.125521
H12   H     H_    0.913040 0.515000 0.188627 0.108609
H13   H     H_    0.852899 0.377808 0.370901 0.100618
H14   H     H_    0.824394 0.330396 0.831986 0.106189
H15   H     H_    0.794114 0.266996 0.691458 0.104412
H16   H     H_    0.764449 0.228604 0.617062 0.124871
H17   H     H_    0.487250 0.273043 0.623212 0.135066
H18   H     H_    0.529567 0.357120 0.899520 0.116981
H19   H     H_    0.518360 0.311515 0.697597 0.120104
H20   H     H_    0.096775 0.914632 0.917648 0.117216
H21   H     H_    0.053286 0.602662 0.890460 0.124559
H22   H     H_    0.107344 0.662517 0.638007 0.111830
H23   H     H_    0.795518 0.293925 0.431370 0.121316
H24   H     H_    0.816611 0.313884 0.300665 0.100850
H25   H     H_    0.232655 0.735277 0.702861 0.108270
H26   H     H_    0.224713 0.723634 0.775383 0.104306
H27   H     H_    0.139121 0.941051 0.847847 0.099721
H28   H     H_    0.033803 0.881202 0.711811 0.113600
H29   H     H_    0.023790 0.867719 0.784435 0.109074
H30   H     H_    0.189953 0.985404 0.670569 0.103091
H31   H     H_    0.257557 0.020065 0.604071 0.126806
H32   H     H_    0.093085 0.628379 0.820528 0.104359
H33   H     H_    0.175030 0.696502 0.571582 0.128333
H34   H     H_    0.100786 0.677253 0.113281 0.128804
H35   H     H_    0.833707 0.339135 0.229404 0.104030
H36   H     H_    0.780888 0.909784 0.913890 0.132574
H37   H     H_    0.773519 0.958221 0.680481 0.106233
H38   H     H_    0.602574 0.927852 0.725160 0.114658
H39   H     H_    0.584741 0.907443 0.796957 0.114571
H40   H     H_    0.474489 0.607513 0.830899 0.109821
H41   H     H_    0.605854 0.625309 0.772248 0.128334
H42   H     H_    0.489562 0.664783 0.639853 0.131993
H43   H     H_    0.490761 0.713065 0.572420 0.126010
H44   H     H_    0.733978 0.920343 0.845575 0.110295
H45   H     H_    0.150361 0.722953 0.185273 0.101347
H46   H     H_    0.570492 0.331808 0.176691 0.108714
H47   H     H_    0.774119 0.008725 0.613230 0.124217
H48   H     H_    0.638895 0.482063 0.314909 0.103222
H49   H     H_    0.651146 0.501071 0.242870 0.108845
H50   H     H_    0.537300 0.339933 0.347472 0.100984
H51   H     H_    0.548689 0.177668 0.086135 0.161757
H52   H     H_    0.467424 0.182793 0.126834 0.146805
H53   H     H_    0.416462 0.158519 0.074546 0.130513
H54   H     H_    0.478006 0.344186 0.107647 0.137868
H55   H     H_    0.542825 0.330113 0.063338 0.172324
H56   H     H_    0.242860 0.735717 0.372371 0.130395
H57   H     H_    0.282606 0.645155 0.318468 0.139152
H58   H     H_    0.139019 0.582223 0.323129 0.151791
H59   H     H_    0.190178 0.560097 0.275820 0.134328
H60   H     H_    0.120889 0.680204 0.270216 0.147457
H61   H     H_    0.263207 0.744977 0.267485 0.146377
H62   H     H_    0.091291 0.109765 0.090096 0.126292
H63   H     H_    0.999990 0.978741 0.098027 0.197169
H64   H     H_    0.080867 0.076381 0.140819 0.133994
H65   H     H_    0.245021 0.086540 0.111661 0.128255
H66   H     H_    0.167759 0.995676 0.068053 0.151381
H67   H     H_    0.243029 0.026535 0.404053 0.128087
H68   H     H_    0.542020 0.474160 0.825238 0.158729
H69   H     H_    0.565336 0.420330 0.776998 0.173947
H70   H     H_    0.432582 0.396285 0.786572 0.129831
H71   H     H_    0.457603 0.240104 0.793199 0.146867
H72   H     H_    0.418168 0.288732 0.838003 0.128793
H73   H     H_    0.339107 0.546554 0.883992 0.157166
H74   H     H_    0.381295 0.457965 0.858140 0.141870
H75   H     H_    0.329971 0.439373 0.907019 0.135245
H76   H     H_    0.531351 0.520657 0.910504 0.173720
H77   H     H_    0.479902 0.594015 0.941115 0.160246
H78   H     H_    0.200067 0.031872 0.182703 0.105247
H79   H     H_    0.911881 0.538570 0.117696 0.129611
I1    I     I_    0.640758 0.591597 0.682119 -0.456793
O1    O     O_R   0.318160 0.824460 0.443680 -0.523114
O2    O     O_R   0.668160 0.499860 0.053480 -0.522561
O3    O     O_R   0.689170 0.693840 0.050110 -0.500218
O4    O     O_R   0.525040 0.857250 0.449830 -0.502994
O5    O     O_R   0.803860 0.812940 0.962540 -0.516516
O6    O     O_R   0.982950 0.787950 0.964120 -0.500973
O7    O     O_R   0.007050 0.649970 0.960540 -0.520255
O8    O     O_R   0.807910 0.482370 0.965590 -0.498578
O9    O     O_R   0.643310 0.460980 0.963840 -0.530981
O10   O     O_R   0.666140 0.657800 0.967020 -0.511026
O11   O     O_3   0.830520 0.660760 0.007110 -0.227100
O12   O     O_R   0.645130 0.163230 0.552140 -0.503417
O13   O     O_R   0.684760 0.998800 0.456360 -0.516779
O14   O     O_R   0.647540 0.166310 0.470260 -0.500099
O15   O     O_R   0.500960 0.181750 0.467450 -0.519193
O16   O     O_R   0.331100 0.981120 0.457080 -0.500272
O17   O     O_R   0.315560 0.821140 0.532010 -0.518898
O18   O     O_R   0.522630 0.854180 0.531710 -0.500454
O19   O     O_R   0.682160 0.995480 0.544690 -0.519213
O20   O     O_R   0.498360 0.178430 0.555780 -0.517462
O21   O     O_R   0.328690 0.978040 0.538950 -0.502602
O22   O     O_3   0.499990 0.999990 0.500010 -0.235899
O23   O     O_R   0.828710 0.851830 0.052170 -0.528678
O24   O     O_R   0.005980 0.823990 0.047210 -0.499727
O25   O     O_R   0.031900 0.688850 0.050170 -0.525489
O26   O     O_R   0.830940 0.518420 0.048680 -0.503065

loop_
_geom_bond_atom_site_label_1
_geom_bond_atom_site_label_2
_ccdc_geom_bond_type
C48   C55   A    
C104  C110  A    
C87   C88   T    
C63   C65   A    
C24   H79   S    
C19   H71   S    
C101  C102  A    
Cr5   O11   S    
C107  C109  A    
C73   C74   A    
C62   H6    S    
C22   H73   S    
C118  H36   S    
C95   C96   A    
C78   H15   S    
C86   O2    A    
C104  C106  A    
C114  C115  A    
C16   H59   S    
C7    C8    A    
Cr6   O10   S    
C77   C78   A    
C100  C110  S    
C96   H21   S    
C15   H61   S    
C28   C29   A    
C26   C27   A    
C80   C85   A    
C82   C89   A    
C74   C76   A    
C23   H12   S    
C83   C84   A    
C5    C6    A    
C65   H3    S    
C5    C53   S    
C75   O24   A    
C1    C56   S    
C15   C44   S    
C91   H20   S    
C13   C112  S    
C42   C53   A    
C57   O19   A    
C30   C31   S    
C16   H58   S    
C98   C103  A    
C18   H63   S    
Cr1   O17   S    
Cr3   O21   S    
Cr4   O11   S    
C3    C4    A    
C11   C42   A    
C95   H32   S    
C82   H11   S    
C75   O25   A    
C1    O4    A    
C31   C117  A    
C14   H52   S    
C8    C115  S    
C93   C105  A    
C117  H46   S    
C28   H48   S    
C107  H33   S    
C66   C72   A    
C81   C111  S    
C77   C88   S    
C44   C46   A    
C10   H43   S    
Cr5   O7    S    
C25   H35   S    
C23   C24   A    
Cr4   O6    S    
C69   C73   S    
C70   C71   T    
Cr1   O1    S    
C9    C10   A    
C63   H4    S    
C61   H5    S    
C39   C45   S    
C55   C75   S    
C50   H78   S    
C79   H16   S    
C7    H41   S    
C67   H8    S    
C59   C60   A    
C34   C38   A    
C21   C22   S    
C15   H60   S    
C41   C43   A    
C105  C117  A    
C102  C103  A    
C69   O12   A    
C92   H27   S    
C20   H70   S    
C112  C113  A    
C47   H45   S    
C52   C54   T    
C17   C18   S    
C57   O18   A    
C33   O15   A    
Cr5   O26   S    
C83   C89   A    
C42   H37   S    
C15   C16   S    
C85   C87   S    
C67   C68   A    
C86   O26   A    
C21   H77   S    
C22   H75   S    
C35   C38   A    
C84   C85   A    
C21   C113  S    
C11   C64   A    
C17   C49   S    
C91   C92   A    
C16   H57   S    
Cr2   O13   S    
C47   C51   A    
C60   C71   S    
C17   H65   S    
C25   C26   A    
C33   O14   A    
C32   H50   S    
C18   H62   S    
Cr1   O18   S    
Cr3   O22   S    
C51   C52   S    
C60   C61   A    
C35   C36   A    
C23   C31   A    
C13   O10   A    
C2    C89   S    
C43   C44   A    
C6    I1    S    
C29   C30   A    
C86   C93   S    
C13   O5    A    
C66   H9    S    
C99   H25   S    
C43   C54   S    
C114  H40   S    
C47   C48   A    
Cr5   O25   S    
C58   H7    S    
Cr4   O24   S    
Cr5   O8    S    
C46   H56   S    
C92   C94   A    
C50   C51   A    
C73   C79   A    
Cr4   O5    S    
C94   C95   A    
C19   H72   S    
C35   H23   S    
C32   C37   A    
C97   O3    A    
C26   H24   S    
C102  H29   S    
C20   H69   S    
C81   O21   A    
C116  C118  A    
C39   C46   A    
C36   H13   S    
C80   C82   A    
C40   C41   A    
C97   O23   A    
C74   H17   S    
C12   C14   S    
C94   C103  S    
C3    C8    A    
Cr2   O19   S    
Cr6   O3    S    
Cr3   O16   S    
C4    H38   S    
C9    C53   A    
C21   H76   S    
C106  C111  A    
Cr2   O22   S    
C11   H47   S    
C39   C40   A    
C108  O7    A    
C57   C64   S    
C9    H42   S    
C113  C114  A    
C98   H26   S    
C25   C30   A    
C14   H51   S    
C63   C68   A    
C36   C37   A    
C45   O1    A    
C101  H28   S    
Cr6   O2    S    
Cr3   O15   S    
C107  C111  A    
C41   H2    S    
C22   H74   S    
C10   C64   A    
C29   H49   S    
C19   C84   S    
C20   H68   S    
C83   H18   S    
C108  O6    A    
C90   C96   A    
C6    C7    A    
C3    H39   S    
C17   H66   S    
Cr2   O12   S    
C65   C72   A    
C81   O17   A    
C59   H10   S    
C2    O8    A    
C33   C38   S    
C99   C100  A    
C69   O20   A    
C19   C20   S    
C49   C50   A    
C58   C59   A    
C90   C108  S    
C49   C55   A    
C24   C93   A    
C112  C118  A    
C76   C77   A    
C78   C79   A    
C90   C91   A    
C12   C105  S    
C40   H67   S    
C48   H34   S    
C27   C37   S    
C34   H1    S    
C80   H14   S    
Cr4   O23   S    
C18   H64   S    
C100  C101  A    
Cr3   O20   S    
C56   C58   A    
C66   C67   A    
C56   C62   A    
C61   C62   A    
C12   H54   S    
C109  H22   S    
Cr6   O9    S    
C76   H19   S    
C4    C5    A    
C12   H55   S    
C2    O9    A    
C68   C70   S    
C98   C99   A    
C27   C28   A    
C45   O16   A    
C72   C97   S    
C14   H53   S    
C116  H44   S    
C106  H31   S    
C1    O13   A    
Cr1   O4    S    
C104  H30   S    
Cr2   O14   S    
C109  C110  A    
C115  C116  A    
Cr1   O22   S    
C32   C34   A    
Cr6   O11   S    
