data_mof_unit_19301.cif
_audit_creation_date              2012-12-11T14:49:56-0500
_audit_creation_method            fapswitch 2.2
_symmetry_space_group_name_H-M    P1
_symmetry_Int_Tables_number       1
_space_group_crystal_system       triclinic
_cell_length_a                    16.86493
_cell_length_b                    16.716589
_cell_length_c                    19.634367
_cell_angle_alpha                 118.147812
_cell_angle_beta                  63.4173
_cell_angle_gamma                 100.599051
_cell_volume                      4362.21063219

loop_
_atom_site_label
_atom_site_type_symbol
_atom_type_description
_atom_site_fract_x
_atom_site_fract_y
_atom_site_fract_z
_atom_type_partial_charge
C1    C     C_R   0.041595 0.759093 0.008022 0.561406
C2    C     C_R   0.239551 0.574023 0.835057 0.482916
C3    C     C_R   0.195797 0.438299 0.037329 -0.125003
C4    C     C_R   0.763654 0.421368 0.163078 -0.129363
C5    C     C_R   0.986902 0.338701 0.760093 -0.124395
C6    C     C_R   0.276291 0.450487 0.977932 0.029827
C7    C     C_R   0.939282 0.261656 0.759890 0.046051
C8    C     C_R   0.238200 0.546978 0.756980 -0.243569
C9    C     C_R   0.009414 0.223356 0.019728 0.027480
C10   C     C_R   0.862630 0.120780 0.703049 -0.257348
C11   C     C_R   0.902028 0.200899 0.698796 0.112164
C12   C     C_R   0.766343 0.444124 0.238448 0.042495
C13   C     C_R   0.911727 0.218473 0.632189 -0.208802
C14   C     C_R   0.894873 0.151012 0.564010 0.076563
C15   C     C_R   0.866249 0.066377 0.563788 0.031334
C16   C     C_R   0.816383 0.508758 0.911689 -0.237698
C17   C     C_R   0.845233 0.053073 0.635668 0.160514
C18   C     C_R   0.911366 0.164535 0.493715 -0.379400
C19   C     C_R   0.908885 0.091500 0.419768 0.598427
C20   C     C_R   0.896374 0.003368 0.414338 -0.058354
C21   C     C_R   0.867074 0.992579 0.488954 -0.030570
C22   C     C_R   0.845931 0.906423 0.487046 0.179629
C23   C     C_R   0.740999 0.460782 0.935205 -0.108336
C24   C     C_R   0.814984 0.896091 0.561576 -0.214067
C25   C     C_R   0.815066 0.969245 0.635703 -0.210139
C26   C     C_R   0.919124 0.925774 0.335932 -0.204487
C27   C     C_R   0.911502 0.839290 0.333264 0.098809
C28   C     C_R   0.953722 0.672101 0.247051 -0.118618
C29   C     C_R   0.865096 0.830725 0.409413 -0.244589
C30   C     C_R   0.374153 0.463008 0.649007 -0.277617
C31   C     C_R   0.314921 0.533290 0.681379 0.140784
C32   C     C_R   0.326352 0.585589 0.640195 -0.238005
C33   C     C_R   0.400443 0.568576 0.564805 0.131240
C34   C     C_R   0.959064 0.758735 0.254139 0.041656
C35   C     C_R   0.462180 0.498419 0.531897 0.028532
C36   C     C_R   0.448651 0.445358 0.574275 0.080316
C37   C     C_R   0.414030 0.620587 0.522162 -0.206171
C38   C     C_R   0.489299 0.604138 0.447381 -0.216302
C39   C     C_R   0.551047 0.535838 0.415414 0.181013
C40   C     C_R   0.746833 0.436974 0.991964 0.615060
C41   C     C_R   0.537696 0.482117 0.457281 -0.028353
C42   C     C_R   0.600440 0.413007 0.424938 -0.057806
C43   C     C_R   0.585070 0.358498 0.466284 0.624730
C44   C     C_R   0.509503 0.376042 0.541755 -0.382887
C45   C     C_R   0.260465 0.516350 0.961476 -0.122519
C46   C     C_R   0.626766 0.520887 0.342455 -0.259403
C47   C     C_R   0.688812 0.454287 0.312190 0.095564
C48   C     C_R   0.677155 0.400398 0.351956 -0.217696
C49   C     C_R   0.675609 0.432219 0.898136 0.155015
C50   C     C_R   0.363471 0.406385 0.940659 0.135799
C51   C     C_R   0.461144 0.322098 0.946239 -0.222788
C52   C     C_R   0.018993 0.753216 0.174409 -0.131584
C53   C     C_R   0.375655 0.344803 0.965302 -0.171095
C54   C     C_R   0.437772 0.434466 0.886814 -0.280823
C55   C     C_R   0.522033 0.420097 0.875397 0.199238
C56   C     C_R   0.921691 0.260559 0.835356 -0.132406
C57   C     C_R   0.533700 0.365542 0.907444 0.157962
C58   C     C_R   0.614250 0.365822 0.911028 -0.276857
C59   C     C_R   0.667527 0.478886 0.857782 -0.163819
C60   C     C_R   0.592153 0.470054 0.843470 -0.227656
C61   C     C_R   0.824504 0.183340 0.147879 0.081099
C62   C     C_R   0.952869 0.862966 0.997901 0.127066
C63   C     C_R   0.859486 0.944262 0.983592 -0.192507
C64   C     C_R   0.841734 0.490839 0.239930 -0.135306
C65   C     C_R   0.902683 0.864451 0.957312 -0.151370
C66   C     C_R   0.963286 0.945014 0.062247 -0.230501
C67   C     C_R   0.162066 0.499499 0.756440 0.535546
C68   C     C_R   0.921826 0.026424 0.087829 -0.013533
C69   C     C_R   0.866658 0.024894 0.050125 0.134274
C70   C     C_R   0.818261 0.103576 0.080639 -0.287830
C71   C     C_R   0.881416 0.186401 0.183105 -0.367466
C72   C     C_R   0.932889 0.109061 0.151529 0.572094
C73   C     C_R   0.954518 0.689763 0.940099 -0.192196
C74   C     C_R   0.984943 0.774731 0.979938 -0.134681
C75   C     C_3   0.166271 0.832131 0.957456 -0.152106
C76   C     C_3   0.168892 0.406516 0.624004 -0.270040
C77   C     C_3   0.374078 0.644141 0.822851 -0.271957
C78   C     C_R   0.037111 0.308147 0.063960 -0.128993
C79   C     C_3   0.833184 0.127392 0.368016 -0.136728
C80   C     C_3   0.618864 0.207996 0.386103 -0.302265
C81   C     C_3   0.061019 0.166966 0.165426 -0.182800
C82   C     C_3   0.615934 0.438971 0.098398 -0.373744
C83   C     C_R   0.962964 0.239330 0.983799 -0.089130
H1    H     H_    0.874798 0.218949 0.862641 0.100764
H2    H     H_    0.796975 0.958765 0.691213 0.128618
H3    H     H_    0.361789 0.422604 0.682580 0.120852
H4    H     H_    0.277839 0.638736 0.666905 0.138913
H5    H     H_    0.366870 0.674089 0.546876 0.131557
H6    H     H_    0.499673 0.645163 0.414938 0.128774
H7    H     H_    0.638644 0.561872 0.309495 0.125694
H8    H     H_    0.839892 0.527565 0.860346 0.134739
H9    H     H_    0.498706 0.335611 0.574855 0.163354
H10   H     H_    0.623274 0.322107 0.933661 0.189739
H11   H     H_    0.715484 0.527591 0.843241 0.119288
H12   H     H_    0.066226 0.322343 0.107355 0.081781
H13   H     H_    0.430982 0.477260 0.862197 0.109689
H14   H     H_    0.885408 0.249117 0.235037 0.152807
H15   H     H_    0.818917 0.942436 0.952949 0.119701
H16   H     H_    0.000454 0.945002 0.095048 0.204544
H17   H     H_    0.039328 0.809555 0.159129 0.161311
H18   H     H_    0.912893 0.672939 0.906753 0.132270
H19   H     H_    0.306936 0.544622 0.920414 0.141531
H20   H     H_    0.137953 0.885643 0.955689 0.117293
H21   H     H_    0.183964 0.770031 0.895599 0.150463
H22   H     H_    0.228689 0.857626 0.965216 0.174569
H23   H     H_    0.926518 0.189992 0.949664 0.095793
H24   H     H_    0.181786 0.350061 0.633278 0.125735
H25   H     H_    0.231549 0.426467 0.583454 0.170518
H26   H     H_    0.126236 0.379838 0.588791 0.162789
H27   H     H_    0.385649 0.668959 0.775870 0.164755
H28   H     H_    0.404943 0.575362 0.791681 0.128471
H29   H     H_    0.407842 0.690888 0.863629 0.168102
H30   H     H_    0.999056 0.368658 0.718465 0.143961
H31   H     H_    0.717381 0.376850 0.139540 0.165057
H32   H     H_    0.800321 0.186540 0.430680 0.137201
H33   H     H_    0.790708 0.067210 0.362995 0.104256
H34   H     H_    0.185523 0.394444 0.066456 0.089878
H35   H     H_    0.838840 0.146330 0.319290 0.188144
H36   H     H_    0.851794 0.765242 0.409721 0.113815
H37   H     H_    0.727511 0.349308 0.325674 0.166559
H38   H     H_    0.668556 0.154203 0.359731 0.166340
H39   H     H_    0.615548 0.209723 0.331415 0.146092
H40   H     H_    0.553905 0.188905 0.425068 0.148084
H41   H     H_    0.469351 0.279079 0.970282 0.131288
H42   H     H_    0.584355 0.511191 0.817471 0.127014
H43   H     H_    0.319711 0.318529 0.003452 0.112731
H44   H     H_    0.774676 0.103223 0.053428 0.134539
H45   H     H_    0.852296 0.106962 0.754920 0.117294
H46   H     H_    0.914679 0.649439 0.294924 0.094935
H47   H     H_    0.039579 0.239789 0.200508 0.122206
H48   H     H_    0.094224 0.145496 0.095674 0.107037
H49   H     H_    0.110911 0.159675 0.184636 0.173261
H50   H     H_    0.894227 0.803333 0.906636 0.114859
H51   H     H_    0.578561 0.466063 0.078812 0.166293
H52   H     H_    0.635825 0.496281 0.146752 0.151346
H53   H     H_    0.570116 0.397197 0.129124 0.187964
H54   H     H_    0.866399 0.512370 0.287996 0.097464
H55   H     H_    0.937772 0.281748 0.629963 0.115488
H56   H     H_    0.927950 0.230976 0.495219 0.166491
H57   H     H_    0.949311 0.933010 0.277591 0.165930
H58   H     H_    0.797001 0.830165 0.560976 0.129565
N1    N     N_R   0.036080 0.671900 0.995420 -0.089480
N2    N     N_R   0.867430 0.509300 0.948100 -0.063113
N3    N     N_R   0.003360 0.617250 0.167070 -0.047788
N4    N     N_R   0.825450 0.461270 0.995400 -0.096091
N5    N     N_R   0.045340 0.665280 0.119770 -0.036600
N6    N     N_R   0.883740 0.497640 0.167070 -0.045521
N7    N     N_R   0.987050 0.628910 0.948110 -0.068023
N8    N     N_R   0.174550 0.538730 0.004600 -0.033385
N9    N     N_R   0.954660 0.334720 0.880230 -0.049717
N10   N     N_R   0.116260 0.502360 0.832930 -0.127798
N11   N     N_R   0.012950 0.371090 0.051890 -0.040900
N12   N     N_R   0.963920 0.328100 0.004580 -0.044301
N13   N     N_R   0.165290 0.545350 0.880240 -0.125759
N14   N     N_R   0.132570 0.490700 0.051900 -0.045156
N15   N     N_R   0.996640 0.382750 0.832930 -0.040536
N16   N     N_R   0.834710 0.454650 0.119760 -0.043088
Ni1   Ni    Ni4+2 0.104370 0.604370 0.000010 0.278139
Ni2   Ni    Ni4+2 0.895630 0.395630 0.999990 0.227440
Ni3   Ni    Ni4+2 0.991920 0.505780 0.891500 0.219577
Ni4   Ni    Ni4+2 0.008080 0.494220 0.108500 0.202416
O1    O     O_3   0.107837 0.814619 0.027150 -0.646234
O2    O     O_3   0.124273 0.482168 0.701504 -0.613933
O3    O     O_3   0.282876 0.647613 0.874808 -0.608802
O4    O     O_3   0.918636 0.107043 0.353468 -0.588309
O5    O     O_3   0.645993 0.291425 0.435829 -0.623495
O6    O     O_3   0.989183 0.111918 0.186640 -0.590394
O7    O     O_3   0.690127 0.383750 0.028384 -0.651582

loop_
_geom_bond_atom_site_label_1
_geom_bond_atom_site_label_2
_ccdc_geom_bond_type
C70   H44   S    
C61   C70   A    
C66   C68   A    
C63   C65   A    
N12   Ni2   S    
C6    C45   A    
C79   H32   S    
N3    Ni4   S    
C27   C29   A    
C41   C42   A    
C14   C18   A    
C37   H5    S    
C35   C36   A    
C3    C6    A    
C81   H47   S    
C78   N11   A    
N2    Ni3   S    
C39   C41   A    
C82   O7    S    
C8    C67   A    
N14   Ni4   S    
C7    C11   S    
C29   H36   S    
C38   H6    S    
C26   C27   A    
C50   C54   A    
C40   N4    A    
C75   O1    S    
C1    C74   A    
C4    H31   S    
C60   H42   S    
C22   C29   A    
C58   H10   S    
N13   Ni1   S    
C63   H15   S    
C26   H57   S    
C30   C31   A    
N4    Ni2   S    
C23   C49   S    
C10   C17   A    
C23   C40   A    
C79   H35   S    
C15   C17   A    
C28   H46   S    
N7    Ni3   S    
N10   N13   A    
C82   H52   S    
C77   H28   S    
C1    N1    A    
C3    H34   S    
C68   C69   A    
C63   C69   A    
C76   H26   S    
C76   H25   S    
C28   N3    A    
C59   H11   S    
C13   C14   A    
C4    C12   A    
N8    Ni1   S    
C24   H58   S    
C54   H13   S    
N11   Ni4   S    
C44   H9    S    
C80   H38   S    
C61   C71   A    
C77   O3    S    
C73   H18   S    
C28   C34   A    
C59   C60   A    
N16   Ni2   S    
N9    N15   A    
C21   C22   A    
C75   H20   S    
C51   H41   S    
C18   H56   S    
C7    C56   A    
N1    Ni1   S    
C12   C47   S    
C10   H45   S    
C80   O5    S    
C56   H1    S    
C64   H54   S    
C27   C34   S    
C50   C53   A    
N9    Ni2   S    
C62   C66   A    
C73   N7    A    
C67   N10   A    
N1    N7    A    
N15   Ni3   S    
C16   N2    A    
C24   C25   A    
N3    N5    A    
N6    Ni4   S    
C2    O3    S    
C5    C7    A    
C18   C19   A    
C81   H49   S    
C80   H39   S    
C32   H4    S    
C52   H17   S    
C4    N16   A    
C33   C37   A    
C49   C58   A    
C32   C33   A    
C51   C53   A    
C66   H16   S    
C82   H51   S    
C77   H29   S    
C43   C44   A    
C37   C38   A    
C71   H14   S    
C47   C48   A    
C78   H12   S    
C68   C72   A    
C25   H2    S    
C81   O6    S    
C53   H43   S    
C42   C48   A    
C79   O4    S    
N5    Ni1   S    
C9    C83   A    
C39   C46   A    
C51   C57   A    
C1    O1    S    
C75   H22   S    
C76   H24   S    
C55   C57   A    
C64   N6    A    
C75   H21   S    
C72   O6    S    
C22   C24   A    
C36   C44   A    
C30   H3    S    
C3    N14   A    
C56   N9    A    
N6    N16   A    
C73   C74   A    
C48   H37   S    
C43   O5    S    
N2    N4    A    
C54   C55   A    
C52   N5    A    
C6    C50   S    
C62   C65   A    
C5    H30   S    
C8    C31   S    
C45   H19   S    
C31   C32   A    
C2    C8    A    
C83   N12   A    
C46   H7    S    
C16   C23   A    
C5    N15   A    
C34   C52   A    
C49   C59   A    
C83   H23   S    
C30   C36   A    
C17   C25   A    
N10   Ni3   S    
C19   C20   A    
N8    N14   A    
C71   C72   A    
C13   H55   S    
C79   H33   S    
C11   C13   A    
C57   C58   A    
C38   C39   A    
C20   C26   A    
C12   C64   A    
C33   C35   A    
C45   N8    A    
C9    C78   A    
C82   H53   S    
C69   C70   A    
C35   C41   A    
C40   O7    S    
C46   C47   A    
C81   H48   S    
C10   C11   A    
C67   O2    S    
C15   C21   A    
C20   C21   A    
C16   H8    S    
C2    N13   A    
C42   C43   A    
C14   C15   A    
C62   C74   S    
C76   O2    S    
N11   N12   A    
C19   O4    S    
C55   C60   A    
C77   H27   S    
C65   H50   S    
C80   H40   S    
