data_mof_unit_62465.cif
_audit_creation_date              2012-12-10T18:13:24-0500
_audit_creation_method            fapswitch 2.2
_symmetry_space_group_name_H-M    P1
_symmetry_Int_Tables_number       1
_space_group_crystal_system       triclinic
_cell_length_a                    32.298784
_cell_length_b                    32.209723
_cell_length_c                    21.885078
_cell_angle_alpha                 90.000376
_cell_angle_beta                  90.000573
_cell_angle_gamma                 90.000106
_cell_volume                      22767.8101219

loop_
_atom_site_label
_atom_site_type_symbol
_atom_type_description
_atom_site_fract_x
_atom_site_fract_y
_atom_site_fract_z
_atom_type_partial_charge
C1    C     C_R   0.420361 1.000000 0.500000 0.798105
C2    C     C_R   1.000000 0.420496 0.500000 0.812160
C3    C     C_R   0.579639 0.000000 0.500000 0.798107
C4    C     C_R   0.000000 0.579504 0.500000 0.811993
C5    C     C_R   0.920361 0.500000 0.000002 0.798105
C6    C     C_R   0.500000 0.920496 0.000000 0.811950
C7    C     C_R   0.079639 0.500000 0.999999 0.798108
C8    C     C_R   0.500000 0.079503 1.000000 0.811939
C9    C     C_R   0.293007 0.000001 0.500000 -0.101962
C10   C     C_R   1.000000 0.293520 0.500001 -0.100377
C11   C     C_R   0.706993 0.000000 0.499999 -0.101962
C12   C     C_R   0.000000 0.706479 0.499999 -0.100393
C13   C     C_R   0.793005 0.500001 0.000008 -0.101982
C14   C     C_R   0.500000 0.793521 0.000000 -0.100399
C15   C     C_R   0.206994 0.500000 0.999995 -0.101977
C16   C     C_R   0.500000 0.206479 1.000000 -0.100397
C17   C     C_1   0.160837 0.000002 0.500000 0.125385
C18   C     C_1   1.000000 0.161214 0.500001 0.124098
C19   C     C_1   0.839163 0.000000 0.499999 0.125386
C20   C     C_1   0.000000 0.838785 0.499999 0.124007
C21   C     C_1   0.660836 0.499999 0.000002 0.125271
C22   C     C_1   0.500000 0.661214 0.000000 0.123976
C23   C     C_1   0.339163 0.500000 0.999999 0.125275
C24   C     C_1   0.500000 0.338785 0.999999 0.123970
C25   C     C_1   0.338172 0.000000 0.500001 0.103991
C26   C     C_1   1.000000 0.338553 0.500001 0.090464
C27   C     C_1   0.661828 0.000000 0.500000 0.103988
C28   C     C_1   0.000000 0.661446 0.499999 0.090345
C29   C     C_1   0.838170 0.500000 0.000008 0.104003
C30   C     C_1   0.500000 0.838554 0.000000 0.090299
C31   C     C_1   0.161829 0.500000 0.999995 0.103979
C32   C     C_1   0.500000 0.161446 1.000000 0.090290
C33   C     C_1   0.375676 1.000000 0.500000 -0.043071
C34   C     C_1   1.000000 0.375986 0.500000 -0.049489
C35   C     C_1   0.624323 0.000000 0.500000 -0.043074
C36   C     C_1   0.000000 0.624013 0.500000 -0.049548
C37   C     C_1   0.875675 0.500000 0.000006 -0.043112
C38   C     C_1   0.500000 0.875987 0.000000 -0.049599
C39   C     C_1   0.124324 0.500000 0.999996 -0.043138
C40   C     C_1   0.500000 0.124013 1.000000 -0.049603
C41   C     C_1   0.123511 0.000001 0.500000 -0.063067
C42   C     C_1   1.000000 0.123759 0.500000 -0.064883
C43   C     C_1   0.876488 0.000000 0.499999 -0.063067
C44   C     C_1   0.000000 0.876241 0.499999 -0.064910
C45   C     C_1   0.623510 0.499999 0.000001 -0.063172
C46   C     C_1   0.500000 0.623759 0.000000 -0.064911
C47   C     C_1   0.376489 0.500000 0.999999 -0.063175
C48   C     C_1   0.500000 0.376241 0.999999 -0.064915
C49   C     C_R   0.000000 0.920795 0.500000 0.791712
C50   C     C_R   0.079127 0.000000 0.500000 0.792233
C51   C     C_R   1.000000 0.079205 0.500000 0.791883
C52   C     C_R   0.920872 0.000000 0.500000 0.792234
C53   C     C_R   0.500000 0.420795 1.000000 0.791626
C54   C     C_R   0.579127 0.500000 0.000000 0.792090
C55   C     C_R   0.500000 0.579205 0.000000 0.791641
C56   C     C_R   0.420873 0.500000 1.000000 0.792095
C57   C     C_R   0.500000 1.000000 0.381002 0.808869
C58   C     C_R   1.000000 0.500002 0.380721 0.818393
C59   C     C_R   0.500000 0.000000 0.618998 0.808871
C60   C     C_R   0.000000 0.499999 0.619279 0.818396
C61   C     C_R   0.999999 0.500000 0.881002 0.808822
C62   C     C_R   0.500000 0.000000 0.880721 0.818218
C63   C     C_R   0.999995 0.500000 0.118998 0.808817
C64   C     C_R   0.500000 0.000000 0.119279 0.818215
C65   C     C_R   0.559643 0.948870 0.302558 0.205162
C66   C     C_R   0.077836 0.503940 0.301692 0.237155
C67   C     C_R   0.440355 0.051128 0.302558 0.205144
C68   C     C_R   0.922162 0.496087 0.301704 0.237170
C69   C     C_R   0.440351 0.948876 0.697441 0.205154
C70   C     C_R   0.922163 0.503912 0.698300 0.237161
C71   C     C_R   0.559648 0.051125 0.697443 0.205138
C72   C     C_R   0.077837 0.496069 0.698304 0.237160
C73   C     C_R   0.059669 0.448896 0.802552 0.205406
C74   C     C_R   0.577837 0.003961 0.801693 0.237101
C75   C     C_R   0.940319 0.551088 0.802551 0.205209
C76   C     C_R   0.422163 0.996041 0.801692 0.237102
C77   C     C_R   0.940314 0.448910 0.197452 0.205381
C78   C     C_R   0.422163 0.003965 0.198307 0.237102
C79   C     C_R   0.059659 0.551109 0.197443 0.205236
C80   C     C_R   0.577836 0.996034 0.198309 0.237101
C81   C     C_R   0.598427 0.943907 0.273044 -0.118639
C82   C     C_R   0.108986 0.529124 0.275815 -0.156319
C83   C     C_R   0.401571 0.056089 0.273044 -0.118656
C84   C     C_R   0.891005 0.470907 0.275842 -0.156335
C85   C     C_R   0.401568 0.943916 0.726957 -0.118631
C86   C     C_R   0.891005 0.529087 0.724169 -0.156297
C87   C     C_R   0.598431 0.056085 0.726959 -0.118651
C88   C     C_R   0.108989 0.470885 0.724173 -0.156368
C89   C     C_R   0.098449 0.443942 0.773022 -0.118379
C90   C     C_R   0.608982 0.029149 0.775812 -0.156401
C91   C     C_R   0.901537 0.556031 0.773021 -0.118555
C92   C     C_R   0.391018 0.970851 0.775811 -0.156409
C93   C     C_R   0.901536 0.443963 0.226990 -0.118386
C94   C     C_R   0.391020 0.029155 0.224189 -0.156399
C95   C     C_R   0.098442 0.556063 0.226963 -0.118592
C96   C     C_R   0.608979 0.970842 0.224190 -0.156410
C97   C     C_R   0.536938 0.992620 0.220427 -0.021315
C98   C     C_R   0.031981 0.520266 0.219145 -0.033322
C99   C     C_R   0.463062 0.007380 0.220426 -0.021324
C100  C     C_R   0.968005 0.479744 0.219150 -0.033445
C101  C     C_R   0.463061 0.992623 0.779573 -0.021315
C102  C     C_R   0.968009 0.520256 0.780851 -0.033311
C103  C     C_R   0.536939 0.007378 0.779574 -0.021323
C104  C     C_R   0.031988 0.479738 0.780854 -0.033468
C105  C     C_R   0.036942 0.492639 0.720427 -0.021054
C106  C     C_R   0.531977 0.020277 0.719148 -0.033283
C107  C     C_R   0.963057 0.507353 0.720425 -0.021270
C108  C     C_R   0.468021 0.979724 0.719147 -0.033286
C109  C     C_R   0.963055 0.492648 0.279577 -0.021066
C110  C     C_R   0.468024 0.020279 0.280853 -0.033279
C111  C     C_R   0.036940 0.507366 0.279571 -0.021258
C112  C     C_R   0.531976 0.979720 0.280853 -0.033286
C113  C     C_R   0.500000 0.000000 0.186611 -0.095310
C114  C     C_R   0.999994 0.500002 0.185646 -0.070487
C115  C     C_R   0.500000 0.000001 0.813389 -0.095312
C116  C     C_R   0.999999 0.499998 0.814354 -0.070483
C117  C     C_R   0.000000 0.499997 0.686611 -0.095231
C118  C     C_R   0.499999 0.000000 0.685646 -0.070363
C119  C     C_R   0.999999 0.500005 0.313389 -0.095231
C120  C     C_R   0.500000 1.000000 0.314354 -0.070366
C121  C     C_R   0.227181 0.985290 0.551241 0.210664
C122  C     C_R   0.013231 0.227824 0.552254 0.209676
C123  C     C_R   0.772820 0.014716 0.551238 0.210664
C124  C     C_R   0.987901 0.772176 0.552847 0.209696
C125  C     C_R   0.772819 0.985285 0.448759 0.210666
C126  C     C_R   0.986768 0.227823 0.447747 0.209675
C127  C     C_R   0.227181 0.014715 0.448759 0.210666
C128  C     C_R   0.012099 0.772176 0.447151 0.209698
C129  C     C_R   0.727178 0.485342 0.051279 0.210617
C130  C     C_R   0.511703 0.727824 0.053042 0.209705
C131  C     C_R   0.272820 0.514698 0.051247 0.210607
C132  C     C_R   0.488367 0.272176 0.053075 0.209706
C133  C     C_R   0.272821 0.485303 0.948746 0.210613
C134  C     C_R   0.488296 0.727824 0.946958 0.209705
C135  C     C_R   0.727179 0.514658 0.948731 0.210615
C136  C     C_R   0.511634 0.272175 0.946924 0.209706
C137  C     C_R   0.205591 0.000003 0.500000 -0.028883
C138  C     C_R   1.000000 0.206118 0.500001 -0.034715
C139  C     C_R   0.794409 0.000000 0.499999 -0.028884
C140  C     C_R   0.000000 0.793881 0.499999 -0.034860
C141  C     C_R   0.705589 0.499999 0.000004 -0.028942
C142  C     C_R   0.500000 0.706119 0.000000 -0.034917
C143  C     C_R   0.294410 0.500000 0.999997 -0.028941
C144  C     C_R   0.500000 0.293881 1.000000 -0.034927
C145  C     C_R   0.270917 0.015925 0.449076 -0.092947
C146  C     C_R   0.986507 0.271640 0.447542 -0.076685
C147  C     C_R   0.729082 0.984074 0.449077 -0.092967
C148  C     C_R   0.012357 0.728358 0.446934 -0.076736
C149  C     C_R   0.729083 0.015927 0.550922 -0.092948
C150  C     C_R   0.013492 0.271641 0.552459 -0.076686
C151  C     C_R   0.270917 0.984078 0.550924 -0.092968
C152  C     C_R   0.987643 0.728359 0.553064 -0.076733
C153  C     C_R   0.770915 0.515877 0.949052 -0.092995
C154  C     C_R   0.488039 0.771641 0.946738 -0.076758
C155  C     C_R   0.229084 0.484090 0.949061 -0.092980
C156  C     C_R   0.511890 0.228358 0.946703 -0.076762
C157  C     C_R   0.229083 0.515911 0.050929 -0.092986
C158  C     C_R   0.511960 0.771642 0.053263 -0.076758
C159  C     C_R   0.770914 0.484126 0.050965 -0.092979
C160  C     C_R   0.488110 0.228358 0.053296 -0.076761
Cu1   Cu    Cu3+1 0.500000 0.041050 0.500000 1.157101
Cu2   Cu    Cu3+1 0.958950 0.500000 0.500000 1.157892
Cu3   Cu    Cu3+1 0.500000 0.958950 0.500000 1.157067
Cu4   Cu    Cu3+1 0.041050 0.500000 0.500000 1.157888
Cu5   Cu    Cu3+1 1.000000 0.541050 0.000000 1.157001
Cu6   Cu    Cu3+1 0.458950 0.000000 0.000000 1.157866
Cu7   Cu    Cu3+1 0.000000 0.458950 0.000000 1.156878
Cu8   Cu    Cu3+1 0.541050 0.000000 0.000000 1.157866
Cu9   Cu    Cu3+1 0.000000 0.000000 0.438210 1.103536
Cu10  Cu    Cu3+1 0.000000 0.000000 0.561790 1.103537
Cu11  Cu    Cu3+1 0.500000 0.500000 0.938210 1.103732
Cu12  Cu    Cu3+1 0.500000 0.500000 0.061790 1.103731
O1    O     O_R   0.440150 0.034670 0.500000 -0.554383
O2    O     O_R   0.965330 0.440150 0.500000 -0.554210
O3    O     O_R   0.559850 0.965330 0.500000 -0.554400
O4    O     O_R   0.034670 0.559850 0.500000 -0.554171
O5    O     O_R   0.559850 0.034670 0.500000 -0.554381
O6    O     O_R   0.034670 0.440150 0.500000 -0.554223
O7    O     O_R   0.440150 0.965330 0.500000 -0.554396
O8    O     O_R   0.965330 0.559850 0.500000 -0.554163
O9    O     O_R   0.940150 0.534670 0.000000 -0.554381
O10   O     O_R   0.465330 0.940150 0.000000 -0.554149
O11   O     O_R   0.059850 0.465330 0.000000 -0.554450
O12   O     O_R   0.534670 0.059850 0.000000 -0.554149
O13   O     O_R   0.059850 0.534670 0.000000 -0.554391
O14   O     O_R   0.534670 0.940150 0.000000 -0.554147
O15   O     O_R   0.940150 0.465330 0.000000 -0.554447
O16   O     O_R   0.465330 0.059850 0.000000 -0.554145
O17   O     O_R   0.500000 0.034670 0.409850 -0.545423
O18   O     O_R   0.965330 0.500000 0.409850 -0.556422
O19   O     O_R   0.500000 0.965330 0.409850 -0.545434
O20   O     O_R   0.034670 0.500000 0.409850 -0.556477
O21   O     O_R   0.500000 0.034670 0.590150 -0.545423
O22   O     O_R   0.034670 0.500000 0.590150 -0.556413
O23   O     O_R   0.500000 0.965330 0.590150 -0.545432
O24   O     O_R   0.965330 0.500000 0.590150 -0.556488
O25   O     O_R   0.000000 0.534670 0.909850 -0.545420
O26   O     O_R   0.465330 0.000000 0.909850 -0.556469
O27   O     O_R   0.000000 0.465330 0.909850 -0.545527
O28   O     O_R   0.534670 0.000000 0.909850 -0.556470
O29   O     O_R   1.000000 0.534670 0.090150 -0.545428
O30   O     O_R   0.534670 0.000000 0.090150 -0.556467
O31   O     O_R   1.000000 0.465330 0.090150 -0.545521
O32   O     O_R   0.465330 0.000000 0.090150 -0.556470
O33   O     O_R   0.999970 0.940220 0.447740 -0.558561
O34   O     O_R   0.059780 0.999970 0.447740 -0.558975
O35   O     O_R   0.000030 0.059780 0.447740 -0.558658
O36   O     O_R   0.940220 0.000030 0.447740 -0.558819
O37   O     O_R   0.000030 0.940220 0.552260 -0.558560
O38   O     O_R   0.940220 0.999970 0.552260 -0.558974
O39   O     O_R   0.999970 0.059780 0.552260 -0.558658
O40   O     O_R   0.059780 0.000030 0.552260 -0.558819
O41   O     O_R   0.499970 0.440220 0.947740 -0.558506
O42   O     O_R   0.559780 0.499970 0.947740 -0.558889
O43   O     O_R   0.500030 0.559780 0.947740 -0.558518
O44   O     O_R   0.440220 0.500030 0.947740 -0.558882
O45   O     O_R   0.500030 0.440220 0.052260 -0.558511
O46   O     O_R   0.440220 0.499970 0.052260 -0.558893
O47   O     O_R   0.499970 0.559780 0.052260 -0.558513
O48   O     O_R   0.559780 0.500030 0.052260 -0.558879
C161  C     C_2   0.373419 0.090503 0.291031 0.944602
O49   O     O_2   0.369951 0.100305 0.344783 -0.523492
O50   O     O_R   0.351251 0.112132 0.246304 -0.737677
H1    H     H_    0.333386 0.135005 0.264127 0.357716
C162  C     C_2   0.848163 0.472530 0.300479 0.997482
O51   O     O_2   0.842428 0.475635 0.355531 -0.514207
O52   O     O_R   0.814345 0.470500 0.260770 -0.725452
H2    H     H_    0.786835 0.471770 0.282991 0.363889
C163  C     C_2   0.626576 0.909492 0.291030 0.944611
O53   O     O_2   0.630045 0.899688 0.344781 -0.523515
O54   O     O_R   0.648743 0.887861 0.246302 -0.737692
H3    H     H_    0.666607 0.864988 0.264125 0.357715
C164  C     C_2   0.151833 0.527510 0.300433 0.997582
O55   O     O_2   0.157581 0.524403 0.355482 -0.514192
O56   O     O_R   0.185642 0.529550 0.260709 -0.725355
H4    H     H_    0.213158 0.528286 0.282918 0.363873
C165  C     C_2   0.626584 0.090498 0.708974 0.944612
O57   O     O_2   0.630053 0.100303 0.655223 -0.523491
O58   O     O_R   0.648753 0.112126 0.753704 -0.737678
H5    H     H_    0.666617 0.134999 0.735883 0.357714
C166  C     C_2   0.151835 0.472500 0.699549 0.997488
O59   O     O_2   0.157578 0.475614 0.644500 -0.514207
O60   O     O_R   0.185647 0.470453 0.739268 -0.725374
H6    H     H_    0.213160 0.471719 0.717055 0.363884
C167  C     C_2   0.373416 0.909501 0.708972 0.944613
O61   O     O_2   0.369946 0.899698 0.655221 -0.523511
O62   O     O_R   0.351248 0.887873 0.753702 -0.737694
H7    H     H_    0.333383 0.865000 0.735880 0.357714
C168  C     C_2   0.848161 0.527460 0.699541 0.997584
O63   O     O_2   0.842420 0.524357 0.644489 -0.514188
O64   O     O_R   0.814347 0.529482 0.739257 -0.725409
H8    H     H_    0.786834 0.528210 0.717041 0.363880
C169  C     C_2   0.873370 0.590438 0.790981 0.944544
O65   O     O_2   0.869886 0.600250 0.844727 -0.523484
O66   O     O_R   0.851203 0.612051 0.746233 -0.737891
H9    H     H_    0.833333 0.634920 0.764038 0.357712
C170  C     C_2   0.348170 0.972456 0.800427 0.997586
O67   O     O_2   0.342421 0.975564 0.855475 -0.514232
O68   O     O_R   0.314362 0.970407 0.760701 -0.725300
H10   H     H_    0.286846 0.971666 0.782908 0.363882
C171  C     C_2   0.126605 0.409525 0.790979 0.944934
O69   O     O_2   0.130088 0.399710 0.844723 -0.523562
O70   O     O_R   0.148761 0.387905 0.746228 -0.738309
H11   H     H_    0.166630 0.365028 0.764030 0.357538
C172  C     C_2   0.651830 0.027543 0.800426 0.997573
O71   O     O_2   0.657580 0.024436 0.855475 -0.514239
O72   O     O_R   0.685638 0.029591 0.760700 -0.725310
H12   H     H_    0.713154 0.028332 0.782907 0.363859
C173  C     C_2   0.126598 0.590476 0.208992 0.944649
O73   O     O_2   0.130072 0.600286 0.155244 -0.523514
O74   O     O_R   0.148765 0.612097 0.253731 -0.737858
H13   H     H_    0.166633 0.634971 0.235918 0.357676
C174  C     C_2   0.651827 0.972444 0.199576 0.997588
O75   O     O_2   0.657578 0.975550 0.144528 -0.514232
O76   O     O_R   0.685635 0.970393 0.239303 -0.725298
H14   H     H_    0.713151 0.971650 0.217097 0.363882
C175  C     C_2   0.873371 0.409551 0.209040 0.944878
O77   O     O_2   0.869877 0.399741 0.155295 -0.523541
O78   O     O_R   0.851218 0.387933 0.253796 -0.738283
H15   H     H_    0.833333 0.365061 0.235998 0.357536
C176  C     C_2   0.348171 0.027550 0.199575 0.997575
O79   O     O_2   0.342420 0.024445 0.144526 -0.514239
O80   O     O_R   0.314364 0.029598 0.239301 -0.725323
H16   H     H_    0.286847 0.028340 0.217095 0.363860
Br1   Br    Br    0.537530 0.901112 0.345181 -0.335464
Br2   Br    Br    0.094006 0.453464 0.343531 -0.342681
Br3   Br    Br    0.462465 0.098887 0.345183 -0.335511
Br4   Br    Br    0.906011 0.546570 0.343541 -0.341924
Br5   Br    Br    0.462459 0.901117 0.654814 -0.335468
Br6   Br    Br    0.906013 0.453430 0.656458 -0.342680
Br7   Br    Br    0.537540 0.098884 0.654817 -0.335511
Br8   Br    Br    0.094000 0.546548 0.656468 -0.341931
Br9   Br    Br    0.037581 0.401137 0.845201 -0.334006
Br10  Br    Br    0.594018 0.953485 0.843525 -0.341605
Br11  Br    Br    0.962391 0.598852 0.845208 -0.335112
Br12  Br    Br    0.405982 0.046516 0.843525 -0.341525
Br13  Br    Br    0.962382 0.401151 0.154780 -0.334025
Br14  Br    Br    0.405979 0.953490 0.156475 -0.341600
Br15  Br    Br    0.037561 0.598872 0.154812 -0.335094
Br16  Br    Br    0.594022 0.046508 0.156479 -0.341524
C177  C     C_2   0.292910 0.965513 0.603792 0.976407
O81   O     O_2   0.323016 0.982869 0.626031 -0.562491
O82   O     O_R   0.278705 0.928045 0.628316 -0.676766
H17   H     H_    0.293288 0.920047 0.667438 0.371645
C178  C     C_2   0.027883 0.294464 0.607548 0.938933
O83   O     O_2   0.006737 0.322354 0.629098 -0.555688
O84   O     O_R   0.065842 0.284333 0.634382 -0.680933
H18   H     H_    0.072280 0.302134 0.671395 0.364092
C179  C     C_2   0.707091 0.034493 0.603789 0.976414
O85   O     O_2   0.676985 0.017136 0.626028 -0.562519
O86   O     O_R   0.721295 0.071962 0.628311 -0.676725
H19   H     H_    0.706712 0.079960 0.667433 0.371633
C180  C     C_2   0.974443 0.705536 0.608798 0.938668
O87   O     O_2   0.996040 0.677644 0.629345 -0.555205
O88   O     O_R   0.937080 0.715669 0.637395 -0.680983
H20   H     H_    0.931438 0.697865 0.674686 0.364076
C181  C     C_2   0.707088 0.965507 0.396211 0.976399
O89   O     O_2   0.676982 0.982863 0.373971 -0.562491
O90   O     O_R   0.721291 0.928036 0.371691 -0.676765
H21   H     H_    0.706705 0.920035 0.332572 0.371646
C182  C     C_2   0.972116 0.294463 0.392453 0.938933
O91   O     O_2   0.993261 0.322353 0.370904 -0.555701
O92   O     O_R   0.934157 0.284330 0.365620 -0.680929
H22   H     H_    0.927719 0.302131 0.328607 0.364092
C183  C     C_2   0.292910 0.034488 0.396208 0.976413
O93   O     O_2   0.323016 0.017131 0.373971 -0.562519
O94   O     O_R   0.278707 0.071957 0.371683 -0.676728
H23   H     H_    0.293291 0.079954 0.332562 0.371637
C184  C     C_2   0.025557 0.705535 0.391200 0.938669
O95   O     O_2   0.003960 0.677642 0.370654 -0.555195
O96   O     O_R   0.062919 0.715669 0.362602 -0.680982
H24   H     H_    0.068560 0.697863 0.325311 0.364080
C185  C     C_2   0.792903 0.465604 0.103868 0.976405
O97   O     O_2   0.823014 0.482971 0.126074 -0.562574
O98   O     O_R   0.778686 0.428161 0.128463 -0.676763
H25   H     H_    0.793259 0.420197 0.167607 0.371691
C186  C     C_2   0.524745 0.794465 0.109208 0.938578
O99   O     O_2   0.502996 0.822358 0.129402 -0.555027
O100  O     O_R   0.561891 0.784332 0.138412 -0.681000
H26   H     H_    0.567255 0.802137 0.175792 0.364086
C187  C     C_2   0.207092 0.534463 0.103806 0.976391
O101  O     O_2   0.176984 0.517104 0.126033 -0.562549
O102  O     O_R   0.221299 0.571924 0.128351 -0.676747
H27   H     H_    0.206720 0.579912 0.167480 0.371656
C188  C     C_2   0.475399 0.205536 0.109278 0.938565
O103  O     O_2   0.497174 0.177642 0.129408 -0.554994
O104  O     O_R   0.438292 0.215669 0.138589 -0.681006
H28   H     H_    0.432976 0.197861 0.175981 0.364083
C189  C     C_2   0.207092 0.465540 0.896181 0.976380
O105  O     O_2   0.176983 0.482899 0.873957 -0.562578
O106  O     O_R   0.221303 0.428082 0.871629 -0.676746
H29   H     H_    0.206726 0.420098 0.832496 0.371671
C190  C     C_2   0.475255 0.794464 0.890793 0.938577
O107  O     O_2   0.497002 0.822358 0.870600 -0.555029
O108  O     O_R   0.438109 0.784329 0.861588 -0.680999
H30   H     H_    0.432745 0.802134 0.824208 0.364085
C191  C     C_2   0.792904 0.534406 0.896154 0.976429
O109  O     O_2   0.823018 0.517043 0.873950 -0.562556
O110  O     O_R   0.778684 0.571848 0.871564 -0.676758
H31   H     H_    0.793259 0.579818 0.832424 0.371677
C192  C     C_2   0.524601 0.205535 0.890721 0.938565
O111  O     O_2   0.502826 0.177641 0.870591 -0.554990
O112  O     O_R   0.561708 0.215668 0.861410 -0.681009
H32   H     H_    0.567024 0.197859 0.824019 0.364083
Br17  Br    Br    0.196047 0.969116 0.623042 -0.363572
Br18  Br    Br    0.028866 0.197001 0.624497 -0.348852
Br19  Br    Br    0.803954 0.030894 0.623036 -0.363799
Br20  Br    Br    0.973834 0.802999 0.625788 -0.348490
Br21  Br    Br    0.803952 0.969105 0.376961 -0.363567
Br22  Br    Br    0.971133 0.196999 0.375504 -0.348854
Br23  Br    Br    0.196047 0.030890 0.376959 -0.363797
Br24  Br    Br    0.026166 0.802998 0.374209 -0.348486
Br25  Br    Br    0.696043 0.469251 0.123119 -0.363639
Br26  Br    Br    0.525224 0.697002 0.126209 -0.348319
Br27  Br    Br    0.303954 0.530852 0.123058 -0.363681
Br28  Br    Br    0.474943 0.302999 0.126280 -0.348301
Br29  Br    Br    0.303956 0.469151 0.876936 -0.363649
Br30  Br    Br    0.474776 0.697001 0.873792 -0.348328
Br31  Br    Br    0.696045 0.530747 0.876887 -0.363670
Br32  Br    Br    0.525057 0.302998 0.873719 -0.348292

loop_
_geom_bond_atom_site_label_1
_geom_bond_atom_site_label_2
_ccdc_geom_bond_type
C132  C144  A    
Cu6   Cu8   S    
C4    C36   S    
C191  O109  D    
C5    C37   S    
O50   H1    S    
C56   O46   A    
C186  O99   D    
C131  C143  A    
C185  O97   D    
C147  C181  S    
Cu6   O16   S    
C148  C184  S    
C70   C107  A    
Cu9   O33   S    
C98   C114  A    
C29   C37   T    
O74   H13   S    
C30   C38   T    
C77   C100  A    
C65   Br1   S    
C104  C116  A    
O76   H14   S    
C46   C55   S    
C93   C175  S    
C2    C34   S    
C179  O86   S    
C64   O32   A    
C100  C109  A    
C81   C163  S    
C167  O61   D    
C106  C118  A    
C146  C182  S    
C52   O38   A    
C23   C143  S    
C104  C105  A    
C190  O108  S    
Cu2   Cu4   S    
C133  C143  A    
O92   H22   S    
C74   Br10  S    
C23   C47   T    
C61   O25   A    
C88   C166  S    
C112  C120  A    
C97   C112  A    
C59   O23   A    
C177  O81   D    
C99   C110  A    
Cu6   O26   S    
C163  O53   D    
C66   C82   A    
C157  C187  S    
O52   H2    S    
C11   C27   S    
C60   C117  S    
C127  C145  A    
Cu11  O44   S    
C14   C158  A    
C159  C185  S    
C173  O74   S    
C58   O20   A    
C101  C115  A    
Cu4   O6    S    
C89   C171  S    
Cu1   O5    S    
Cu2   O18   S    
Cu12  O46   S    
C77   Br13  S    
C54   O42   A    
C9    C151  A    
Cu9   O35   S    
C6    O14   A    
C7    O11   A    
C74   C90   A    
C131  Br27  S    
C78   C94   A    
C150  C178  S    
C58   C119  S    
Cu8   O30   S    
C84   C93   A    
C21   C141  S    
O98   H25   S    
C83   C161  S    
Cu10  O40   S    
C88   C89   A    
C136  C144  A    
C182  O91   D    
C82   C164  S    
O110  H31   S    
C7    C39   S    
C17   C137  S    
C8    C40   S    
C166  O60   S    
C135  Br31  S    
C67   C83   A    
C189  O105  D    
C80   C97   A    
C16   C160  A    
C12   C152  A    
O106  H29   S    
Cu6   O10   S    
Cu3   O3    S    
C61   O27   A    
C92   C170  S    
C59   O21   A    
C125  Br21  S    
C1    O1    A    
C168  O63   D    
C122  Br18  S    
C63   O31   A    
C6    O10   A    
C70   Br6   S    
C18   C42   T    
C55   O43   A    
C169  O65   D    
Cu4   O22   S    
C43   C52   S    
C180  O88   S    
C123  C139  A    
C131  C157  A    
C166  O59   D    
C121  C137  A    
C183  O94   S    
Cu11  O42   S    
C178  O84   S    
C58   O18   A    
C181  O90   S    
C6    C38   S    
C145  C183  S    
C164  O55   D    
C15   C155  A    
Cu12  O48   S    
C75   C91   A    
C9    C145  A    
C86   C168  S    
C130  Br26  S    
C50   O40   A    
Cu5   Cu7   S    
C175  O77   D    
C14   C154  A    
C85   C167  S    
C184  O96   S    
C84   C162  S    
C20   C44   T    
C85   C92   A    
C174  O75   D    
C21   C45   T    
C187  O102  S    
C53   O45   A    
C48   C53   S    
C128  Br24  S    
Cu8   O14   S    
C24   C48   T    
C66   Br2   S    
C90   C172  S    
C100  C114  A    
C79   Br15  S    
C55   O47   A    
C91   C169  S    
C121  C151  A    
C152  C180  S    
C65   C112  A    
C57   O17   A    
C161  O49   D    
C67   C110  A    
Cu10  O38   S    
C3    C35   S    
O56   H4    S    
C22   C142  S    
Cu1   O21   S    
C102  C107  A    
C172  O72   S    
C10   C146  A    
C57   C120  S    
C50   O34   A    
C19   C139  S    
C59   C118  S    
Cu3   O7    S    
C71   C106  A    
C49   O37   A    
C78   C99   A    
C69   C85   A    
C53   O41   A    
C82   C95   A    
C63   O29   A    
C7    O13   A    
O72   H12   S    
C15   C31   S    
C176  O80   S    
C156  C192  S    
C175  O78   S    
C72   Br8   S    
C62   C115  S    
C129  Br25  S    
C162  O52   S    
C130  C142  A    
C56   O44   A    
C78   Br14  S    
O80   H16   S    
Cu7   O27   S    
Cu3   O19   S    
C2    O6    A    
Cu4   O20   S    
C13   C159  A    
O66   H9    S    
C25   C33   T    
C47   C56   S    
C171  O69   D    
C87   C165  S    
O58   H5    S    
O102  H27   S    
C158  C186  S    
C190  O107  D    
C9    C25   S    
O70   H11   S    
C8    O16   A    
C192  O112  S    
C12   C28   S    
C122  C150  A    
C13   C29   S    
C57   O19   A    
C86   C91   A    
C129  C141  A    
C154  C190  S    
O60   H6    S    
C127  Br23  S    
Cu9   Cu10  S    
C18   C138  S    
Cu5   O29   S    
C64   C113  S    
C75   Br11  S    
Cu1   Cu3   S    
C11   C149  A    
C16   C156  A    
O112  H32   S    
C151  C177  S    
Cu7   O31   S    
C66   C111  A    
C188  O104  S    
Cu11  O43   S    
C101  C108  A    
C185  O98   S    
O88   H20   S    
C191  O110  S    
C133  C155  A    
C173  O73   D    
C105  C117  A    
C4    O8    A    
C5    O9    A    
C186  O100  S    
C19   C43   T    
C177  O82   S    
C1    C33   S    
O84   H18   S    
C68   C84   A    
C76   Br12  S    
C133  Br29  S    
C122  C138  A    
O64   H8    S    
C125  C147  A    
O104  H28   S    
C81   C96   A    
C128  C148  A    
C179  O85   D    
C83   C94   A    
C103  C115  A    
O96   H24   S    
C79   C95   A    
Cu5   O25   S    
C134  C142  A    
Cu1   O1    S    
C65   C81   A    
O100  H26   S    
Cu3   O23   S    
C61   C116  S    
C13   C153  A    
C94   C176  S    
C71   C87   A    
C3    O3    A    
C22   C46   T    
C49   O33   A    
C167  O62   S    
C16   C32   S    
C5    O15   A    
C41   C50   S    
Cu9   O34   S    
C109  C119  A    
C136  Br32  S    
Cu8   O28   S    
C124  C140  A    
C99   C113  A    
C15   C157  A    
C160  C188  S    
C130  C158  A    
C27   C35   T    
C20   C140  S    
O78   H15   S    
C73   C89   A    
O94   H23   S    
C163  O54   S    
C10   C150  A    
C11   C147  A    
C180  O87   D    
C134  C154  A    
C24   C144  S    
C77   C93   A    
Cu4   O4    S    
C51   O35   A    
C68   C109  A    
C128  C140  A    
C183  O93   D    
O90   H21   S    
Cu11  O41   S    
C72   C105  A    
C28   C36   T    
C178  O83   D    
C4    O4    A    
C87   C90   A    
Cu2   O24   S    
C107  C117  A    
Cu12  O45   S    
C44   C49   S    
Cu11  Cu12  S    
C123  C149  A    
C184  O95   D    
C79   C98   A    
Cu9   O36   S    
C126  C146  A    
C60   O22   A    
C187  O101  D    
C125  C139  A    
C149  C179  S    
C153  C191  S    
C132  C160  A    
C121  Br17  S    
C111  C119  A    
C170  O67   D    
C123  Br19  S    
C136  C156  A    
C73   Br9   S    
C132  Br28  S    
C67   Br3   S    
C174  O76   S    
C68   Br4   S    
C63   C114  S    
C26   C34   T    
C73   C104  A    
Cu7   O11   S    
Cu10  O39   S    
O108  H30   S    
C31   C39   T    
C182  O92   S    
C75   C102  A    
C80   C96   A    
C172  O71   D    
C42   C51   S    
C10   C26   S    
C124  C152  A    
C189  O106  S    
O82   H17   S    
C96   C174  S    
C71   Br7   S    
C14   C30   S    
C72   C88   A    
C69   C108  A    
C95   C173  S    
C168  O64   S    
C108  C118  A    
C62   O26   A    
Cu1   O17   S    
C110  C120  A    
C171  O70   S    
C80   Br16  S    
O86   H19   S    
Cu8   O12   S    
C176  O79   D    
Cu5   O13   S    
C170  O68   S    
C126  Br22  S    
C62   O28   A    
C169  O66   S    
C135  C141  A    
Cu7   O15   S    
C162  O51   D    
Cu6   O32   S    
C164  O56   S    
Cu12  O47   S    
C76   C92   A    
C45   C54   S    
C165  O58   S    
C97   C113  A    
O68   H10   S    
C70   C86   A    
C129  C159  A    
C60   O24   A    
C76   C101  A    
C64   O30   A    
C126  C138  A    
C98   C111  A    
C52   O36   A    
Cu2   O8    S    
O62   H7    S    
C54   O48   A    
Cu2   O2    S    
C192  O111  D    
C135  C153  A    
Cu5   O9    S    
C12   C148  A    
C3    O5    A    
C161  O50   S    
C2    O2    A    
C1    O7    A    
C8    O12   A    
Cu10  O37   S    
C69   Br5   S    
C103  C106  A    
C32   C40   T    
C181  O89   D    
C124  Br20  S    
C17   C41   T    
C155  C189  S    
C102  C116  A    
C134  Br30  S    
C51   O39   A    
O54   H3    S    
C127  C137  A    
C188  O103  D    
C165  O57   D    
C74   C103  A    
