data_mof_unit_19836.cif
_audit_creation_date              2012-10-26T20:57:26-0400
_audit_creation_method            fapswitch 2.2
_symmetry_space_group_name_H-M    P1
_symmetry_Int_Tables_number       1
_space_group_crystal_system       triclinic
_cell_length_a                    14.71908
_cell_length_b                    14.725343
_cell_length_c                    15.870636
_cell_angle_alpha                 76.364679
_cell_angle_beta                  103.123161
_cell_angle_gamma                 114.766866
_cell_volume                      3003.17847983

loop_
_atom_site_label
_atom_site_type_symbol
_atom_type_description
_atom_site_fract_x
_atom_site_fract_y
_atom_site_fract_z
_atom_type_partial_charge
C1    C     C_R   0.880298 0.311881 0.513131 0.577553
C2    C     C_R   0.362756 0.919066 0.507371 -0.030992
C3    C     C_R   0.680429 0.998504 0.539405 -0.110621
C4    C     C_R   0.325727 0.996673 0.492835 -0.108875
C5    C     C_R   0.535988 0.046153 0.525105 0.005182
C6    C     C_R   0.468871 0.944538 0.517154 0.002209
C7    C     C_R   0.510309 0.874025 0.514365 0.434529
C8    C     C_R   0.495101 0.115554 0.531583 0.448873
C9    C     C_R   0.613977 0.898912 0.532744 -0.038104
C10   C     C_R   0.392153 0.093375 0.509008 -0.032816
C11   C     C_R   0.706125 0.654400 0.343051 0.402238
C12   C     C_R   0.119844 0.687993 0.487895 0.575786
C13   C     C_R   0.289869 0.339158 0.652691 0.415029
C14   C     C_R   0.790290 0.628826 0.369959 0.543852
C15   C     C_R   0.206261 0.365703 0.626328 0.551234
C16   C     C_R   0.999958 0.499932 0.660061 0.549044
C17   C     C_R   0.999936 0.499848 0.339982 0.528157
C18   C     C_R   0.717862 0.514335 0.491841 0.013918
C19   C     C_R   0.283755 0.488361 0.510208 -0.001601
C20   C     C_R   0.628695 0.535813 0.467515 -0.103277
C21   C     C_R   0.371689 0.464878 0.533285 -0.104941
C22   C     C_R   0.624856 0.608700 0.391668 -0.004297
C23   C     C_R   0.785118 0.024452 0.549635 0.375446
C24   C     C_R   0.373552 0.388768 0.606880 -0.022380
C25   C     C_R   0.543620 0.487245 0.514840 -0.029164
C26   C     C_R   0.457003 0.513860 0.486307 -0.020538
C27   C     C_R   0.458181 0.587981 0.411344 -0.045044
C28   C     C_R   0.541851 0.412191 0.589143 -0.044085
C29   C     C_R   0.539807 0.634138 0.365052 0.421816
C30   C     C_R   0.458773 0.363595 0.633705 0.426875
C31   C     C_3   0.949478 0.404156 0.037586 0.207015
C32   C     C_3   0.050217 0.593591 0.962984 0.211115
C33   C     C_3   0.904638 0.464983 0.959390 0.211609
C34   C     C_R   0.221993 0.974739 0.467927 0.372513
C35   C     C_3   0.095027 0.532768 0.041154 0.207931
C36   C     C_1   0.000194 0.499821 0.749695 0.057728
C37   C     C_1   0.999462 0.499254 0.250483 0.036705
C38   C     C_3   0.045910 0.437963 0.995927 0.318627
C39   C     C_3   0.953801 0.559823 0.004594 0.321039
C40   C     C_3   0.000956 0.498991 0.917025 -0.025569
C41   C     C_3   0.998739 0.498822 0.083475 -0.027443
C42   C     C_1   0.000736 0.499513 0.825323 0.087291
C43   C     C_1   0.998904 0.498881 0.175016 0.073836
C44   C     C_R   0.813078 0.203181 0.521947 -0.049178
C45   C     C_R   0.851784 0.126323 0.541322 0.244739
C46   C     C_R   0.188633 0.795745 0.486404 -0.048374
C47   C     C_3   0.733315 0.411425 0.960673 -0.000691
C48   C     C_3   0.629517 0.357095 0.911422 -0.315544
C49   C     C_3   0.266385 0.586577 0.039841 -0.002670
C50   C     C_3   0.370162 0.640533 0.089301 -0.317913
C51   C     C_3   0.867511 0.233523 0.029541 0.011851
C52   C     C_3   0.796409 0.133459 0.073748 -0.356787
C53   C     C_3   0.131666 0.764085 0.971704 0.013002
C54   C     C_3   0.207871 0.862813 0.930827 -0.337853
C55   C     C_3   0.038665 0.891721 0.337542 0.044064
C56   C     C_R   0.154230 0.875755 0.457325 0.228676
C57   C     C_3   0.946202 0.919193 0.314321 -0.270193
C58   C     C_3   0.976472 0.141799 0.469714 0.036211
C59   C     C_3   0.088476 0.201350 0.464346 -0.299617
C60   C     C_R   0.707920 0.176096 0.509104 0.371296
C61   C     C_R   0.292191 0.818666 0.516965 0.384997
C62   C     C_R   0.641494 0.074442 0.527197 -0.025404
Cu1   Cu    Cu3+1 0.081740 0.475690 0.522610 1.093945
Cu2   Cu    Cu3+1 0.918260 0.524310 0.477390 1.112977
F1    F     F_    0.125942 0.317220 0.670678 -0.527412
F2    F     F_    0.186228 0.049391 0.452255 -0.653587
F3    F     F_    0.453307 0.784110 0.485882 -0.583669
F4    F     F_    0.552629 0.202163 0.565329 -0.575139
F5    F     F_    0.534448 0.704316 0.293226 -0.573285
F6    F     F_    0.462905 0.291361 0.704070 -0.556475
F7    F     F_    0.866930 0.671548 0.321504 -0.593263
F8    F     F_    0.704183 0.722541 0.268884 -0.554954
F9    F     F_    0.288284 0.265223 0.722848 -0.515613
F10   F     F_    0.907163 0.621510 0.011490 -0.617752
F11   F     F_    0.092742 0.376451 0.989029 -0.619509
F12   F     F_    0.321910 0.744996 0.568097 -0.548277
F13   F     F_    0.669986 0.247045 0.466296 -0.566582
F14   F     F_    0.822803 0.951064 0.565887 -0.599911
H1    H     H_    0.276150 0.545683 0.456166 0.174262
H2    H     H_    0.569962 0.343358 0.950503 0.135135
H3    H     H_    0.617200 0.404044 0.847367 0.210922
H4    H     H_    0.257595 0.635404 0.975850 0.170651
H5    H     H_    0.263238 0.513738 0.028149 0.216550
H6    H     H_    0.382342 0.593196 0.153157 0.208861
H7    H     H_    0.429752 0.654502 0.050173 0.139787
H8    H     H_    0.376087 0.714296 0.101278 0.186311
H9    H     H_    0.934749 0.222526 0.020557 0.216381
H10   H     H_    0.827040 0.253807 0.964293 0.171569
H11   H     H_    0.727758 0.141647 0.082923 0.167977
H12   H     H_    0.727549 0.460542 0.548417 0.172953
H13   H     H_    0.773368 0.074013 0.032387 0.135456
H14   H     H_    0.834888 0.109799 0.138646 0.173894
H15   H     H_    0.167566 0.741879 0.038626 0.161915
H16   H     H_    0.064488 0.777770 0.976759 0.217692
H17   H     H_    0.174200 0.888511 0.864334 0.209721
H18   H     H_    0.229966 0.922091 0.972161 0.128858
H19   H     H_    0.276477 0.851713 0.925785 0.166062
H20   H     H_    0.026360 0.830530 0.301382 0.191544
H21   H     H_    0.103671 0.960131 0.314122 0.139749
H22   H     H_    0.961799 0.987062 0.342930 0.144686
H23   H     H_    0.396113 0.611882 0.385595 0.160652
H24   H     H_    0.927759 0.936282 0.242026 0.131187
H25   H     H_    0.880309 0.855645 0.340574 0.230311
H26   H     H_    0.933615 0.172380 0.410736 0.088862
H27   H     H_    0.958549 0.061032 0.467839 0.212077
H28   H     H_    0.107071 0.190245 0.404500 0.155450
H29   H     H_    0.107099 0.283260 0.460467 0.148791
H30   H     H_    0.134629 0.175461 0.522900 0.224697
H31   H     H_    0.603841 0.388146 0.614720 0.179918
H32   H     H_    0.642334 0.841508 0.533767 0.207977
H33   H     H_    0.364128 0.150907 0.508400 0.201624
H34   H     H_    0.736387 0.484393 0.971985 0.217985
H35   H     H_    0.742241 0.362954 0.024855 0.165893
H36   H     H_    0.623666 0.283191 0.899850 0.189200
N1    N     N_R   0.795440 0.560790 0.443380 -0.266320
N2    N     N_R   0.204560 0.439210 0.556620 -0.289629
O1    O     O_R   0.977900 0.338120 0.529810 -0.438634
O2    O     O_3   0.191957 0.568720 0.090891 -0.556782
O3    O     O_3   0.896651 0.307771 0.083295 -0.558632
O4    O     O_3   0.103494 0.690140 0.917811 -0.544997
O5    O     O_3   0.052909 0.856806 0.428751 -0.491601
O6    O     O_3   0.954596 0.150668 0.549044 -0.457709
O7    O     O_R   0.022100 0.661880 0.470190 -0.435907
O8    O     O_R   0.839850 0.379180 0.491620 -0.443809
O9    O     O_R   0.160150 0.620820 0.508380 -0.442008
O10   O     O_R   0.069010 0.479460 0.640020 -0.433346
O11   O     O_R   0.930990 0.520540 0.359980 -0.435767
O12   O     O_R   0.930960 0.520530 0.601820 -0.523093
O13   O     O_R   0.069040 0.479470 0.398180 -0.546155
O14   O     O_3   0.807702 0.429030 0.909670 -0.550675

loop_
_geom_bond_atom_site_label_1
_geom_bond_atom_site_label_2
_ccdc_geom_bond_type
C33   O14   S    
C21   C26   A    
C55   O5    S    
C34   C56   A    
C23   C45   A    
C22   C29   A    
Cu1   O13   S    
C27   C29   A    
C14   F7    S    
C3    C23   A    
C34   F2    S    
C53   O4    S    
C50   H6    S    
C39   C41   S    
C53   C54   S    
C25   C28   A    
C57   H24   S    
C26   C27   A    
C33   C39   S    
C19   C21   A    
C47   H35   S    
C5    C6    A    
Cu1   O1    S    
C11   C14   A    
C39   F10   S    
C20   C25   A    
C14   N1    A    
C15   F1    S    
C48   H3    S    
C60   C62   A    
C32   C39   S    
C50   H7    S    
C36   C42   T    
C49   O2    S    
Cu2   O12   S    
C51   O3    S    
C31   C33   S    
C54   H19   S    
C54   H18   S    
C2    C61   A    
C40   C42   S    
Cu2   N1    S    
C41   C43   S    
C52   H11   S    
C2    C6    A    
C32   O4    S    
C30   F6    S    
C29   F5    S    
C38   F11   S    
C61   F12   S    
C57   H25   S    
C4    C34   A    
C60   F13   S    
C58   O6    S    
C33   C40   S    
C46   C61   A    
C17   O13   A    
C51   C52   S    
C18   H12   S    
C32   C35   S    
C35   C38   S    
C12   C46   S    
C51   H9    S    
C11   F8    S    
C17   O11   A    
C1    O1    A    
C12   O9    A    
C47   O14   S    
C25   C26   A    
Cu2   O8    S    
C57   H22   S    
C53   H15   S    
C27   H23   S    
C59   H29   S    
C13   C24   A    
C49   H4    S    
C37   C43   T    
C2    C4    A    
C3    C9    A    
C1    C44   S    
C47   C48   S    
Cu2   O11   S    
C10   H33   S    
C17   C37   S    
C19   H1    S    
C16   O12   A    
C31   O3    S    
C54   H17   S    
Cu1   O9    S    
Cu1   N2    S    
C13   F9    S    
C8    F4    S    
C55   C57   S    
C28   H31   S    
C52   H14   S    
C58   H26   S    
C4    C10   A    
C44   C45   A    
C48   H36   S    
C3    C62   A    
C9    H32   S    
C7    C9    A    
C31   C41   S    
C53   H16   S    
C20   C22   A    
C52   H13   S    
C46   C56   A    
C18   N1    A    
C5    C8    A    
C6    C7    A    
C45   O6    S    
Cu2   O7    S    
C11   C22   A    
C59   H30   S    
C31   C38   S    
C58   H27   S    
C56   O5    S    
C48   H2    S    
C13   C15   A    
C58   C59   S    
C1    O8    A    
C16   C36   S    
C38   C40   S    
C49   H5    S    
C59   H28   S    
C12   O7    A    
C19   N2    A    
C44   C60   A    
C55   H20   S    
C28   C30   A    
C5    C62   A    
C18   C20   A    
C32   C40   S    
C23   F14   S    
C35   C41   S    
C24   C30   A    
Cu1   O10   S    
C50   H8    S    
C7    F3    S    
Cu1   Cu2   S    
C8    C10   A    
C49   C50   S    
C21   C24   A    
C55   H21   S    
C15   N2    A    
C35   O2    S    
C51   H10   S    
C16   O10   A    
C47   H34   S    
