data_mof_unit_16913.cif
_audit_creation_date              2012-10-26T21:06:57-0400
_audit_creation_method            fapswitch 2.2
_symmetry_space_group_name_H-M    P1
_symmetry_Int_Tables_number       1
_space_group_crystal_system       triclinic
_cell_length_a                    10.739767
_cell_length_b                    8.731063
_cell_length_c                    7.436451
_cell_angle_alpha                 102.472101
_cell_angle_beta                  95.102192
_cell_angle_gamma                 93.500496
_cell_volume                      675.845925232

loop_
_atom_site_label
_atom_site_type_symbol
_atom_type_description
_atom_site_fract_x
_atom_site_fract_y
_atom_site_fract_z
_atom_type_partial_charge
C1    C     C_R   0.501569 0.200461 0.454776 0.558602
C2    C     C_3   0.086837 0.510226 0.701645 -0.239004
C3    C     C_3   0.944783 0.518902 0.705440 -0.113072
C4    C     C_3   0.077835 0.643234 0.431698 -0.229360
C5    C     C_3   0.055348 0.345845 0.376367 -0.246887
C6    C     C_3   0.122632 0.498880 0.502328 0.021065
C7    C     C_1   0.921286 0.662132 0.841046 0.219877
C8    C     C_1   0.891730 0.795166 0.492613 0.198865
C9    C     C_3   0.879104 0.504927 0.503205 0.018462
C10   C     C_3   0.932967 0.638635 0.414802 -0.123877
C11   C     C_3   0.912111 0.345935 0.384149 -0.262282
C12   C     C_2   0.501867 0.033626 0.434019 -0.154742
C13   C     C_2   0.539696 0.966863 0.573955 0.210869
C14   C     C_R   0.259943 0.497572 0.500642 0.530289
C15   C     C_R   0.513754 0.799888 0.546436 0.548728
C16   C     C_R   0.740362 0.502192 0.500189 0.552664
Cu1   Cu    Cu3+1 0.514070 0.517380 0.684380 1.071916
Cu2   Cu    Cu3+1 0.485930 0.482620 0.315620 1.002369
H1    H     H_    0.140190 0.614567 0.796940 0.143247
H2    H     H_    0.121672 0.753013 0.528187 0.125526
H3    H     H_    0.076562 0.336704 0.230771 0.143516
H4    H     H_    0.089553 0.240935 0.421595 0.128315
H5    H     H_    0.878297 0.246577 0.444023 0.160258
H6    H     H_    0.722065 0.001357 0.024355 0.359571
H7    H     H_    0.864682 0.325402 0.240636 0.159003
H8    H     H_    0.109980 0.643503 0.293452 0.129034
H9    H     H_    0.897979 0.610661 0.264908 0.129530
H10   H     H_    0.460789 0.962391 0.300986 0.110730
H11   H     H_    0.396071 0.384057 0.949153 0.251257
H12   H     H_    0.602350 0.618350 0.051240 0.248975
H13   H     H_    0.115188 0.404891 0.752058 0.118311
H14   H     H_    0.908045 0.417370 0.759149 0.156367
N1    N     N_2   0.464720 0.456420 0.038520 -0.223340
N2    N     N_2   0.535280 0.543580 0.961480 -0.232312
N3    N     N_1   0.905123 0.773660 0.949715 -0.268949
N4    N     N_1   0.860002 0.918437 0.552517 -0.233399
O1    O     O_R   0.509140 0.286130 0.619770 -0.436447
O2    O     O_2   0.528810 0.140614 0.915502 -0.294261
O3    O     O_3   0.697608 0.942036 0.895244 -0.485432
O4    O     O_R   0.485380 0.256770 0.308360 -0.471878
O5    O     O_R   0.329570 0.514650 0.655700 -0.534656
O6    O     O_R   0.305810 0.485300 0.344290 -0.520647
O7    O     O_R   0.514620 0.743230 0.691640 -0.441333
O8    O     O_R   0.490860 0.713870 0.380230 -0.551165
O9    O     O_R   0.694190 0.514700 0.655710 -0.471280
O10   O     O_R   0.670430 0.485350 0.344300 -0.513080
O11   O     O_2   0.716949 0.193168 0.765619 -0.287898
S1    S     S_3+6 0.622251 0.067782 0.791508 0.037954

loop_
_geom_bond_atom_site_label_1
_geom_bond_atom_site_label_2
_ccdc_geom_bond_type
C10   H9    S    
C16   O9    A    
C13   S1    S    
C4    H8    S    
Cu1   O7    S    
C3    C9    S    
Cu2   O8    S    
C6    C14   S    
C9    C10   S    
O2    S1    D    
O11   S1    D    
C1    O1    A    
C14   O6    A    
C13   C15   S    
C2    C3    S    
C15   O7    A    
Cu1   O1    S    
C9    C11   S    
C5    C6    S    
C1    C12   S    
C12   H10   S    
C14   O5    A    
Cu2   O10   S    
C11   H5    S    
C9    C16   S    
Cu1   O9    S    
C15   O8    A    
C5    C11   S    
C3    C7    S    
Cu2   O6    S    
C3    H14   S    
Cu2   N1    S    
Cu1   O5    S    
C4    C6    S    
Cu1   N2    S    
C11   H7    S    
C4    C10   S    
C4    H2    S    
H11   N1    S    
H6    O3    S    
N1    N2    D    
C12   C13   D    
Cu1   Cu2   S    
C8    N4    T    
C16   O10   A    
H12   N2    S    
C2    H13   S    
Cu2   O4    S    
C1    O4    A    
C2    H1    S    
C7    N3    T    
C8    C10   S    
C5    H4    S    
C2    C6    S    
O3    S1    S    
C5    H3    S    
