data_mof_unit_21315.cif
_audit_creation_date              2013-03-05T16:44:38-0500
_audit_creation_method            fapswitch 2.2
_symmetry_space_group_name_H-M    P1
_symmetry_Int_Tables_number       1
_space_group_crystal_system       triclinic
_cell_length_a                    27.701791
_cell_length_b                    10.663
_cell_length_c                    9.859393
_cell_angle_alpha                 90.287643
_cell_angle_beta                  89.720107
_cell_angle_gamma                 90.179155
_cell_volume                      2912.2234245

loop_
_atom_site_label
_atom_site_type_symbol
_atom_site_description
_atom_site_fract_x
_atom_site_fract_y
_atom_site_fract_z
_atom_type_partial_charge
O1    O     O_R   0.500010 0.316790 0.614690 -0.622474
O2    O     O_R   0.500000 0.316760 0.385350 -0.578017
C1    C     C_R   0.502088 0.260011 0.499542 0.897983
O3    O     O_R   0.428760 0.500040 0.614660 -0.561773
O4    O     O_R   0.428750 0.500000 0.385310 -0.618498
C2    C     C_R   0.406161 0.501394 0.500246 0.899359
Zn1   Zn    Zn3+2 0.500000 0.500020 0.653130 1.015369
Zn2   Zn    Zn3+2 0.500000 0.499980 0.346870 1.002213
O5    O     O_R   0.500000 0.683240 0.614650 -0.594532
O6    O     O_R   0.499990 0.683210 0.385310 -0.592977
O7    O     O_R   0.571250 0.500000 0.614690 -0.590984
O8    O     O_R   0.571240 0.499960 0.385340 -0.636498
C3    C     C_R   0.501526 0.739897 0.500325 0.908327
C4    C     C_R   0.593957 0.498338 0.499734 0.888504
C5    C     C_R   0.178871 0.406778 0.546072 0.594231
O9    O     O_2   0.205161 0.303427 0.572205 -0.499736
N1    N     N_R   0.201991 0.515731 0.512643 -0.340421
C6    C     C_R   0.177390 0.623199 0.485349 0.565400
C7    C     C_R   0.279588 0.581440 0.608023 0.588254
C8    C     C_R   0.330204 0.575077 0.604429 -0.266877
C9    C     C_R   0.327182 0.448607 0.399270 -0.244632
C10   C     C_R   0.277160 0.453092 0.402543 -0.182886
C11   C     C_R   0.253462 0.517287 0.507438 0.206949
C12   C     C_R   0.102047 0.512184 0.521723 -0.127135
C13   C     C_R   0.128152 0.402522 0.552608 -0.245868
C14   C     C_R   0.102898 0.293433 0.591882 0.458597
C15   C     C_R   0.127025 0.623875 0.490484 0.014168
C16   C     C_R   0.353772 0.508258 0.501132 -0.099194
H1    H     H_    0.345032 0.395970 0.319486 0.163458
H2    H     H_    0.256601 0.404972 0.324853 0.171192
C17   C     C_R   0.646657 0.493510 0.498561 -0.149573
C18   C     C_R   0.975580 0.391705 0.519457 0.110707
C19   C     C_R   0.974221 0.622258 0.506800 -0.044385
C20   C     C_R   0.949617 0.505746 0.510254 0.072927
C21   C     C_R   0.950232 0.277782 0.501694 -0.126213
C22   C     C_R   0.900330 0.275620 0.491452 -0.141025
C23   C     C_R   0.874118 0.387250 0.495657 -0.000676
C24   C     C_R   0.898621 0.503044 0.503213 -0.135644
C25   C     C_R   0.872140 0.615883 0.503334 -0.175479
C26   C     C_R   0.821566 0.609740 0.499437 0.566209
N2    N     N_R   0.798748 0.496053 0.493405 -0.356654
C27   C     C_R   0.823742 0.385967 0.490153 0.531685
C28   C     C_R   0.722690 0.447596 0.607680 -0.181106
C29   C     C_R   0.672392 0.445634 0.610258 0.492266
C30   C     C_R   0.671786 0.536110 0.383601 -0.273702
C31   C     C_R   0.721886 0.535327 0.381196 -0.085742
C32   C     C_R   0.747306 0.492225 0.493607 0.221536
O10   O     O_2   0.799777 0.275776 0.481599 -0.531165
C33   C     C_R   0.026097 0.395561 0.540835 -0.165957
C34   C     C_R   0.050988 0.510384 0.521077 0.008112
C35   C     C_R   0.025227 0.623423 0.499423 0.131509
C36   C     C_R   0.052607 0.289801 0.584190 0.490935
H3    H     H_    0.742692 0.414529 0.694538 0.166990
H4    H     H_    0.882399 0.185789 0.479697 0.222993
H5    H     H_    0.968303 0.189077 0.489010 0.217987
O11   O     O_2   0.201748 0.728687 0.452317 -0.563971
C37   C     C_R   0.101380 0.733428 0.463631 -0.123155
H6    H     H_    0.351364 0.621618 0.681453 0.224989
H7    H     H_    0.119863 0.819952 0.438223 0.203026
C38   C     C_R   0.946898 0.733787 0.510093 -0.306662
C39   C     C_R   0.896802 0.730938 0.508961 0.705111
O12   O     O_2   0.795178 0.715895 0.502945 -0.459004
C40   C     C_R   0.051396 0.733645 0.468786 -0.193725
H8    H     H_    0.963375 0.825295 0.517647 0.185209
H9    H     H_    0.652723 0.572054 0.296424 0.179090
H10   H     H_    0.741054 0.569535 0.292751 0.162533
H11   H     H_    0.034148 0.820774 0.443000 0.160202
C41   C     C_R   0.504433 0.064574 0.621644 0.061248
C42   C     C_R   0.509975 0.128450 0.499700 -0.230959
C43   C     C_R   0.524175 0.063187 0.380998 0.511618
C44   C     C_R   0.524626 0.932696 0.384204 -0.304252
H12   H     H_    0.534392 0.880531 0.293643 0.190929
C45   C     C_R   0.509307 0.871027 0.501926 -0.182048
C46   C     C_R   0.504047 0.937038 0.622755 0.117605
C47   C     C_3   0.465072 0.931019 0.727917 -0.385610
C48   C     C_3   0.465461 0.073202 0.726910 -0.472752
H13   H     H_    0.430972 0.889441 0.688684 0.215655
H14   H     H_    0.478121 0.890869 0.824877 0.235402
H15   H     H_    0.431553 0.114541 0.687248 0.213120
H16   H     H_    0.478712 0.115175 0.823293 0.203394
C49   C     C_R   0.458570 0.475385 0.071850 -0.031653
N3    N     N_R   0.499670 0.499140 0.142800 -0.062137
C50   C     C_R   0.541803 0.512804 0.071386 -0.069392
H17   H     H_    0.575391 0.526725 0.124750 0.144745
C51   C     C_R   0.541782 0.513231 0.927606 -0.098088
H18   H     H_    0.575339 0.527809 0.873609 0.191426
N4    N     N_R   0.499670 0.499180 0.857150 -0.099322
C52   C     C_R   0.458645 0.473807 0.929166 0.020526
C53   C     C_3   0.412816 0.546721 0.925544 0.985625
C54   C     C_3   0.412985 0.549318 0.079769 0.228555
H19   H     H_    0.383348 0.494660 0.128593 0.067834
O13   O     O_3   0.254129 0.638688 0.713328 -0.597741
C55   C     C_3   0.274614 0.755385 0.749950 -0.237943
H20   H     H_    0.286524 0.810626 0.660067 0.163633
H21   H     H_    0.304890 0.741936 0.821833 0.176415
H22   H     H_    0.246697 0.811471 0.803520 0.200440
F1    F     F_    0.872895 0.841939 0.512638 -0.606604
O14   O     O_3   0.538596 0.126636 0.265197 -0.581349
C56   C     C_3   0.504330 0.107258 0.161538 -0.253200
H23   H     H_    0.512126 0.173981 0.078186 0.181586
H24   H     H_    0.466823 0.126032 0.197459 0.151151
H25   H     H_    0.507033 0.010974 0.118597 0.159823
F2    F     F_    0.418164 0.663202 0.865511 -0.682116
F3    F     F_    0.374920 0.477083 0.873519 -0.707512
O15   O     O_3   0.421609 0.670252 0.134159 -0.555706
C57   C     C_3   0.377126 0.728937 0.161931 -0.213865
H26   H     H_    0.357252 0.679237 0.244037 0.157652
H27   H     H_    0.354446 0.735076 0.069316 0.173171
H28   H     H_    0.384334 0.825940 0.197861 0.174569
O16   O     O_3   0.126988 0.186788 0.632878 -0.532638
C58   C     C_3   0.130731 0.189468 0.775547 -0.128988
H29   H     H_    0.094586 0.183856 0.824871 0.173669
H30   H     H_    0.150378 0.274572 0.811472 0.145846
H31   H     H_    0.151663 0.106479 0.808134 0.183605
O17   O     O_3   0.648880 0.401829 0.724618 -0.614885
C59   C     C_3   0.640936 0.271937 0.708498 -0.249988
H32   H     H_    0.675673 0.220050 0.701335 0.181294
H33   H     H_    0.618133 0.251379 0.618303 0.151348
H34   H     H_    0.621229 0.236986 0.799025 0.193078
F4    F     F_    0.030429 0.184879 0.631251 -0.667898

loop_
_geom_bond_atom_site_label_1
_geom_bond_atom_site_label_2
_geom_bond_distance
_ccdc_geom_bond_type
N4    C52   1.364203 A    
C55   H20   1.114594 S    
N2    C27   1.364854 A    
C21   C22   1.386656 A    
C12   C15   1.410120 A    
C4    C17   1.460935 S    
C47   C48   1.516184 S    
C49   N3    1.361615 A    
C51   H18   1.080191 S    
Zn1   O7    2.007992 S    
N1    C11   1.426562 S    
Zn2   N3    2.012047 S    
C22   C23   1.396571 A    
C1    C42   1.420436 S    
C31   H10   1.082992 S    
C24   C25   1.411147 A    
O7    C4    1.293628 A    
C5    C13   1.406771 A    
C57   H26   1.112380 S    
C41   C46   1.360028 A    
O17   C59   1.410044 S    
O14   C56   1.412229 S    
C26   O12   1.349579 S    
C59   H32   1.113246 S    
N1    C6    1.363735 A    
C45   C46   1.387948 A    
C23   C27   1.396849 A    
O5    C3    1.281989 A    
O16   C58   1.411088 S    
C7    O13   1.391816 S    
C28   H3    1.083333 S    
C2    C16   1.453307 S    
C58   H29   1.112565 S    
C29   O17   1.382007 S    
C41   C42   1.392394 A    
C48   H15   1.112399 S    
C43   C44   1.392031 A    
C14   O16   1.383412 S    
C6    O11   1.350331 S    
C55   H21   1.110803 S    
C22   H4    1.083580 S    
O1    Zn1   1.988334 S    
C9    C10   1.386875 A    
C53   F2    1.385756 S    
C43   O14   1.386535 S    
O3    Zn1   2.011413 S    
C37   C40   1.385325 A    
C51   N4    1.368096 A    
C12   C34   1.414544 A    
C25   C39   1.403354 A    
C40   H11   1.078153 S    
C17   C29   1.413246 A    
C21   H5    1.077986 S    
C18   C21   1.411790 A    
C35   C40   1.412164 A    
C12   C13   1.412094 A    
O3    C2    1.292962 A    
C15   C37   1.396257 A    
C25   C26   1.403021 A    
C44   C45   1.400267 A    
C8    C16   1.400093 A    
C34   C35   1.420264 A    
C13   C14   1.410395 A    
C30   C31   1.387975 A    
C9    H1    1.082498 S    
C19   C35   1.414470 A    
C38   C39   1.388071 A    
O1    C1    1.285077 A    
C18   C20   1.418250 A    
C7    C11   1.404390 A    
C28   C29   1.393540 A    
C23   C24   1.408943 A    
C14   C36   1.395970 A    
C50   H17   1.080615 S    
Zn2   O8    2.011413 S    
C33   C36   1.416634 A    
C19   C20   1.415665 A    
N2    C32   1.425501 S    
C58   H30   1.113883 S    
C27   O10   1.350200 S    
C52   C53   1.491426 S    
C47   H13   1.112517 S    
C49   C54   1.492269 S    
C36   F4    1.357401 S    
C26   N2    1.366546 A    
C50   C51   1.417621 A    
C9    C16   1.397734 A    
C3    C45   1.414102 S    
C33   C34   1.417127 A    
C19   C38   1.411821 A    
C53   F3    1.383160 S    
C30   H9    1.083311 S    
C41   C48   1.496621 S    
C8    H6    1.079497 S    
C5    N1    1.365896 A    
C31   C32   1.396487 A    
C10   H2    1.082978 S    
C56   H24   1.114473 S    
C20   C24   1.414903 A    
C39   F1    1.358331 S    
C6    C15   1.395920 A    
C48   H16   1.111852 S    
C54   O15   1.414175 S    
O8    C4    1.294436 A    
O6    C3    1.283171 A    
O4    Zn2   2.007994 S    
C55   H22   1.109231 S    
O15   C57   1.408836 S    
C59   H34   1.109439 S    
C38   H8    1.078333 S    
C7    C8    1.404277 A    
O2    C1    1.282487 A    
C44   H12   1.083245 S    
C56   H23   1.109667 S    
C54   H19   1.114164 S    
O4    C2    1.291860 A    
C57   H27   1.113243 S    
O13   C55   1.412028 S    
C59   H33   1.113795 S    
C58   H31   1.109239 S    
C42   C43   1.413410 A    
C47   H14   1.111891 S    
C18   C33   1.416657 A    
C49   C52   1.406786 A    
C37   H7    1.083616 S    
Zn1   O5    1.992039 S    
C56   H25   1.111170 S    
Zn1   N4    2.011554 S    
C46   C47   1.494719 S    
Zn2   O6    1.988333 S    
N3    C50   1.367911 A    
C17   C30   1.403959 A    
O2    Zn2   1.992040 S    
C10   C11   1.399336 A    
C53   C54   1.520713 S    
C28   C32   1.397222 A    
C5    O9    1.349429 S    
C57   H28   1.109470 S    
