data_mof_unit_45876.cif
_audit_creation_date              2012-12-10T17:18:53-0500
_audit_creation_method            fapswitch 2.2
_symmetry_space_group_name_H-M    P1
_symmetry_Int_Tables_number       1
_space_group_crystal_system       triclinic
_cell_length_a                    9.612476
_cell_length_b                    10.788015
_cell_length_c                    13.480407
_cell_angle_alpha                 93.227018
_cell_angle_beta                  72.940388
_cell_angle_gamma                 91.510026
_cell_volume                      1334.21391571

loop_
_atom_site_label
_atom_site_type_symbol
_atom_type_description
_atom_site_fract_x
_atom_site_fract_y
_atom_site_fract_z
_atom_type_partial_charge
C1    C     C_R   0.501000 0.737484 0.502841 0.881335
C2    C     C_R   0.438085 0.504713 0.977741 0.100987
C3    C     C_R   0.466463 0.464776 0.871674 0.061435
C4    C     C_R   0.542095 0.478565 0.030344 0.061394
C5    C     C_R   0.674225 0.417476 0.975605 0.079272
C6    C     C_R   0.688536 0.365241 0.875654 -0.188390
C7    C     C_R   0.584860 0.385931 0.825776 -0.210063
C8    C     C_R   0.517656 0.509812 0.136293 -0.247376
C9    C     C_R   0.755689 0.437906 0.130498 -0.206889
C10   C     C_R   0.375927 0.505049 0.813877 -0.100110
C11   C     C_R   0.379259 0.883391 0.701081 0.467640
C12   C     C_R   0.421937 0.496386 0.699570 0.899278
C13   C     C_R   0.285667 0.947575 0.786546 -0.288627
C14   C     C_R   0.243823 0.067391 0.777768 -0.283136
C15   C     C_R   0.299777 0.127559 0.684796 0.443163
C16   C     C_R   0.403843 0.067315 0.599112 -0.061475
C17   C     C_R   0.427897 0.939013 0.603680 -0.064063
C18   C     C_R   0.503900 0.871825 0.511258 -0.068426
C19   C     C_R   0.576858 0.933201 0.422359 -0.201937
C20   C     C_R   0.572654 0.061068 0.423044 -0.206879
C21   C     C_R   0.486676 0.128703 0.509506 -0.066725
C22   C     C_R   0.909983 0.335922 0.359506 -0.232311
C23   C     C_R   0.495505 0.262868 0.504985 0.830450
C24   C     C_R   0.008147 0.253782 0.291304 -0.028706
C25   C     C_R   0.150935 0.253379 0.294441 -0.243319
C26   C     C_R   0.195871 0.333632 0.363118 -0.185750
C27   C     C_R   0.100413 0.418537 0.432172 0.191792
C28   C     C_R   0.951457 0.419102 0.431369 0.191293
C29   C     C_R   0.901594 0.576786 0.565261 -0.053712
C30   C     C_R   0.049437 0.576888 0.565140 -0.057738
C31   C     C_R   0.577724 0.498491 0.300420 0.789421
C32   C     C_R   0.784967 0.404334 0.024647 0.002884
C33   C     C_R   0.620299 0.485103 0.186939 -0.076382
C34   C     C_R   0.249852 0.572195 0.864484 -0.105749
C35   C     C_R   0.215191 0.602809 0.969947 -0.135257
C36   C     C_R   0.308843 0.572233 0.025882 -0.165080
Cu1   Cu    Cu3+1 0.359340 0.500010 0.500010 0.964801
Cu2   Cu    Cu3+1 0.640660 0.499990 0.499990 0.945323
H1    H     H_    0.837632 0.424808 0.169471 0.187481
H2    H     H_    0.246174 0.904151 0.860279 0.180735
H3    H     H_    0.167472 0.114533 0.843684 0.205231
H4    H     H_    0.633050 0.107669 0.354451 0.183633
H5    H     H_    0.826507 0.639881 0.618690 0.132150
H6    H     H_    0.802508 0.330958 0.353622 0.220901
H7    H     H_    0.229650 0.190948 0.242942 0.199387
H8    H     H_    0.307226 0.324806 0.358382 0.210887
H9    H     H_    0.777879 0.304966 0.835786 0.171048
H10   H     H_    0.084404 0.639938 0.618630 0.141890
H11   H     H_    0.416547 0.549199 0.183017 0.160018
H12   H     H_    0.180051 0.605085 0.821575 0.172968
H13   H     H_    0.277271 0.605490 0.105979 0.130462
H14   H     H_    0.117807 0.655280 0.007877 0.139804
H15   H     H_    0.599113 0.339108 0.750452 0.165647
H16   H     H_    0.637455 0.881776 0.352244 0.145894
N1    N     N_R   0.852480 0.498790 0.499000 -0.196216
N2    N     N_R   0.148360 0.498710 0.498970 -0.203527
O1    O     O_R   0.381190 0.680360 0.500010 -0.578061
O2    O     O_R   0.618760 0.680340 0.500000 -0.569950
O3    O     O_R   0.323240 0.499990 0.650990 -0.543290
O4    O     O_R   0.560820 0.499960 0.650980 -0.592402
O5    O     O_R   0.381240 0.319660 0.500000 -0.566523
O6    O     O_R   0.618810 0.319640 0.499990 -0.613735
O7    O     O_R   0.439180 0.500040 0.349020 -0.605004
O8    O     O_R   0.676760 0.500010 0.349010 -0.603434
O9    O     O_3   0.431695 0.770257 0.715753 -0.605939
C37   C     C_3   0.552325 0.792608 0.754243 -0.322413
H17   H     H_    0.520062 0.843813 0.831424 0.170461
H18   H     H_    0.640783 0.843611 0.698304 0.157998
H19   H     H_    0.597131 0.702545 0.765180 0.192449
O10   O     O_3   0.245194 0.242303 0.677693 -0.591767
C38   C     C_3   0.113596 0.224264 0.651782 -0.243680
H20   H     H_    0.030185 0.175586 0.713063 0.144001
H21   H     H_    0.131762 0.172718 0.575198 0.159425
H22   H     H_    0.069039 0.316327 0.645780 0.209671
C39   C     C_2   0.962562 0.167922 0.216148 0.900251
O11   O     O_2   0.840913 0.174756 0.205751 -0.638917
O12   O     O_R   0.059732 0.079552 0.155728 -0.758427
H23   H     H_    0.016589 0.027418 0.106875 0.334089
C40   C     C_2   0.933616 0.361070 0.967461 0.799838
O13   O     O_2   0.003599 0.302949 0.011441 -0.580840
O14   O     O_R   0.997071 0.392411 0.864906 -0.799336
H24   H     H_    0.100113 0.361121 0.836812 0.364774

loop_
_geom_bond_atom_site_label_1
_geom_bond_atom_site_label_2
_ccdc_geom_bond_type
C37   H18   S    
C16   C21   A    
C19   C20   A    
C4    C8    A    
O14   H24   S    
O12   H23   S    
C26   C27   A    
Cu1   Cu2   S    
C30   H10   S    
C34   C35   A    
C3    C7    A    
C5    C6    A    
C37   H19   S    
C15   C16   A    
C9    H1    S    
C18   C19   A    
C13   H2    S    
C9    C32   A    
Cu2   O2    S    
Cu1   N2    S    
C23   O6    A    
C22   H6    S    
Cu2   N1    S    
C35   C36   A    
C16   C17   A    
C31   C33   S    
O10   C38   S    
C5    C32   A    
C37   H17   S    
C22   C28   A    
C13   C14   A    
C29   H5    S    
C9    C33   A    
C12   O3    A    
Cu1   O7    S    
C28   N1    A    
Cu2   O8    S    
C34   H12   S    
C6    H9    S    
C31   O7    A    
C24   C25   A    
C40   O14   S    
C27   N2    A    
C29   N1    A    
C25   C26   A    
C30   N2    A    
C2    C4    A    
C39   O11   D    
C29   C30   A    
C1    O1    A    
Cu1   O5    S    
C17   C18   A    
C1    C18   S    
C10   C34   A    
C39   O12   S    
Cu1   O3    S    
C36   H13   S    
C10   C12   S    
C14   H3    S    
Cu2   O4    S    
C19   H16   S    
C21   C23   S    
C22   C24   A    
C7    H15   S    
C25   H7    S    
C35   H14   S    
C38   H21   S    
C2    C36   A    
C15   O10   S    
C11   C17   A    
C31   O8    A    
C4    C5    A    
C38   H22   S    
C20   H4    S    
C24   C39   S    
C6    C7    A    
C2    C3    A    
C38   H20   S    
C3    C10   A    
C1    O2    A    
C32   C40   S    
C11   C13   A    
C8    C33   A    
C26   H8    S    
C40   O13   D    
C12   O4    A    
C23   O5    A    
C20   C21   A    
O9    C37   S    
C27   C28   A    
C14   C15   A    
C8    H11   S    
Cu1   O1    S    
C11   O9    S    
Cu2   O6    S    
