data_mof_unit_34307.cif
_audit_creation_date              2012-12-10T17:50:44-0500
_audit_creation_method            fapswitch 2.2
_symmetry_space_group_name_H-M    P1
_symmetry_Int_Tables_number       1
_space_group_crystal_system       triclinic
_cell_length_a                    14.68501
_cell_length_b                    14.766158
_cell_length_c                    15.875859
_cell_angle_alpha                 76.80801
_cell_angle_beta                  102.876441
_cell_angle_gamma                 115.014598
_cell_volume                      3005.99961013

loop_
_atom_site_label
_atom_site_type_symbol
_atom_type_description
_atom_site_fract_x
_atom_site_fract_y
_atom_site_fract_z
_atom_type_partial_charge
C1    C     C_R   0.879902 0.312301 0.514080 0.821362
C2    C     C_R   0.120092 0.687742 0.484804 0.821362
C3    C     C_R   0.784224 0.034162 0.601187 -0.143664
C4    C     C_R   0.213987 0.967742 0.484491 -0.149786
C5    C     C_R   0.849108 0.134511 0.581194 -0.268669
C6    C     C_R   0.149297 0.867306 0.480495 -0.266394
C7    C     C_R   0.706943 0.174335 0.498577 0.099936
C8    C     C_R   0.293591 0.825104 0.487113 0.111293
C9    C     C_R   0.638908 0.077013 0.531607 0.024667
C10   C     C_R   0.360391 0.922517 0.507510 0.025711
C11   C     C_R   0.678641 0.002942 0.575155 0.106398
C12   C     C_R   0.320165 0.996921 0.499891 0.103416
C13   C     C_R   0.532736 0.051206 0.521955 0.062255
C14   C     C_R   0.466367 0.948824 0.532041 0.069086
C15   C     C_R   0.506662 0.876092 0.573608 -0.306956
C16   C     C_R   0.492144 0.124497 0.513106 -0.315620
C17   C     C_R   0.611074 0.901071 0.594733 -0.010475
C18   C     C_R   0.387715 0.098445 0.505796 0.006930
C19   C     C_R   0.712338 0.662103 0.347593 -0.098122
C20   C     C_R   0.290765 0.343937 0.657654 -0.071027
C21   C     C_R   0.795159 0.633965 0.374332 0.001536
C22   C     C_R   0.205981 0.368620 0.627711 0.002977
C23   C     C_R   0.999734 0.500035 0.660004 0.819365
C24   C     C_R   0.000263 0.499965 0.339991 0.832693
C25   C     C_R   0.716026 0.512083 0.489480 0.017749
C26   C     C_R   0.284603 0.488129 0.511253 0.008729
C27   C     C_R   0.629497 0.537122 0.467941 -0.036280
C28   C     C_R   0.373849 0.467742 0.537040 -0.057330
C29   C     C_R   0.629624 0.615597 0.396572 0.137746
C30   C     C_R   0.374904 0.391800 0.610353 0.154397
C31   C     C_R   0.544204 0.488021 0.515394 0.092060
C32   C     C_R   0.460583 0.518821 0.491556 0.087982
C33   C     C_R   0.467296 0.601230 0.424244 -0.250689
C34   C     C_R   0.539451 0.408743 0.585584 -0.285302
C35   C     C_R   0.549524 0.648308 0.378368 -0.121770
C36   C     C_R   0.457703 0.362812 0.632108 -0.111304
C37   C     C_3   0.932771 0.409248 0.033338 -0.238841
C38   C     C_3   0.067109 0.590818 0.966605 -0.236535
C39   C     C_3   0.908998 0.484942 0.956753 0.208106
C40   C     C_3   0.090883 0.515126 0.043187 0.206863
C41   C     C_1   0.999508 0.500369 0.749515 -0.164975
C42   C     C_1   0.000470 0.499647 0.250468 -0.162659
C43   C     C_3   0.027155 0.425259 0.993121 -0.186681
C44   C     C_3   0.972726 0.574808 0.006824 -0.182371
C45   C     C_3   0.000944 0.500557 0.916853 0.135143
C46   C     C_3   0.998940 0.499509 0.083094 0.134708
C47   C     C_1   0.999968 0.500536 0.825063 -0.028464
C48   C     C_1   0.999965 0.499505 0.174903 -0.028005
C49   C     C_R   0.811504 0.204967 0.529532 -0.042343
C50   C     C_R   0.188318 0.795229 0.482554 -0.045901
Cu1   Cu    Cu3+1 0.081740 0.475690 0.522610 0.955484
Cu2   Cu    Cu3+1 0.918260 0.524310 0.477390 0.955751
H1    H     H_    0.275669 0.541251 0.454523 0.141382
H2    H     H_    0.723445 0.455175 0.543201 0.126651
H3    H     H_    0.140905 0.332920 0.662516 0.117777
H4    H     H_    0.859733 0.669412 0.338920 0.123571
H5    H     H_    0.410781 0.633253 0.406254 0.142359
H6    H     H_    0.597582 0.378918 0.606348 0.136438
H7    H     H_    0.876332 0.335899 0.060443 0.152130
H8    H     H_    0.123547 0.664167 0.939496 0.152168
H9    H     H_    0.948324 0.634447 0.012731 0.151498
H10   H     H_    0.051556 0.365620 0.987212 0.150028
H11   H     H_    0.068201 0.846474 0.474032 0.177951
H12   H     H_    0.929228 0.156897 0.606173 0.168916
H13   H     H_    0.817775 0.983281 0.641046 0.196279
H14   H     H_    0.179079 0.021073 0.476051 0.200787
H15   H     H_    0.456801 0.799649 0.595008 0.144091
H16   H     H_    0.541894 0.201462 0.521064 0.138759
H17   H     H_    0.550038 0.712851 0.329734 0.193378
H18   H     H_    0.459025 0.300831 0.683183 0.201312
N1    N     N_R   0.795440 0.560790 0.443380 -0.177148
N2    N     N_R   0.204560 0.439210 0.556620 -0.177723
O1    O     O_R   0.977900 0.338120 0.529810 -0.588736
O2    O     O_R   0.022100 0.661880 0.470190 -0.593420
O3    O     O_R   0.839850 0.379180 0.491620 -0.576635
O4    O     O_R   0.160150 0.620820 0.508380 -0.571043
O5    O     O_R   0.069010 0.479460 0.640020 -0.584150
O6    O     O_R   0.930990 0.520540 0.359980 -0.576632
O7    O     O_R   0.930960 0.520530 0.601820 -0.571128
O8    O     O_R   0.069040 0.479470 0.398180 -0.570289
N3    N     N_3   0.808692 0.469007 0.907158 -0.564475
H19   H     H_    0.760571 0.457940 0.951452 0.226080
H20   H     H_    0.782518 0.401218 0.882334 0.219665
N4    N     N_3   0.191195 0.531070 0.092769 -0.569325
H21   H     H_    0.239304 0.542134 0.048465 0.225172
H22   H     H_    0.217371 0.598867 0.117581 0.221903
C51   C     C_2   0.716496 0.738145 0.267565 0.330329
H23   H     H_    0.789536 0.794794 0.251723 0.071790
O9    O     O_2   0.640393 0.734671 0.215736 -0.537810
C52   C     C_2   0.286948 0.269995 0.739110 0.360310
H24   H     H_    0.214354 0.211570 0.754089 0.072285
O10   O     O_2   0.362464 0.277104 0.792851 -0.543951
C53   C     C_2   0.643912 0.816319 0.634010 0.344654
H25   H     H_    0.596311 0.751554 0.674939 0.082546
O11   O     O_2   0.719759 0.814135 0.616601 -0.541202
C54   C     C_2   0.354548 0.181020 0.503723 0.324028
H26   H     H_    0.397286 0.256915 0.473132 0.088076
O12   O     O_2   0.283987 0.167194 0.540372 -0.561365
N5    N     N_3   0.328467 0.764838 0.452910 -0.604077
H27   H     H_    0.391906 0.810480 0.421519 0.229322
H28   H     H_    0.345777 0.712511 0.502873 0.223646
N6    N     N_3   0.674735 0.234219 0.422340 -0.577854
H29   H     H_    0.611484 0.188463 0.384097 0.231578
H30   H     H_    0.657615 0.288136 0.440638 0.226566

loop_
_geom_bond_atom_site_label_1
_geom_bond_atom_site_label_2
_ccdc_geom_bond_type
C4    H14   S    
C51   H23   S    
C53   H25   S    
C27   C29   A    
C26   N2    A    
C40   N4    S    
Cu2   O3    S    
N3    H19   S    
C22   H3    S    
C20   C30   A    
C40   C46   S    
C21   N1    A    
C19   C21   A    
C8    N5    S    
N4    H22   S    
Cu2   O2    S    
C24   C42   S    
C15   C17   A    
C9    C13   A    
Cu1   O8    S    
C38   C45   S    
C2    C50   S    
N4    H21   S    
C24   O8    A    
C40   C43   S    
C31   C32   A    
C44   C46   S    
C7    N6    S    
C54   O12   D    
C16   H16   S    
C4    C12   A    
Cu2   O7    S    
C2    O2    A    
C39   C45   S    
C53   O11   D    
C13   C14   A    
C5    C49   A    
C3    H13   S    
Cu2   O6    S    
C22   N2    A    
N3    H20   S    
C36   H18   S    
C45   C47   S    
C46   C48   S    
C27   C31   A    
Cu1   Cu2   S    
C1    O3    A    
C28   C32   A    
C25   H2    S    
C7    C49   A    
C4    C6    A    
C10   C14   A    
C20   C52   S    
C6    C50   A    
C5    H12   S    
C6    H11   S    
C37   C43   S    
Cu1   O5    S    
C38   C44   S    
C9    C11   A    
C52   O10   D    
N5    H27   S    
C15   H15   S    
C54   H26   S    
C41   C47   T    
C31   C34   A    
C42   C48   T    
C25   N1    A    
C23   O5    A    
N6    H30   S    
C43   C45   S    
C39   N3    S    
C37   H7    S    
C10   C12   A    
C38   H8    S    
C24   O6    A    
N5    H28   S    
C20   C22   A    
C51   O9    D    
C17   C53   S    
Cu1   N2    S    
C19   C29   A    
C26   H1    S    
C8    C50   A    
C2    O4    A    
C7    C9    A    
C11   C17   A    
C33   H5    S    
C8    C10   A    
C18   C54   S    
Cu1   O1    S    
C3    C5    A    
C21   H4    S    
C39   C44   S    
C44   H9    S    
C25   C27   A    
C29   C35   A    
C26   C28   A    
C23   C41   S    
C30   C36   A    
C1    O1    A    
C32   C33   A    
C28   C30   A    
C19   C51   S    
C37   C39   S    
Cu2   N1    S    
C38   C40   S    
C52   H24   S    
C33   C35   A    
C34   C36   A    
N6    H29   S    
C3    C11   A    
C35   H17   S    
C16   C18   A    
C13   C16   A    
C12   C18   A    
Cu1   O4    S    
C34   H6    S    
C14   C15   A    
C23   O7    A    
C37   C46   S    
C1    C49   S    
C43   H10   S    
