data_mof_unit_11677.cif
_audit_creation_date              2012-12-10T16:51:01-0500
_audit_creation_method            fapswitch 2.2
_symmetry_space_group_name_H-M    P1
_symmetry_Int_Tables_number       1
_space_group_crystal_system       triclinic
_cell_length_a                    7.830207
_cell_length_b                    8.465587
_cell_length_c                    10.845626
_cell_angle_alpha                 93.203903
_cell_angle_beta                  85.053648
_cell_angle_gamma                 93.609162
_cell_volume                      713.908137204

loop_
_atom_site_label
_atom_site_type_symbol
_atom_type_description
_atom_site_fract_x
_atom_site_fract_y
_atom_site_fract_z
_atom_type_partial_charge
C1    C     C_R   0.545532 0.796243 0.510154 0.803217
C2    C     C_R   0.966450 0.464958 0.037358 -0.111833
C3    C     C_R   0.047036 0.612079 0.077536 -0.114281
C4    C     C_R   0.979760 0.521824 0.918077 -0.135035
C5    C     C_R   0.196546 0.605360 0.139797 -0.197042
C6    C     C_R   0.830944 0.545880 0.862136 -0.131945
C7    C     C_R   0.355309 0.568560 0.073108 0.086030
C8    C     C_R   0.667564 0.532347 0.926927 0.097581
C9    C     C_R   0.369890 0.596859 0.946654 0.059804
C10   C     C_R   0.655029 0.489947 0.049913 0.078081
C11   C     C_R   0.499607 0.512384 0.125682 -0.209574
C12   C     C_R   0.454993 0.205559 0.514611 0.858841
C13   C     C_R   0.517032 0.558062 0.871757 -0.231681
C14   C     C_2   0.570322 0.961302 0.548667 0.046150
C15   C     C_2   0.432631 0.049518 0.560690 0.144103
C16   C     C_R   0.505391 0.521189 0.738984 0.921410
C17   C     C_R   0.498624 0.499007 0.259346 0.861259
C18   C     C_R   0.239174 0.675597 0.899934 -0.111385
C19   C     C_R   0.800995 0.424526 0.090729 -0.161156
C20   C     C_R   0.071874 0.660983 0.955231 -0.148040
H1    H     H_    0.053164 0.446332 0.851092 0.209746
H2    H     H_    0.988756 0.626939 0.589344 0.236192
H3    H     H_    0.703426 0.872148 0.780667 0.346513
H4    H     H_    0.083323 0.159289 0.792482 0.385965
H5    H     H_    0.958612 0.684951 0.135765 0.166925
H6    H     H_    0.259491 0.729581 0.812776 0.235179
H7    H     H_    0.788098 0.334804 0.158810 0.162666
H8    H     H_    0.009984 0.769560 0.940512 0.191624
H9    H     H_    0.044996 0.364982 0.046524 0.163986
H10   H     H_    0.186852 0.651738 0.234390 0.189015
H11   H     H_    0.851636 0.604326 0.776448 0.190845
H12   H     H_    0.011872 0.376092 0.407387 0.201437
N1    N     N_2   0.950330 0.457950 0.466250 -0.155952
N2    N     N_2   0.049670 0.542050 0.533750 -0.149738
O1    O     O_R   0.389250 0.738570 0.508280 -0.597917
O2    O     O_2   0.733569 0.170593 0.704762 -0.261543
O3    O     O_3   0.800759 0.877011 0.716045 -0.553132
O4    O     O_2   0.157768 0.885968 0.662317 -0.276164
O5    O     O_2   0.371701 0.998987 0.801311 -0.368209
O6    O     O_3   0.163808 0.186168 0.720127 -0.484012
O7    O     O_R   0.610750 0.261430 0.491720 -0.587156
O8    O     O_R   0.678390 0.711630 0.486650 -0.576749
O9    O     O_R   0.321610 0.288370 0.513350 -0.547484
O10   O     O_R   0.355430 0.513480 0.694040 -0.606680
O11   O     O_R   0.644570 0.486520 0.305960 -0.633593
O12   O     O_R   0.644570 0.486540 0.672410 -0.595415
O13   O     O_R   0.355430 0.513460 0.327590 -0.645807
O14   O     O_2   0.905550 0.047514 0.529881 -0.231211
S1    S     S_3+6 0.757249 0.021024 0.625368 0.089217
S2    S     S_3+6 0.278888 0.025446 0.689281 0.049010
Zn1   Zn    Zn3+2 0.306940 0.517990 0.514440 1.025843
Zn2   Zn    Zn3+2 0.693060 0.482010 0.485560 1.022096

loop_
_geom_bond_atom_site_label_1
_geom_bond_atom_site_label_2
_ccdc_geom_bond_type
C2    C4    A    
C1    O8    A    
C5    C7    A    
C8    C13   A    
O4    S2    D    
O3    S1    S    
C16   O10   A    
O7    Zn2   S    
C18   C20   A    
C18   H6    S    
C12   C15   S    
C10   C19   A    
H12   N1    S    
C6    H11   S    
C3    C20   A    
N1    Zn2   S    
C7    C11   A    
C4    H1    S    
O9    Zn1   S    
N2    Zn1   S    
C12   O7    A    
C2    H9    S    
O6    S2    S    
O10   Zn1   S    
C4    C6    A    
O14   S1    D    
H4    O6    S    
C17   O11   A    
N1    N2    D    
C12   O9    A    
C2    C3    A    
O1    Zn1   S    
H2    N2    S    
C13   C16   S    
C14   S1    S    
C10   C11   A    
C4    C20   A    
O12   Zn2   S    
C9    C18   A    
C3    H5    S    
O5    S2    D    
C19   H7    S    
C1    O1    A    
C8    C10   A    
C5    H10   S    
C15   S2    S    
C16   O12   A    
C7    C9    A    
C9    C13   A    
C14   C15   D    
C11   C17   S    
C6    C8    A    
C1    C14   S    
C20   H8    S    
O11   Zn2   S    
C2    C19   A    
H3    O3    S    
O13   Zn1   S    
O2    S1    D    
C17   O13   A    
O8    Zn2   S    
C3    C5    A    
