data_mof_unit_12226.cif
_audit_creation_date              2012-12-11T14:08:26-0500
_audit_creation_method            fapswitch 2.2
_symmetry_space_group_name_H-M    P1
_symmetry_Int_Tables_number       1
_space_group_crystal_system       triclinic
_cell_length_a                    11.137112
_cell_length_b                    11.162726
_cell_length_c                    18.608466
_cell_angle_alpha                 90.273459
_cell_angle_beta                  90.365474
_cell_angle_gamma                 59.449339
_cell_volume                      1992.22262625

loop_
_atom_site_label
_atom_site_type_symbol
_atom_type_description
_atom_site_fract_x
_atom_site_fract_y
_atom_site_fract_z
_atom_type_partial_charge
C1    C     C_R   0.230179 0.647754 0.605383 0.549062
C2    C     C_2   0.808144 0.067419 0.690016 -0.078696
C3    C     C_2   0.158672 0.666171 0.673112 0.363881
C4    C     C_R   0.658272 0.625382 0.598827 0.554581
C5    C     C_2   0.165123 0.682561 0.833829 -0.071165
C6    C     C_2   0.189885 0.569884 0.797085 -0.202233
C7    C     C_2   0.212254 0.557504 0.719077 -0.134713
C8    C     C_2   0.655846 0.655474 0.320452 0.167146
C9    C     C_2   0.637521 0.662539 0.158104 -0.072213
C10   C     C_2   0.724244 0.553646 0.198186 -0.104537
C11   C     C_2   0.706762 0.547018 0.274387 -0.087559
C12   C     C_3   0.676992 0.607328 0.805143 -0.105160
C13   C     C_2   0.574596 0.297822 0.311103 -0.071569
C14   C     C_2   0.641105 0.190735 0.167314 -0.139774
C15   C     C_2   0.510281 0.261936 0.191166 -0.125175
C16   C     C_R   0.632687 0.218035 0.596921 0.543158
C17   C     C_2   0.483812 0.280714 0.269021 0.159556
C18   C     C_2   0.142035 0.677356 0.336204 0.410672
C19   C     C_2   0.001331 0.748779 0.193957 0.415525
C20   C     C_2   0.013672 0.837743 0.237849 -0.113383
C21   C     C_2   0.051997 0.807406 0.314055 -0.124980
C22   C     C_R   0.727261 0.044612 0.890055 0.592865
C23   C     C_3   0.742496 0.695968 0.806053 -0.027305
C24   C     C_R   0.762037 0.714579 0.883922 0.532965
C25   C     C_R   0.113239 0.709735 0.906490 0.560806
C26   C     C_R   0.674071 0.111243 0.101983 0.550086
C27   C     C_R   0.692803 0.688079 0.093731 0.573824
C28   C     C_R   0.219516 0.650739 0.402613 0.546254
C29   C     C_R   0.016008 0.753966 0.116480 0.593711
C30   C     C_R   0.642688 0.623565 0.394319 0.537162
C31   C     C_R   0.574463 0.300594 0.389406 0.583496
C32   C     C_3   0.633216 0.838533 0.768402 -0.285735
C33   C     C_3   0.585635 0.813651 0.693079 -0.046910
C34   C     C_3   0.690219 0.660493 0.671522 0.086956
C35   C     C_3   0.883740 0.621629 0.760345 0.054325
C36   C     C_3   0.785616 0.311582 0.761840 -0.293976
C37   C     C_3   0.026892 0.388831 0.835745 -0.254156
C38   C     C_3   0.953362 0.605448 0.559224 -0.288784
C39   C     C_3   0.504294 0.319687 0.831861 -0.304147
C40   C     C_3   0.680212 0.857688 0.327985 -0.288952
C41   C     C_3   0.267593 0.269481 0.252928 -0.235614
C42   C     C_3   0.434201 0.016717 0.616798 -0.305412
C43   C     C_3   0.413796 0.668059 0.750778 -0.331862
C44   C     C_3   0.839044 0.647784 0.678902 0.027807
C45   C     C_3   0.672233 0.561941 0.727651 0.281737
C46   C     C_2   0.687375 0.115855 0.655292 -0.163985
C47   C     C_2   0.711243 0.092430 0.815549 0.110934
C48   C     C_2   0.819547 0.031944 0.768672 0.344126
Cr1   Cr    Cr6+3 0.393010 0.398050 0.501480 1.000095
Cr2   Cr    Cr6+3 0.398820 0.707980 0.501630 0.994331
Cr3   Cr    Cr6+3 0.708140 0.393940 0.496850 0.991640
Cr4   Cr    Cr6+3 0.937950 0.938450 0.008940 1.025481
Cr5   Cr    Cr6+3 0.626180 0.937030 0.994750 0.998673
Cr6   Cr    Cr6+3 0.937790 0.625760 0.001410 1.003860
F1    F     F_    0.948752 0.957998 0.796997 -0.632188
F2    F     F_    0.061567 0.796182 0.693185 -0.649142
F3    F     F_    0.974707 0.651100 0.220453 -0.611650
F4    F     F_    0.187696 0.566715 0.291401 -0.599508
H1    H     H_    0.684149 0.899463 0.760870 0.126771
H2    H     H_    0.537569 0.743631 0.178369 0.128760
H3    H     H_    0.426057 0.279843 0.154927 0.155427
H4    H     H_    0.729970 0.167187 0.201251 0.084920
H5    H     H_    0.651930 0.315192 0.286532 0.041993
H6    H     H_    0.014588 0.927368 0.216027 0.085646
H7    H     H_    0.481644 0.828110 0.697362 0.184183
H8    H     H_    0.027341 0.894883 0.349228 0.079473
H9    H     H_    0.937418 0.679232 0.772985 0.174631
H10   H     H_    0.828866 0.750492 0.667799 0.167245
H11   H     H_    0.732054 0.518692 0.840395 0.157712
H12   H     H_    0.891517 0.076103 0.665386 0.177177
H13   H     H_    0.580669 0.659706 0.836830 0.106310
H14   H     H_    0.836208 0.379630 0.673437 0.282809
H15   H     H_    0.889732 0.216656 0.757168 0.174837
H16   H     H_    0.698712 0.302982 0.740230 0.192380
H17   H     H_    0.769517 0.328462 0.819987 0.131042
H18   H     H_    0.066013 0.431978 0.735867 0.261349
H19   H     H_    0.117949 0.284113 0.824114 0.099840
H20   H     H_    0.946981 0.368422 0.856879 0.179454
H21   H     H_    0.061442 0.435472 0.877199 0.182622
H22   H     H_    0.969362 0.449467 0.627951 0.272474
H23   H     H_    0.612065 0.094093 0.677396 0.175359
H24   H     H_    0.048023 0.526420 0.530538 0.161942
H25   H     H_    0.959556 0.701050 0.565551 0.151127
H26   H     H_    0.861132 0.630484 0.525585 0.153621
H27   H     H_    0.510216 0.148147 0.785216 0.249475
H28   H     H_    0.420772 0.324394 0.866101 0.157274
H29   H     H_    0.460162 0.403034 0.792057 0.163225
H30   H     H_    0.576757 0.334462 0.867001 0.157484
H31   H     H_    0.498760 0.857480 0.304639 0.245558
H32   H     H_    0.647578 0.957501 0.300229 0.146211
H33   H     H_    0.794081 0.788359 0.320286 0.214188
H34   H     H_    0.203612 0.480166 0.825325 0.124852
H35   H     H_    0.657889 0.878269 0.386317 0.126095
H36   H     H_    0.418900 0.169155 0.329690 0.253519
H37   H     H_    0.184994 0.270426 0.286450 0.155970
H38   H     H_    0.308817 0.178634 0.215997 0.102327
H39   H     H_    0.219662 0.367108 0.221269 0.249602
H40   H     H_    0.643013 0.873869 0.596289 0.251561
H41   H     H_    0.438138 0.079449 0.571967 0.172587
H42   H     H_    0.377623 0.086413 0.662698 0.144568
H43   H     H_    0.376297 0.966146 0.597107 0.164360
H44   H     H_    0.531961 0.510755 0.673092 0.276378
H45   H     H_    0.286119 0.453339 0.700096 0.118745
H46   H     H_    0.398979 0.615827 0.796198 0.137240
H47   H     H_    0.330115 0.720087 0.712030 0.195806
H48   H     H_    0.410934 0.758820 0.775685 0.106914
H49   H     H_    0.169772 0.766048 0.807497 0.231720
H50   H     H_    0.538919 0.901239 0.801767 0.140751
H51   H     H_    0.819836 0.467948 0.176246 0.160341
H52   H     H_    0.751700 0.441790 0.294445 0.112490
N1    N     N_2   0.788495 0.418631 0.721500 -0.483781
N2    N     N_2   0.982070 0.469995 0.769927 -0.483280
N3    N     N_2   0.945716 0.551261 0.628784 -0.529084
N4    N     N_2   0.573135 0.190381 0.792394 -0.585896
N5    N     N_2   0.604983 0.794986 0.297958 -0.522700
N6    N     N_2   0.378148 0.258297 0.299145 -0.428201
N7    N     N_2   0.574572 0.913097 0.638816 -0.555168
N8    N     N_2   0.540527 0.566942 0.714930 -0.524966
O1    O     O_R   0.507110 0.256280 0.580300 -0.528876
O2    O     O_R   0.837080 0.593860 0.915300 -0.543051
O3    O     O_R   0.064770 0.636080 0.932550 -0.536299
O4    O     O_R   0.280830 0.527190 0.577940 -0.547316
O5    O     O_R   0.068250 0.829200 0.092940 -0.552739
O6    O     O_R   0.799650 0.057040 0.080330 -0.528685
O7    O     O_R   0.586130 0.079760 0.077080 -0.508630
O8    O     O_R   0.627700 0.809630 0.066580 -0.493673
O9    O     O_R   0.816140 0.597180 0.075920 -0.502116
O10   O     O_R   0.045360 0.639170 0.081440 -0.461428
O11   O     O_3   0.833980 0.833750 0.001700 -0.326817
O12   O     O_R   0.524640 0.695370 0.425100 -0.504892
O13   O     O_R   0.261360 0.738990 0.584270 -0.501807
O14   O     O_R   0.532590 0.694780 0.574370 -0.499272
O15   O     O_R   0.744470 0.503750 0.577000 -0.540862
O16   O     O_R   0.698520 0.277230 0.571620 -0.499205
O17   O     O_R   0.498530 0.256920 0.419280 -0.511350
O18   O     O_R   0.272880 0.527780 0.428680 -0.473515
O19   O     O_R   0.252780 0.739630 0.423250 -0.552089
O20   O     O_R   0.735890 0.504390 0.415980 -0.539844
O21   O     O_R   0.690560 0.277820 0.422350 -0.515057
O22   O     O_3   0.499990 0.499990 0.499980 -0.279791
O23   O     O_R   0.089190 0.825870 0.932320 -0.473041
O24   O     O_R   0.819070 0.053960 0.931440 -0.465090
O25   O     O_R   0.607070 0.076440 0.916460 -0.532591
O26   O     O_R   0.647110 0.806550 0.917690 -0.521468

loop_
_geom_bond_atom_site_label_1
_geom_bond_atom_site_label_2
_ccdc_geom_bond_type
C45   N8    S    
C47   N4    S    
C12   H11   S    
H31   N5    S    
C33   N7    S    
C30   O20   A    
Cr6   O2    S    
C21   H8    S    
C48   F1    S    
C18   C21   D    
Cr4   O6    S    
C19   C20   D    
C39   H29   S    
C40   H35   S    
C16   O16   A    
Cr2   O19   S    
C33   H7    S    
C4    O14   A    
Cr1   O1    S    
C2    C46   D    
C37   H21   S    
C12   C23   S    
Cr4   O11   S    
H27   N4    S    
C3    C7    D    
C27   O8    A    
C5    C6    D    
C38   H25   S    
Cr3   O16   S    
Cr2   O22   S    
C40   N5    S    
C12   H13   S    
C14   H4    S    
C10   H51   S    
C43   H47   S    
C43   H46   S    
C37   N2    S    
Cr2   O12   S    
C8    N5    S    
C1    O4    A    
C27   O9    A    
C18   F4    S    
C22   O25   A    
C23   C24   S    
C9    C10   D    
H44   N8    S    
Cr5   O7    S    
Cr3   O22   S    
C22   C47   S    
Cr1   O17   S    
H14   N1    S    
C7    H45   S    
C38   H24   S    
C11   H52   S    
C26   O6    A    
C39   H30   S    
C40   H32   S    
C4    C34   S    
C24   O2    A    
C34   C44   S    
C31   O17   A    
C10   C11   S    
C16   O1    A    
C16   C46   S    
C38   N3    S    
H36   N6    S    
Cr1   O22   S    
C2    C48   S    
C30   O12   A    
C37   H19   S    
C19   F3    S    
C1    C3    S    
C26   O7    A    
C20   H6    S    
C36   H17   S    
C42   H42   S    
C46   H23   S    
C3    F2    S    
C47   C48   D    
C13   H5    S    
C35   H9    S    
H18   N2    S    
C39   N4    S    
C22   O24   A    
C36   N1    S    
C33   C34   S    
C15   H3    S    
C18   C28   S    
Cr5   O8    S    
C34   C45   S    
C14   C26   S    
C35   C44   S    
Cr2   O14   S    
C5    C25   S    
Cr6   O3    S    
C44   N3    S    
C23   C35   S    
C41   H39   S    
C44   H10   S    
Cr5   O11   S    
C41   N6    S    
C31   O21   A    
C19   C29   S    
C42   H43   S    
C9    C27   S    
H40   N7    S    
C5    H49   S    
C15   C17   S    
Cr6   O11   S    
C36   H16   S    
C38   H26   S    
C20   C21   S    
C28   O18   A    
C13   C31   S    
C25   O23   A    
C28   O19   A    
C12   C45   S    
C1    O13   A    
Cr1   O18   S    
C45   N1    S    
C42   N7    S    
C6    C7    S    
Cr6   O9    S    
Cr4   O23   S    
C39   H28   S    
C13   C17   D    
Cr5   O26   S    
C8    C30   S    
C23   C32   S    
C9    H2    S    
C42   H41   S    
C32   C33   S    
Cr3   O15   S    
C41   H37   S    
Cr6   O10   S    
Cr2   O13   S    
C24   O26   A    
C8    C11   D    
C6    H34   S    
Cr1   O4    S    
C29   O5    A    
Cr4   O5    S    
C40   H33   S    
Cr4   O24   S    
C36   H15   S    
C43   N8    S    
C41   H38   S    
Cr3   O20   S    
H22   N3    S    
C32   H50   S    
C29   O10   A    
C14   C15   D    
C32   H1    S    
Cr5   O25   S    
C2    H12   S    
C37   H20   S    
C25   O3    A    
C43   H48   S    
C35   N2    S    
C17   N6    S    
C4    O15   A    
Cr3   O21   S    
