data_mof_unit_61409.cif
_audit_creation_date              2012-12-10T16:57:32-0500
_audit_creation_method            fapswitch 2.2
_symmetry_space_group_name_H-M    P1
_symmetry_Int_Tables_number       1
_space_group_crystal_system       triclinic
_cell_length_a                    21.761366
_cell_length_b                    21.83217
_cell_length_c                    22.013567
_cell_angle_alpha                 60.91182
_cell_angle_beta                  119.21769
_cell_angle_gamma                 89.660279
_cell_volume                      7560.15524705

loop_
_atom_site_label
_atom_site_type_symbol
_atom_type_description
_atom_site_fract_x
_atom_site_fract_y
_atom_site_fract_z
_atom_type_partial_charge
C1    C     C_R   0.617495 0.501629 0.496879 0.929375
C2    C     C_2   0.817163 0.488779 0.503877 -0.334486
C3    C     C_2   0.692106 0.482181 0.450232 -0.155054
C4    C     C_R   0.418668 0.581025 0.337390 0.899308
C5    C     C_2   0.678994 0.507868 0.488312 -0.335321
C6    C     C_3   0.706931 0.224635 0.029130 -0.212487
C7    C     C_3   0.698188 0.306923 0.974070 0.127482
C8    C     C_1   0.625387 0.374971 0.751641 -0.180828
C9    C     C_1   0.874557 0.125946 0.248388 -0.190662
C10   C     C_3   0.717720 0.210227 0.972328 0.128179
C11   C     C_3   0.708233 0.292098 0.917706 0.124244
C12   C     C_3   0.290194 0.706890 0.082482 0.040952
C13   C     C_3   0.802471 0.193555 0.027163 -0.172446
C14   C     C_3   0.791319 0.209425 0.082558 0.156527
C15   C     C_3   0.792595 0.276557 0.971700 -0.206794
C16   C     C_R   0.382509 0.498457 0.503199 0.972055
C17   C     C_3   0.782705 0.291568 0.028969 -0.173039
C18   C     C_1   0.662755 0.337638 0.826694 -0.090480
C19   C     C_1   0.837039 0.163706 0.173372 -0.069098
C20   C     C_2   0.248980 0.506409 0.562726 -0.006575
C21   C     C_2   0.183348 0.516787 0.497769 -0.473565
C22   C     C_2   0.305500 0.525205 0.544658 0.485496
C23   C     C_3   0.179673 0.743792 0.972656 0.083899
C24   C     C_2   0.323947 0.490293 0.517066 -0.481905
C25   C     C_R   0.997477 0.884670 0.493930 0.914113
C26   C     C_R   0.081198 0.918317 0.662657 0.909512
C27   C     C_R   0.998487 0.120609 0.496923 0.956286
C28   C     C_R   0.581160 0.418938 0.662639 0.911249
C29   C     C_R   0.918786 0.081301 0.337321 0.889750
C30   C     C_R   0.998345 0.618243 0.500867 0.936261
C31   C     C_R   0.881103 0.497318 0.500470 0.928333
C32   C     C_R   0.996992 0.380936 0.499850 0.928659
C33   C     C_R   0.119143 0.503503 0.499939 0.973061
C34   C     C_3   0.207388 0.788618 0.917434 0.047428
C35   C     C_2   0.041563 0.690556 0.559187 0.122647
C36   C     C_2   0.986331 0.679754 0.505310 -0.412192
C37   C     C_2   0.020186 0.755287 0.557260 0.052832
C38   C     C_2   0.997878 0.822788 0.487222 -0.097377
C39   C     C_2   0.928326 0.308892 0.447568 0.130897
C40   C     C_3   0.277584 0.722231 0.971195 -0.252504
C41   C     C_2   0.990504 0.314150 0.501754 -0.385665
C42   C     C_2   0.931543 0.235639 0.460450 -0.172453
C43   C     C_2   0.993574 0.192235 0.484731 -0.380895
C44   C     C_3   0.318023 0.751328 0.026982 0.029816
C45   C     C_3   0.219326 0.773241 0.028071 0.011557
C46   C     C_1   0.373872 0.624775 0.248451 -0.191097
C47   C     C_1   0.125327 0.872916 0.751544 -0.185419
C48   C     C_3   0.250378 0.676868 0.027844 -0.193791
C49   C     C_3   0.398729 0.750155 0.061572 -0.422825
C50   C     C_3   0.411131 0.790560 0.990889 -0.332601
C51   C     C_3   0.489490 0.796064 0.024735 -0.891408
C52   C     C_3   0.638256 0.372363 0.941806 -0.424353
C53   C     C_3   0.644260 0.371204 0.014693 -0.342141
C54   C     C_3   0.585496 0.437454 0.982529 -0.876349
C55   C     C_3   0.680148 0.165083 0.938280 -0.425502
C56   C     C_3   0.247582 0.817396 0.972916 0.476400
C57   C     C_3   0.702178 0.084913 0.009897 -0.340823
C58   C     C_3   0.664655 0.039828 0.975851 -0.878005
C59   C     C_3   0.266544 0.473923 0.650570 -0.356516
C60   C     C_3   0.346515 0.462251 0.716392 -0.325724
C61   C     C_3   0.361780 0.421114 0.804105 -0.930684
C62   C     C_3   0.291015 0.641846 0.516100 0.108441
C63   C     C_3   0.332090 0.692301 0.536341 -0.831445
C64   C     C_3   0.123285 0.646115 0.609752 -0.387229
C65   C     C_3   0.177997 0.684700 0.640739 -0.356579
C66   C     C_3   0.258336 0.637181 0.691675 -0.907130
C67   C     C_1   0.336029 0.661676 0.173441 -0.063151
C68   C     C_3   0.026025 0.745930 0.633732 -0.407537
C69   C     C_3   0.043473 0.665906 0.703303 -0.335527
C70   C     C_3   0.045908 0.662615 0.775337 -0.907763
C71   C     C_3   0.989825 0.834301 0.408552 -0.456407
C72   C     C_3   0.970245 0.915206 0.338668 -0.328555
C73   C     C_3   0.954248 0.922161 0.259511 -0.901891
C74   C     C_3   0.856863 0.374508 0.378725 -0.353436
C75   C     C_3   0.788977 0.356549 0.329742 -0.384672
C76   C     C_3   0.721056 0.425876 0.260285 -0.886091
C77   C     C_3   0.291184 0.906303 0.995709 0.097550
C78   C     C_1   0.162472 0.834639 0.826524 -0.017214
C79   C     C_3   0.257180 0.981660 0.972441 -0.833732
C80   C     C_3   0.191185 0.798780 0.066331 -0.409495
C81   C     C_3   0.119466 0.864821 0.998944 -0.323294
C82   C     C_3   0.099803 0.897288 0.037257 -0.903015
C83   C     C_3   0.100780 0.739010 0.935117 -0.406724
C84   C     C_3   0.088787 0.686075 0.003078 -0.340154
C85   C     C_3   0.011349 0.678759 0.963934 -0.886322
C86   C     C_2   0.755131 0.491475 0.442670 -0.164513
H1    H     H_    0.710826 0.540400 0.507868 0.156349
H2    H     H_    0.037606 0.264670 0.556129 0.151008
H3    H     H_    0.882912 0.217642 0.448653 0.166357
H4    H     H_    0.040743 0.211772 0.490605 0.160865
H5    H     H_    0.252631 0.618275 0.052369 0.146884
H6    H     H_    0.751531 0.497935 0.388777 0.158283
H7    H     H_    0.823769 0.473750 0.562096 0.157104
H8    H     H_    0.655095 0.457292 0.421762 0.163823
H9    H     H_    0.498391 0.828177 0.053257 0.258347
H10   H     H_    0.531322 0.739982 0.072757 0.264465
H11   H     H_    0.497239 0.824678 0.972502 0.251641
H12   H     H_    0.672508 0.202818 0.053793 0.127593
H13   H     H_    0.403011 0.760066 0.960646 0.220506
H14   H     H_    0.370406 0.847160 0.942082 0.237758
H15   H     H_    0.413623 0.775560 0.097883 0.185417
H16   H     H_    0.435212 0.691634 0.105446 0.212882
H17   H     H_    0.592562 0.489868 0.944262 0.262419
H18   H     H_    0.528961 0.436665 0.943683 0.259124
H19   H     H_    0.591308 0.435185 0.036648 0.247897
H20   H     H_    0.636822 0.319559 0.053959 0.221390
H21   H     H_    0.700115 0.372581 0.054752 0.221676
H22   H     H_    0.644735 0.424401 0.901885 0.209044
H23   H     H_    0.810072 0.324323 0.053810 0.131956
H24   H     H_    0.582840 0.369757 0.902550 0.204032
H25   H     H_    0.603278 0.063863 0.938128 0.261546
H26   H     H_    0.681435 0.038919 0.935975 0.261785
H27   H     H_    0.681599 0.982103 0.029016 0.248338
H28   H     H_    0.763411 0.058864 0.048710 0.222067
H29   H     H_    0.685617 0.083741 0.050800 0.221854
H30   H     H_    0.618960 0.191189 0.899595 0.203516
H31   H     H_    0.696808 0.166292 0.897453 0.207508
H32   H     H_    0.322420 0.452349 0.805321 0.263465
H33   H     H_    0.356096 0.365225 0.823371 0.264095
H34   H     H_    0.826877 0.298459 0.946869 0.146120
H35   H     H_    0.419289 0.414750 0.849897 0.254234
H36   H     H_    0.386743 0.429317 0.717565 0.231841
H37   H     H_    0.355689 0.516428 0.700759 0.256370
H38   H     H_    0.227390 0.510660 0.646832 0.205454
H39   H     H_    0.258337 0.418798 0.673363 0.226919
H40   H     H_    0.249486 0.638457 0.532246 0.130114
H41   H     H_    0.261490 0.667016 0.447387 0.139898
H42   H     H_    0.372993 0.698369 0.519177 0.259244
H43   H     H_    0.291923 0.747690 0.500282 0.204860
H44   H     H_    0.361745 0.668688 0.604543 0.251391
H45   H     H_    0.846007 0.146001 0.050565 0.130115
H46   H     H_    0.270737 0.584191 0.748366 0.263035
H47   H     H_    0.268469 0.625579 0.653092 0.264398
H48   H     H_    0.296317 0.666921 0.712002 0.255880
H49   H     H_    0.167588 0.738392 0.585920 0.230443
H50   H     H_    0.170774 0.695538 0.681487 0.230645
H51   H     H_    0.135456 0.591263 0.664322 0.207323
H52   H     H_    0.133143 0.636857 0.569362 0.181735
H53   H     H_    0.058069 0.604463 0.824447 0.252121
H54   H     H_    0.090330 0.683704 0.803816 0.259442
H55   H     H_    0.991674 0.696228 0.752399 0.264403
H56   H     H_    0.174590 0.541770 0.436481 0.145800
H57   H     H_    0.000150 0.642722 0.677119 0.230511
H58   H     H_    0.098275 0.630987 0.729343 0.226344
H59   H     H_    0.069162 0.768904 0.660724 0.185022
H60   H     H_    0.971805 0.778484 0.612029 0.221739
H61   H     H_    0.003507 0.888267 0.273668 0.263653
H62   H     H_    0.905878 0.903667 0.234068 0.262842
H63   H     H_    0.941102 0.980883 0.210874 0.248150
H64   H     H_    0.920146 0.950144 0.322149 0.210768
H65   H     H_    0.017250 0.936420 0.360417 0.245104
H66   H     H_    0.042311 0.801281 0.427235 0.215872
H67   H     H_    0.299790 0.702202 0.945889 0.152619
H68   H     H_    0.944220 0.814542 0.379920 0.222475
H69   H     H_    0.706628 0.450278 0.287517 0.256619
H70   H     H_    0.732057 0.467488 0.214912 0.261130
H71   H     H_    0.672973 0.411263 0.226012 0.251343
H72   H     H_    0.801065 0.332720 0.300657 0.229224
H73   H     H_    0.775584 0.315866 0.373110 0.222013
H74   H     H_    0.843338 0.397524 0.407666 0.193939
H75   H     H_    0.866763 0.417667 0.333157 0.220342
H76   H     H_    0.341597 0.907095 0.994582 0.158536
H77   H     H_    0.308390 0.864256 0.061058 0.118674
H78   H     H_    0.297524 0.450148 0.509191 0.136296
H79   H     H_    0.207645 0.982437 0.975237 0.253728
H80   H     H_    0.298422 0.993566 0.017227 0.204429
H81   H     H_    0.240482 0.025322 0.907920 0.263317
H82   H     H_    0.092429 0.854699 0.085764 0.263392
H83   H     H_    0.144337 0.918013 0.066295 0.261225
H84   H     H_    0.047101 0.944188 0.987374 0.252819
H85   H     H_    0.125594 0.908635 0.950044 0.257451
H86   H     H_    0.072870 0.846964 0.968240 0.218571
H87   H     H_    0.181597 0.752024 0.109097 0.193328
H88   H     H_    0.235165 0.813726 0.105215 0.200995
H89   H     H_    0.929255 0.715482 0.466121 0.136327
H90   H     H_    0.968282 0.733464 0.923261 0.261468
H91   H     H_    0.003945 0.656410 0.925831 0.263381
H92   H     H_    0.003980 0.640314 0.014390 0.249634
H93   H     H_    0.130691 0.630486 0.044487 0.221772
H94   H     H_    0.094996 0.706836 0.042135 0.222764
H95   H     H_    0.060172 0.795096 0.894579 0.195711
H96   H     H_    0.091497 0.718955 0.894607 0.206490
O1    O     O_R   0.590490 0.448940 0.499990 -0.616871
O2    O     O_R   0.034710 0.555670 0.569560 -0.629554
O3    O     O_R   0.874770 0.534770 0.430450 -0.622203
O4    O     O_R   0.590420 0.551070 0.499980 -0.627382
O5    O     O_R   0.944330 0.465210 0.569580 -0.624034
O6    O     O_R   0.965290 0.444330 0.430440 -0.629089
O7    O     O_R   0.034850 0.374760 0.569570 -0.616700
O8    O     O_R   0.055670 0.534790 0.430420 -0.620725
O9    O     O_R   0.125230 0.465230 0.569550 -0.633170
O10   O     O_R   0.438430 0.510550 0.376780 -0.620632
O11   O     O_R   0.438360 0.612680 0.376770 -0.625704
O12   O     O_R   0.948920 0.909510 0.500030 -0.637592
O13   O     O_R   0.409580 0.448930 0.500020 -0.634787
O14   O     O_R   0.409510 0.551060 0.500010 -0.564205
O15   O     O_R   0.561640 0.387320 0.623230 -0.621011
O16   O     O_R   0.561570 0.489450 0.623220 -0.612577
O17   O     O_R   0.051050 0.909420 0.500010 -0.635095
O18   O     O_3   0.342774 0.571689 0.562470 -0.594354
O19   O     O_3   0.239712 0.893512 0.935707 -0.621044
O20   O     O_R   0.112670 0.938280 0.623210 -0.614590
O21   O     O_R   0.010540 0.938370 0.623230 -0.618182
O22   O     O_R   0.051080 0.090340 0.499970 -0.620291
O23   O     O_R   0.948950 0.090430 0.499990 -0.619813
O24   O     O_R   0.989460 0.061480 0.376770 -0.625540
O25   O     O_R   0.887330 0.061570 0.376790 -0.621949
O26   O     O_R   0.965150 0.625240 0.430430 -0.621386
Zn1   Zn    Zn3+2 0.500050 0.431810 0.500010 0.949669
Zn2   Zn    Zn3+2 0.499950 0.568190 0.499990 0.969703
Zn3   Zn    Zn3+2 0.068190 0.999870 0.499990 0.941859
Zn4   Zn    Zn3+2 0.931810 0.999990 0.500010 0.939536
Zn5   Zn    Zn3+2 0.953560 0.546450 0.407100 0.935591
Zn6   Zn    Zn3+2 0.046440 0.453550 0.592900 0.929955

loop_
_geom_bond_atom_site_label_1
_geom_bond_atom_site_label_2
_ccdc_geom_bond_type
C44   C49   S    
C51   H11   S    
C82   H84   S    
C11   C18   S    
C70   H54   S    
O26   Zn5   S    
C23   C45   S    
C61   H33   S    
C4    O10   A    
C35   C36   D    
O20   Zn3   S    
C12   C48   S    
C60   C61   S    
C81   C82   S    
C1    O1    A    
C57   H29   S    
C4    C46   S    
C53   C54   S    
C69   H58   S    
C34   C56   S    
C50   H13   S    
C62   C63   S    
C23   C83   S    
C73   H61   S    
C1    C5    S    
C6    H12   S    
C54   H18   S    
C35   C37   S    
C80   H87   S    
O13   Zn1   S    
O9    Zn6   S    
C49   H15   S    
C62   H41   S    
C39   C74   S    
C21   C33   S    
C55   H30   S    
C37   C68   S    
C77   H76   S    
C85   H90   S    
C15   H34   S    
C83   H95   S    
C61   H35   S    
C63   H44   S    
C84   H94   S    
C44   C56   S    
C66   H48   S    
C11   C15   S    
O24   Zn3   S    
C9    C19   T    
C6    C7    S    
C83   C84   S    
C45   C56   S    
C85   H92   S    
C7    C17   S    
C48   H5    S    
C58   H27   S    
C32   C41   S    
C35   C64   S    
C45   C80   S    
C40   C44   S    
C63   H42   S    
C9    C29   S    
C51   H10   S    
C72   C73   S    
O14   Zn2   S    
C23   C34   S    
C63   H43   S    
O5    Zn6   S    
C59   C60   S    
C16   C24   S    
C13   C14   S    
C3    C86   S    
C14   C17   S    
C24   H78   S    
C53   H20   S    
C39   C42   S    
C66   H46   S    
C64   H51   S    
C77   C79   S    
C4    O11   A    
C12   C67   S    
C76   H71   S    
C43   H4    S    
C74   C75   S    
C32   O6    A    
C73   H62   S    
C27   O22   A    
C54   H17   S    
C84   C85   S    
C39   C41   D    
O7    Zn6   S    
C49   H16   S    
C62   H40   S    
C68   C69   S    
C82   H82   S    
C56   O19   S    
O23   Zn4   S    
C1    O4    A    
C71   H68   S    
C76   H70   S    
C8    C18   T    
C29   O24   A    
C58   H26   S    
C83   H96   S    
C17   H23   S    
C2    C31   S    
C27   O23   A    
C84   H93   S    
C7    C11   S    
C75   C76   S    
C6    C10   S    
C37   C38   D    
C25   O17   A    
C25   C38   S    
C6    C14   S    
C66   H47   S    
C53   H21   S    
O2    Zn6   S    
C71   H66   S    
C13   C15   S    
C52   H24   S    
O6    Zn5   S    
C72   H65   S    
C30   O26   A    
C31   O3    A    
C50   C51   S    
C13   H45   S    
C79   H79   S    
C20   C59   S    
C60   H36   S    
C10   C55   S    
C52   H22   S    
C65   H49   S    
C26   C47   S    
C81   H86   S    
C34   C40   S    
C75   H72   S    
C20   C22   S    
C65   C66   S    
C72   H64   S    
C55   C57   S    
O25   Zn4   S    
C8    C28   S    
C40   H67   S    
C22   C24   D    
O21   Zn4   S    
O1    Zn1   S    
C42   C43   D    
C64   H52   S    
C68   H60   S    
C52   C53   S    
C55   H31   S    
C75   H73   S    
C59   H38   S    
C15   C17   S    
C41   H2    S    
C40   C48   S    
C70   H55   S    
C23   C48   S    
C54   H19   S    
C73   H63   S    
C61   H32   S    
C30   O2    A    
C14   C19   S    
C2    H7    S    
C80   C81   S    
C3    C5    D    
C10   C13   S    
C77   O19   S    
C21   H56   S    
C74   H75   S    
C58   H25   S    
C57   H28   S    
C12   C45   S    
C30   C36   S    
C69   H57   S    
C76   H69   S    
C50   H14   S    
C28   O15   A    
C29   O25   A    
C74   H74   S    
C7    C52   S    
C33   O9    A    
C42   H3    S    
C80   H88   S    
C64   C65   S    
O4    Zn2   S    
C26   O21   A    
C62   O18   S    
C46   C67   T    
C12   C44   S    
C16   O13   A    
C86   H6    S    
C59   H39   S    
C34   C78   S    
O11   Zn2   S    
C77   H77   S    
O22   Zn3   S    
C16   O14   A    
O3    Zn5   S    
C32   O7    A    
C2    C86   D    
C3    H8    S    
O17   Zn3   S    
C81   H85   S    
C79   H80   S    
C69   C70   S    
O16   Zn2   S    
O8    Zn5   S    
C28   O16   A    
O10   Zn1   S    
C82   H83   S    
C65   H50   S    
O15   Zn1   S    
C10   C11   S    
C25   O12   A    
O12   Zn4   S    
C5    H1    S    
C27   C43   S    
C70   H53   S    
C60   H37   S    
C71   C72   S    
C20   C21   D    
C26   O20   A    
C36   H89   S    
C85   H91   S    
C49   C50   S    
C31   O5    A    
C22   O18   S    
C33   O8    A    
C47   C78   T    
C79   H81   S    
C57   C58   S    
C68   H59   S    
C38   C71   S    
C51   H9    S    
