data_mof_unit_28409.cif
_audit_creation_date              2012-12-11T14:21:13-0500
_audit_creation_method            fapswitch 2.2
_symmetry_space_group_name_H-M    P1
_symmetry_Int_Tables_number       1
_space_group_crystal_system       triclinic
_cell_length_a                    11.549642
_cell_length_b                    11.72588
_cell_length_c                    19.502292
_cell_angle_alpha                 90.41445
_cell_angle_beta                  89.11549
_cell_angle_gamma                 59.583718
_cell_volume                      2277.06419027

loop_
_atom_site_label
_atom_site_type_symbol
_atom_type_description
_atom_site_fract_x
_atom_site_fract_y
_atom_site_fract_z
_atom_type_partial_charge
C1    C     C_R   0.640066 0.117072 0.599224 0.559419
C2    C     C_1   0.640355 0.704266 0.667841 0.003435
C3    C     C_1   0.127678 0.199012 0.859518 0.004074
C4    C     C_1   0.170837 0.170938 0.727672 -0.031428
C5    C     C_1   0.150690 0.182585 0.798988 -0.031889
C6    C     C_1   0.194203 0.161663 0.667151 0.005428
C7    C     C_1   0.679304 0.190963 0.860934 0.003544
C8    C     C_1   0.657886 0.167338 0.729075 -0.031238
C9    C     C_1   0.665917 0.180670 0.800493 -0.030869
C10   C     C_1   0.651921 0.149917 0.668607 0.002011
C11   C     C_R   0.699774 0.556168 0.206002 -0.000909
C12   C     C_R   0.612092 0.746475 0.598556 0.551563
C13   C     C_R   0.571126 0.611463 0.237911 0.038835
C14   C     C_R   0.544889 0.698904 0.291763 0.030980
C15   C     C_R   0.783794 0.596030 0.311008 -0.163487
C16   C     C_R   0.807944 0.541027 0.244773 -0.156242
C17   C     C_R   0.462932 0.597174 0.214631 -0.114852
C18   C     C_R   0.336261 0.670467 0.245660 -0.134317
C19   C     C_R   0.312582 0.764219 0.294639 -0.115285
C20   C     C_R   0.410534 0.794929 0.306135 -0.086519
C21   C     C_R   0.651271 0.681531 0.333047 0.006930
C22   C     C_R   0.144988 0.190375 0.193418 0.001530
C23   C     C_R   0.240743 0.145519 0.597874 0.545389
C24   C     C_R   0.178744 0.272889 0.229296 -0.002006
C25   C     C_R   0.159162 0.286307 0.300438 0.008165
C26   C     C_R   0.141829 0.090598 0.302654 -0.156276
C27   C     C_R   0.132006 0.092572 0.230710 -0.023192
C28   C     C_R   0.225402 0.347546 0.195895 -0.122816
C29   C     C_R   0.227742 0.449665 0.230286 -0.102814
C30   C     C_R   0.182665 0.480658 0.298846 0.122783
C31   C     C_R   0.142482 0.401776 0.332437 -0.082236
C32   C     C_R   0.165335 0.180551 0.337497 -0.017091
C33   C     C_R   0.651199 0.165785 0.182803 -0.008844
C34   C     C_R   0.620148 0.078581 0.394310 0.549856
C35   C     C_R   0.717591 0.031393 0.201904 0.035607
C36   C     C_R   0.718217 0.998884 0.272099 0.017734
C37   C     C_R   0.544551 0.227190 0.294744 -0.134101
C38   C     C_R   0.557161 0.259667 0.228067 -0.159790
C39   C     C_R   0.786035 0.929006 0.152356 -0.089099
C40   C     C_R   0.870739 0.799998 0.172122 -0.112903
C41   C     C_R   0.884237 0.770385 0.241062 -0.130382
C42   C     C_R   0.805690 0.866397 0.290613 -0.118617
C43   C     C_R   0.631400 0.100456 0.319943 -0.006739
C44   C     C_R   0.081922 0.231397 0.928887 0.545629
C45   C     C_R   0.616798 0.740953 0.401420 0.529284
C46   C     C_R   0.684218 0.604082 0.929559 0.556707
C47   C     C_R   0.708699 0.206928 0.930185 0.547547
C48   C     C_R   0.083598 0.234503 0.125222 0.514510
C49   C     C_R   0.712067 0.540358 0.131444 0.573345
C50   C     C_R   0.702492 0.207421 0.123739 0.525029
C51   C     C_R   0.237594 0.144579 0.403411 0.522987
C52   C     C_1   0.671603 0.645912 0.860164 0.001652
C53   C     C_1   0.654465 0.683735 0.728281 -0.031165
C54   C     C_1   0.664220 0.666297 0.799641 -0.031929
Cr1   Cr    Cr6+3 0.404720 0.198220 0.499960 1.008079
Cr2   Cr    Cr6+3 0.698290 0.897110 0.500380 1.009739
Cr3   Cr    Cr6+3 0.396970 0.904720 0.499610 1.013051
Cr4   Cr    Cr6+3 0.926180 0.151990 0.028120 0.983373
Cr5   Cr    Cr6+3 0.921330 0.451820 0.027470 1.009570
Cr6   Cr    Cr6+3 0.626260 0.446870 0.028710 0.996228
H1    H     H_    0.866420 0.579964 0.342796 0.108988
H2    H     H_    0.262619 0.502046 0.200370 0.092407
H3    H     H_    0.102424 0.428774 0.384398 0.131453
H4    H     H_    0.470160 0.304652 0.327626 0.155708
H5    H     H_    0.775189 0.948374 0.097950 0.134227
H6    H     H_    0.496217 0.359379 0.212910 0.117797
H7    H     H_    0.926782 0.722947 0.133969 0.126177
H8    H     H_    0.951997 0.670464 0.255662 0.129415
H9    H     H_    0.815885 0.833506 0.342508 0.156044
H10   H     H_    0.472109 0.533648 0.172443 0.149219
H11   H     H_    0.908824 0.491154 0.223153 0.143605
H12   H     H_    0.249484 0.672158 0.226760 0.141274
H13   H     H_    0.216077 0.816482 0.320295 0.122004
H14   H     H_    0.384633 0.884603 0.333355 0.164241
H15   H     H_    0.129855 0.020768 0.332676 0.115006
H16   H     H_    0.260306 0.327336 0.142901 0.136178
O1    O     O_R   0.267740 0.231960 0.575440 -0.508004
O2    O     O_R   0.685970 0.784660 0.430010 -0.534631
O3    O     O_R   0.502530 0.767000 0.423990 -0.522107
O4    O     O_R   0.288330 0.026350 0.429250 -0.519728
O5    O     O_3   0.499990 0.000020 0.499980 -0.270994
O6    O     O_R   0.821500 0.119340 0.952830 -0.510759
O7    O     O_R   0.037130 0.162530 0.957360 -0.493336
O8    O     O_R   0.056440 0.344740 0.951340 -0.505167
O9    O     O_R   0.797900 0.560360 0.957470 -0.488964
O10   O     O_R   0.596130 0.579390 0.952730 -0.505219
O11   O     O_R   0.639060 0.321160 0.958670 -0.494305
O12   O     O_R   0.527280 0.186640 0.570530 -0.488061
O13   O     O_R   0.821240 0.124200 0.104370 -0.546083
O14   O     O_R   0.036890 0.167040 0.097840 -0.514954
O15   O     O_R   0.056180 0.349610 0.102880 -0.534552
O16   O     O_R   0.797660 0.564870 0.097950 -0.497453
O17   O     O_R   0.595880 0.584250 0.104270 -0.536131
O18   O     O_R   0.638830 0.325670 0.099150 -0.532225
O19   O     O_3   0.824590 0.350230 0.028100 -0.271013
O20   O     O_R   0.728090 0.003450 0.576380 -0.500547
O21   O     O_R   0.682970 0.789190 0.570490 -0.494098
O22   O     O_R   0.499290 0.771880 0.575530 -0.501059
O23   O     O_R   0.285330 0.030870 0.569730 -0.490249
O24   O     O_R   0.270980 0.227080 0.423890 -0.532886
O25   O     O_R   0.530280 0.182120 0.430050 -0.501823
O26   O     O_R   0.731330 0.998570 0.424830 -0.524144
N1    N     N_2   0.173323 0.591963 0.333722 -0.543660
H17   H     H_    0.077482 0.655601 0.352465 0.236970
C55   C     C_3   0.270502 0.559831 0.387116 -0.286690
H18   H     H_    0.249175 0.651726 0.414865 0.141311
H19   H     H_    0.373198 0.514727 0.364438 0.170527
H20   H     H_    0.265549 0.491775 0.424853 0.150521
C56   C     C_3   0.107320 0.990492 0.195957 -0.219039
C57   C     C_3   0.215311 0.907926 0.139934 -0.262110
C58   C     C_3   0.173187 0.827413 0.095852 -0.429156
H21   H     H_    0.143939 0.768131 0.127997 0.128649
H22   H     H_    0.086298 0.894658 0.064269 0.177497
H23   H     H_    0.257837 0.759518 0.061091 0.145352
H24   H     H_    0.313133 0.843213 0.163176 0.180937
H25   H     H_    0.237638 0.968818 0.105226 0.176812
H26   H     H_    0.099513 0.924223 0.232984 0.118065
H27   H     H_    0.005639 0.040123 0.175646 0.211788

loop_
_geom_bond_atom_site_label_1
_geom_bond_atom_site_label_2
_ccdc_geom_bond_type
C25   C31   A    
C22   C48   S    
C26   C32   A    
C41   C42   A    
Cr3   O3    S    
C23   O23   A    
C35   C36   A    
C44   O7    A    
C2    C12   S    
C56   H26   S    
Cr2   O5    S    
C58   H22   S    
C53   C54   S    
C55   H19   S    
C26   C27   A    
C29   C30   A    
C14   C21   A    
C28   C29   A    
Cr4   O6    S    
C30   C31   A    
Cr1   O1    S    
Cr3   O22   S    
C15   C16   A    
Cr3   O23   S    
C46   C52   S    
Cr2   O2    S    
C7    C9    T    
C18   C19   A    
C47   O6    A    
Cr1   O12   S    
C57   C58   S    
C51   O4    A    
C36   C42   A    
C38   H6    S    
C8    C9    S    
C48   O15   A    
Cr1   O24   S    
C45   O2    A    
Cr1   O5    S    
C12   O22   A    
C46   O9    A    
Cr6   O17   S    
C25   C32   A    
C17   H10   S    
C48   O14   A    
C13   C14   A    
C39   H5    S    
Cr3   O4    S    
C16   H11   S    
Cr5   O19   S    
Cr2   O21   S    
Cr6   O11   S    
C52   C54   T    
C56   H27   S    
C17   C18   A    
C41   H8    S    
C21   C45   S    
C18   H12   S    
C55   H20   S    
C3    C44   S    
C34   O25   A    
C34   C43   S    
C14   C20   A    
C19   H13   S    
Cr5   O8    S    
C4    C6    T    
C39   C40   A    
Cr6   O10   S    
C50   O18   A    
Cr5   O15   S    
C44   O8    A    
C33   C50   S    
C40   H7    S    
C42   H9    S    
C23   O1    A    
C47   O11   A    
C30   N1    S    
C35   C39   A    
Cr4   O19   S    
Cr5   O9    S    
C32   C51   S    
C37   C38   A    
C11   C49   S    
C31   H3    S    
C11   C16   A    
C50   O13   A    
C26   H15   S    
C15   H1    S    
C20   H14   S    
N1    C55   S    
C34   O26   A    
C24   C25   A    
Cr4   O14   S    
C45   O3    A    
C12   O21   A    
C40   C41   A    
C22   C27   A    
C22   C24   A    
C37   C43   A    
C49   O16   A    
C28   H16   S    
C57   H25   S    
C37   H4    S    
C51   O24   A    
Cr2   O20   S    
C29   H2    S    
C58   H21   S    
C1    C10   S    
C24   C28   A    
C4    C5    S    
C3    C5    T    
C2    C53   T    
C55   H18   S    
Cr1   O25   S    
C33   C38   A    
C13   C17   A    
C19   C20   A    
Cr2   O26   S    
Cr4   O7    S    
C11   C13   A    
C1    O12   A    
C1    O20   A    
C6    C23   S    
C33   C35   A    
C58   H23   S    
Cr3   O5    S    
Cr5   O16   S    
Cr4   O13   S    
Cr6   O19   S    
C15   C21   A    
C27   C56   S    
C8    C10   T    
N1    H17   S    
C36   C43   A    
C49   O17   A    
C56   C57   S    
C57   H24   S    
C7    C47   S    
C46   O10   A    
Cr6   O18   S    
