data_mof_unit_9356.cif
_audit_creation_date              2012-12-10T17:36:18-0500
_audit_creation_method            fapswitch 2.2
_symmetry_space_group_name_H-M    P1
_symmetry_Int_Tables_number       1
_space_group_crystal_system       triclinic
_cell_length_a                    12.34008
_cell_length_b                    13.218195
_cell_length_c                    15.874476
_cell_angle_alpha                 77.745968
_cell_angle_beta                  101.21489
_cell_angle_gamma                 116.412448
_cell_volume                      2251.35369519

loop_
_atom_site_label
_atom_site_type_symbol
_atom_type_description
_atom_site_fract_x
_atom_site_fract_y
_atom_site_fract_z
_atom_type_partial_charge
C1    C     C_R   0.854717 0.286630 0.508407 0.774495
C2    C     C_3   0.042310 0.409294 0.071632 -0.438626
C3    C     C_3   0.998346 0.498187 0.083045 0.232223
C4    C     C_3   0.083318 0.617703 0.040198 -0.388965
C5    C     C_3   0.080621 0.617983 0.942089 -0.578045
C6    C     C_1   0.999606 0.499034 0.175266 -0.062316
C7    C     C_1   0.998092 0.498439 0.824798 0.021209
C8    C     C_1   0.998713 0.499197 0.749196 -0.150295
C9    C     C_R   0.269650 0.029956 0.416823 -0.194350
C10   C     C_R   0.227430 0.834692 0.478474 -0.055710
C11   C     C_R   0.814636 0.090051 0.577073 -0.204719
C12   C     C_R   0.999623 0.499749 0.659568 0.821216
C13   C     C_R   0.733821 0.984264 0.612927 -0.173276
C14   C     C_R   0.608461 0.949384 0.592294 -0.009592
C15   C     C_R   0.562149 0.015516 0.524565 0.024157
C16   C     C_R   0.645949 0.124696 0.488852 0.073343
C17   C     C_R   0.436180 0.980424 0.492690 0.067320
C18   C     C_R   0.394639 0.060204 0.440107 0.168142
C19   C     C_R   0.478378 0.165560 0.405400 -0.232366
C20   C     C_R   0.601752 0.192999 0.423830 -0.189996
C21   C     C_R   0.351720 0.866401 0.504423 -0.239659
C22   C     C_R   0.185874 0.917989 0.438299 -0.176396
C23   C     C_R   0.144961 0.713236 0.488489 0.810491
C24   C     C_R   0.771670 0.164314 0.520377 -0.099400
C25   C     C_R   0.345526 0.327089 0.636933 -0.289172
C26   C     C_R   0.757051 0.645880 0.383318 0.171502
C27   C     C_R   0.659793 0.676451 0.359292 -0.287220
C28   C     C_R   0.557887 0.621233 0.403479 -0.203335
C29   C     C_R   0.551036 0.533695 0.473133 0.000851
C30   C     C_R   0.653034 0.504752 0.496541 0.261867
C31   C     C_R   0.446773 0.474280 0.520319 -0.031015
C32   C     C_R   0.446052 0.386832 0.589712 0.163324
C33   C     C_R   0.545779 0.359857 0.611909 -0.255719
C34   C     C_R   0.000267 0.500125 0.340428 0.828144
C35   C     C_R   0.647076 0.417883 0.566814 -0.162560
C36   C     C_R   0.342287 0.497693 0.501864 0.028992
C37   C     C_R   0.246056 0.354326 0.615603 0.080746
C38   C     C_3   0.049818 0.413767 0.974162 0.252832
C39   C     C_3   0.866500 0.465611 0.937776 0.280332
C40   C     C_3   0.867522 0.466194 0.036028 -0.446125
C41   C     C_1   0.000254 0.499603 0.250835 -0.170203
C42   C     C_3   0.997535 0.497165 0.917243 0.234431
Cu1   Cu    Cu3+1 0.098280 0.475420 0.519630 0.947908
Cu2   Cu    Cu3+1 0.901720 0.524580 0.480370 0.941328
H1    H     H_    0.978855 0.322395 0.098846 0.187534
H2    H     H_    0.147651 0.447362 0.964138 0.097024
H3    H     H_    0.133710 0.426728 0.108672 0.143099
H4    H     H_    0.054232 0.683115 0.048697 0.187043
H5    H     H_    0.089940 0.895432 0.418295 0.167084
H6    H     H_    0.448351 0.224061 0.359588 0.144420
H7    H     H_    0.237213 0.091768 0.379244 0.137083
H8    H     H_    0.382757 0.800042 0.527583 0.170894
H9    H     H_    0.910515 0.117819 0.600579 0.159800
H10   H     H_    0.769484 0.933115 0.662617 0.148146
H11   H     H_    0.661545 0.269035 0.386328 0.171930
H12   H     H_    0.168175 0.308474 0.651821 0.125643
H13   H     H_    0.545943 0.293289 0.665264 0.168094
H14   H     H_    0.344005 0.259899 0.690104 0.143683
H15   H     H_    0.334625 0.562554 0.450343 0.121260
H16   H     H_    0.486033 0.649110 0.381353 0.139915
H17   H     H_    0.662633 0.743518 0.305640 0.148405
H18   H     H_    0.718936 0.391709 0.589865 0.210393
H19   H     H_    0.837635 0.532710 0.900487 0.128055
H20   H     H_    0.804411 0.381765 0.067162 0.175258
H21   H     H_    0.834281 0.529323 0.043131 0.157162
H22   H     H_    0.174910 0.646012 0.926686 0.195606
H23   H     H_    0.046795 0.681138 0.903537 0.188065
H24   H     H_    0.178254 0.641630 0.072331 0.182409
N1    N     N_R   0.246300 0.438200 0.549400 -0.181358
N2    N     N_R   0.754300 0.561180 0.451130 -0.228167
O1    O     O_R   0.972520 0.318130 0.524690 -0.583316
O2    O     O_R   0.806530 0.359650 0.491530 -0.608630
O3    O     O_R   0.083030 0.479240 0.637150 -0.567950
O4    O     O_R   0.917040 0.520750 0.603990 -0.594979
O5    O     O_R   0.193470 0.640350 0.508470 -0.587931
O6    O     O_R   0.027480 0.681870 0.475310 -0.582121
O7    O     O_R   0.082960 0.479250 0.396010 -0.583440
O8    O     O_R   0.916970 0.520760 0.362850 -0.576141
C43   C     C_1   0.533750 0.855091 0.651025 0.205264
N3    N     N_1   0.474501 0.779767 0.698420 -0.280472
O9    O     O_3   0.987822 0.304130 0.949585 -0.727092
H25   H     H_    0.037348 0.261380 0.977667 0.320070
C44   C     C_1   0.859133 0.706048 0.333646 0.286978
N4    N     N_1   0.940318 0.754985 0.292808 -0.321883
O10   O     O_3   0.780589 0.361587 0.910104 -0.703826
H26   H     H_    0.788148 0.297994 0.953063 0.371192

loop_
_geom_bond_atom_site_label_1
_geom_bond_atom_site_label_2
_ccdc_geom_bond_type
Cu1   O3    S    
C5    C42   S    
C26   C44   S    
C37   N1    A    
C16   C24   A    
C19   C20   A    
C9    H7    S    
C23   O6    A    
C5    H23   S    
C3    C6    S    
O9    H25   S    
C7    C8    T    
O10   H26   S    
C10   C22   A    
C26   C27   A    
C1    O1    A    
C30   C35   A    
C28   C29   A    
C38   C42   S    
C12   O4    A    
C34   O7    A    
C9    C22   A    
C15   C16   A    
C11   C24   A    
C18   C19   A    
C7    C42   S    
Cu2   O6    S    
C27   H17   S    
C25   C37   A    
C37   H12   S    
C44   N4    T    
C6    C41   T    
Cu1   O1    S    
Cu2   N2    S    
C11   H9    S    
C16   C20   A    
C36   H15   S    
C25   C32   A    
C2    H1    S    
C13   C14   A    
C34   C41   S    
C20   H11   S    
C30   N2    A    
C39   C42   S    
C28   H16   S    
C10   C21   A    
Cu1   O5    S    
C1    O2    A    
C39   C40   S    
C4    H24   S    
C4    C5    S    
C17   C21   A    
Cu1   Cu2   S    
C29   C30   A    
C2    C38   S    
C31   C32   A    
C8    C12   S    
C17   C18   A    
C14   C43   S    
Cu2   O4    S    
C22   H5    S    
C3    C40   S    
C40   H21   S    
C38   O9    S    
C2    H3    S    
C25   H14   S    
C39   O10   S    
C3    C4    S    
C36   N1    A    
C13   H10   S    
C4    H4    S    
C15   C17   A    
C33   H13   S    
C31   C36   A    
C23   O5    A    
C5    H22   S    
C10   C23   S    
Cu1   O7    S    
C39   H19   S    
C40   H20   S    
C32   C33   A    
Cu2   O8    S    
C2    C3    S    
C29   C31   A    
C34   O8    A    
C11   C13   A    
C19   H6    S    
C26   N2    A    
C33   C35   A    
Cu2   O2    S    
C35   H18   S    
C38   H2    S    
C43   N3    T    
C9    C18   A    
C1    C24   S    
Cu1   N1    S    
C27   C28   A    
C14   C15   A    
C12   O3    A    
C21   H8    S    
