data_mof_unit_29184.cif
_audit_creation_date              2012-12-10T17:30:26-0500
_audit_creation_method            fapswitch 2.2
_symmetry_space_group_name_H-M    P1
_symmetry_Int_Tables_number       1
_space_group_crystal_system       triclinic
_cell_length_a                    12.190896
_cell_length_b                    12.887354
_cell_length_c                    14.945151
_cell_angle_alpha                 92.918199
_cell_angle_beta                  87.240541
_cell_angle_gamma                 93.268492
_cell_volume                      2338.73822525

loop_
_atom_site_label
_atom_site_type_symbol
_atom_type_description
_atom_site_fract_x
_atom_site_fract_y
_atom_site_fract_z
_atom_type_partial_charge
C1    C     C_R   0.521537 0.699952 0.498214 0.860322
C2    C     C_R   0.361759 0.137773 0.511762 -0.198411
C3    C     C_R   0.438821 0.867516 0.501834 -0.291313
C4    C     C_R   0.561179 0.132484 0.498167 -0.291313
C5    C     C_R   0.447402 0.974284 0.503088 0.190009
C6    C     C_R   0.552597 0.025715 0.496913 0.190009
C7    C     C_R   0.945723 0.374629 0.447033 0.141512
C8    C     C_R   0.054277 0.625371 0.552967 0.141512
C9    C     C_R   0.836734 0.399440 0.434356 0.285257
C10   C     C_R   0.163266 0.600560 0.565644 0.285257
C11   C     C_R   0.860963 0.552913 0.527746 0.247600
C12   C     C_R   0.478463 0.300048 0.501786 0.860322
C13   C     C_R   0.139037 0.447087 0.472254 0.247601
C14   C     C_R   0.978435 0.546287 0.519287 -0.065203
C15   C     C_R   0.021565 0.453713 0.480713 -0.065203
C16   C     C_R   0.500498 0.497414 0.672258 0.887803
C17   C     C_R   0.499502 0.502585 0.327741 0.887804
C18   C     C_R   0.545011 0.425042 0.183249 -0.320006
C19   C     C_R   0.454988 0.574958 0.816750 -0.320006
C20   C     C_R   0.498677 0.506798 0.232534 -0.063986
C21   C     C_R   0.501323 0.493202 0.767466 -0.063986
C22   C     C_R   0.454188 0.589726 0.191571 0.148896
C23   C     C_R   0.403013 0.660900 0.959693 0.201989
C24   C     C_R   0.545812 0.410273 0.808429 0.148895
C25   C     C_R   0.451912 0.585314 0.097413 0.070354
C26   C     C_R   0.548087 0.414685 0.902587 0.070355
C27   C     C_R   0.499836 0.501610 0.046947 -0.023159
C28   C     C_R   0.500163 0.498389 0.953053 -0.023159
C29   C     C_R   0.547768 0.421365 0.090386 0.118692
C30   C     C_R   0.452230 0.578634 0.909614 0.118692
C31   C     C_R   0.403304 0.663006 0.052749 -0.217412
C32   C     C_R   0.596694 0.336992 0.947251 -0.217412
C33   C     C_3   0.969712 0.260291 0.441420 -0.930035
C34   C     C_R   0.596986 0.339099 0.040307 0.201990
C35   C     C_3   0.030288 0.739709 0.558580 -0.930036
C36   C     C_3   0.414210 0.683884 0.246721 -0.900124
C37   C     C_3   0.585791 0.316115 0.753279 -0.900125
C38   C     C_3   0.349343 0.747029 0.915831 -0.934527
C39   C     C_3   0.650654 0.252968 0.084169 -0.934526
C40   C     C_3   0.187659 0.365949 0.408388 -0.805555
C41   C     C_3   0.812341 0.634051 0.591612 -0.805555
C42   C     C_3   0.224744 0.658075 0.640068 -0.844697
C43   C     C_3   0.775256 0.341924 0.359932 -0.844696
C44   C     C_R   0.466172 0.188628 0.504119 -0.049483
C45   C     C_R   0.533828 0.811372 0.495882 -0.049483
C46   C     C_R   0.647661 0.969705 0.489017 -0.223919
C47   C     C_R   0.352338 0.030295 0.510984 -0.223919
C48   C     C_R   0.638241 0.862227 0.488239 -0.198412
H1    H     H_    0.578198 0.363769 0.219034 0.166176
H2    H     H_    0.432696 0.684441 0.318428 0.250570
H3    H     H_    0.456007 0.756082 0.221289 0.232031
H4    H     H_    0.676150 0.312719 0.757723 0.242699
H5    H     H_    0.543993 0.243918 0.778710 0.232031
H6    H     H_    0.567304 0.315559 0.681572 0.250570
H7    H     H_    0.364311 0.726196 0.089805 0.164303
H8    H     H_    0.635687 0.273803 0.910195 0.164303
H9    H     H_    0.313830 0.803938 0.965876 0.241264
H10   H     H_    0.411164 0.790272 0.872859 0.243116
H11   H     H_    0.281461 0.713619 0.874487 0.244245
H12   H     H_    0.421801 0.636230 0.780966 0.166176
H13   H     H_    0.686166 0.196059 0.034124 0.241264
H14   H     H_    0.718536 0.286378 0.125513 0.244244
H15   H     H_    0.588833 0.209726 0.127141 0.243116
H16   H     H_    0.642397 0.171267 0.494183 0.161003
H17   H     H_    0.357603 0.828733 0.505818 0.161003
H18   H     H_    0.287853 0.180591 0.518442 0.159644
H19   H     H_    0.712147 0.819408 0.481559 0.159644
H20   H     H_    0.728649 0.008836 0.483496 0.138565
H21   H     H_    0.271351 0.991164 0.516505 0.138565
H22   H     H_    0.273053 0.383548 0.388761 0.282516
H23   H     H_    0.020880 0.242021 0.497378 0.244886
H24   H     H_    0.144351 0.361113 0.344548 0.214746
H25   H     H_    0.185382 0.289632 0.438999 0.217232
H26   H     H_    0.726947 0.616452 0.611239 0.282516
H27   H     H_    0.814618 0.710368 0.561001 0.217232
H28   H     H_    0.855649 0.638887 0.655452 0.214746
H29   H     H_    0.170638 0.709249 0.682093 0.213494
H30   H     H_    0.251886 0.601862 0.686691 0.249712
H31   H     H_    0.294150 0.708288 0.615034 0.251574
H32   H     H_    0.829362 0.290751 0.317908 0.213493
H33   H     H_    0.705850 0.291711 0.384967 0.251573
H34   H     H_    0.892786 0.210584 0.450319 0.239465
H35   H     H_    0.748113 0.398137 0.313310 0.249712
H36   H     H_    0.008530 0.237255 0.375332 0.246471
H37   H     H_    0.979120 0.757979 0.502622 0.244886
H38   H     H_    0.991470 0.762744 0.624668 0.246471
H39   H     H_    0.107214 0.789416 0.549681 0.239465
H40   H     H_    0.323850 0.687281 0.242277 0.242699
N1    N     N_R   0.207800 0.519350 0.516680 -0.121588
N2    N     N_R   0.792200 0.480650 0.483320 -0.121588
O1    O     O_R   0.421700 0.658830 0.504450 -0.629944
O2    O     O_R   0.578300 0.341170 0.495550 -0.629944
O3    O     O_R   0.609310 0.646410 0.493750 -0.626494
O4    O     O_R   0.390690 0.353590 0.506250 -0.626494
O5    O     O_R   0.406180 0.506230 0.637500 -0.616790
O6    O     O_R   0.593820 0.493770 0.362500 -0.616790
O7    O     O_R   0.593800 0.493820 0.626800 -0.627956
O8    O     O_R   0.406200 0.506180 0.373200 -0.627957
Zn1   Zn    Zn3+2 0.374730 0.508290 0.507150 0.934455
Zn2   Zn    Zn3+2 0.625270 0.491710 0.492850 0.934455

loop_
_geom_bond_atom_site_label_1
_geom_bond_atom_site_label_2
_ccdc_geom_bond_type
C25   C31   A    
C26   C32   A    
C16   C21   S    
C10   C42   S    
C43   H35   S    
C36   H40   S    
C5    C47   A    
C40   H22   S    
N1    Zn1   S    
C19   C21   A    
C24   C26   A    
C39   H15   S    
C5    C6    A    
C35   H38   S    
O5    Zn1   S    
C16   O7    A    
C27   C29   A    
C17   C20   S    
C40   H25   S    
C47   H21   S    
C13   C40   S    
C41   H26   S    
C38   H10   S    
C35   H39   S    
C10   N1    A    
C2    C44   A    
C22   C25   A    
C6    C46   A    
C17   O8    A    
C37   H5    S    
C7    C15   A    
C42   H31   S    
C1    O1    A    
C7    C33   S    
C12   O4    A    
C3    H17   S    
N2    Zn2   S    
C39   H13   S    
C46   C48   A    
C9    C43   S    
C34   C39   S    
C23   C30   A    
C4    C6    A    
C17   O6    A    
C37   H4    S    
C4    C44   A    
C2    H18   S    
C43   H32   S    
C29   C34   A    
C3    C45   A    
C8    C35   S    
C32   C34   A    
C46   H20   S    
C41   H27   S    
C38   H9    S    
C24   C37   S    
C18   C29   A    
O3    Zn2   S    
C36   H3    S    
C37   H6    S    
C8    C10   A    
C20   C22   A    
C42   H30   S    
C13   C15   A    
C43   H33   S    
O7    Zn2   S    
C36   H2    S    
O2    Zn2   S    
C33   H34   S    
C45   C48   A    
C7    C9    A    
C39   H14   S    
C16   O5    A    
C8    C14   A    
C40   H24   S    
C13   N1    A    
C12   O2    A    
C3    C5    A    
C9    N2    A    
C2    C47   A    
C25   C27   A    
C23   C38   S    
C22   C36   S    
C4    H16   S    
C26   C28   A    
O1    Zn1   S    
C28   C30   A    
C12   C44   S    
C41   H28   S    
C35   H37   S    
C11   N2    A    
C1    C45   S    
O4    Zn1   S    
O6    Zn2   S    
C11   C14   A    
C11   C41   S    
C18   C20   A    
C48   H19   S    
C33   H36   S    
C33   H23   S    
C38   H11   S    
C42   H29   S    
C1    O3    A    
O8    Zn1   S    
C21   C24   A    
C27   C28   A    
C14   C15   A    
C19   H12   S    
C31   H7    S    
C19   C30   A    
C32   H8    S    
C18   H1    S    
C23   C31   A    
