data_mof_unit_37939.cif
_audit_creation_date              2012-10-26T20:12:16-0400
_audit_creation_method            fapswitch 2.2
_symmetry_space_group_name_H-M    P1
_symmetry_Int_Tables_number       1
_space_group_crystal_system       triclinic
_cell_length_a                    13.076651
_cell_length_b                    15.184907
_cell_length_c                    13.86093
_cell_angle_alpha                 88.232802
_cell_angle_beta                  95.374098
_cell_angle_gamma                 90.924745
_cell_volume                      2738.68911817

loop_
_atom_site_label
_atom_site_type_symbol
_atom_type_description
_atom_site_fract_x
_atom_site_fract_y
_atom_site_fract_z
_atom_type_partial_charge
C1    C     C_R   0.500850 0.329230 0.501384 0.534926
C2    C     C_R   0.517235 0.950526 0.490806 0.015925
C3    C     C_R   0.574177 0.545031 0.112448 -0.164681
C4    C     C_R   0.474496 0.423181 0.892365 -0.179606
C5    C     C_R   0.572658 0.546392 0.213530 0.009865
C6    C     C_R   0.471993 0.426148 0.790875 0.004864
C7    C     C_R   0.427389 0.451747 0.206173 0.054267
C8    C     C_R   0.525601 0.574623 0.791198 0.064080
C9    C     C_R   0.423631 0.450337 0.104431 0.226283
C10   C     C_R   0.521233 0.577129 0.892417 0.224349
C11   C     C_R   0.498567 0.497705 0.055117 0.028097
C12   C     C_R   0.498917 0.670007 0.498189 0.546234
C13   C     C_R   0.498633 0.499209 0.945756 0.026455
C14   C     C_R   0.300632 0.499275 0.482567 0.558908
C15   C     C_R   0.699338 0.498972 0.517232 0.567551
C16   C     C_R   0.811661 0.498463 0.525733 -0.061166
C17   C     C_R   0.188274 0.499567 0.472763 -0.058760
C18   C     C_R   0.028111 0.514396 0.368494 0.260793
C19   C     C_R   0.971715 0.501921 0.628207 0.253565
C20   C     C_R   0.135935 0.515761 0.381369 -0.201799
C21   C     C_R   0.865226 0.503322 0.617444 -0.187916
C22   C     C_R   0.133244 0.486859 0.554543 0.247979
C23   C     C_R   0.505902 0.231554 0.502795 0.023071
C24   C     C_R   0.865663 0.493820 0.442501 0.268676
C25   C     C_R   0.026551 0.497289 0.545330 -0.042779
C26   C     C_R   0.973339 0.502310 0.451375 -0.026188
C27   C     C_R   0.495712 0.085913 0.580109 -0.096090
C28   C     C_R   0.461384 0.907897 0.414327 -0.096949
C29   C     C_R   0.490239 0.177286 0.585803 -0.005828
C30   C     C_R   0.453109 0.815904 0.414650 -0.007115
C31   C     C_3   0.814378 0.384539 0.339289 0.015746
C32   C     C_3   0.728392 0.359464 0.263000 -0.360260
C33   C     C_3   0.186108 0.368862 0.650087 0.027257
C34   C     C_R   0.502385 0.766395 0.493771 0.033163
C35   C     C_3   0.198468 0.339444 0.756191 -0.363818
C36   C     C_3   0.262244 0.448631 0.027329 -0.023464
C37   C     C_3   0.170816 0.386547 0.007254 -0.378279
C38   C     C_3   0.445352 0.698211 0.943267 -0.015086
C39   C     C_3   0.463072 0.779510 0.004309 -0.370916
C40   C     C_3   0.018963 0.506592 0.199093 -0.006343
C41   C     C_3   0.939023 0.508180 0.111984 -0.358071
C42   C     C_3   0.039302 0.596275 0.741647 0.025882
C43   C     C_3   0.108215 0.602632 0.835846 -0.371584
C44   C     C_3   0.465904 0.212878 0.680515 -0.397337
C45   C     C_R   0.527353 0.190963 0.416936 -0.146038
C46   C     C_3   0.388460 0.773173 0.332513 -0.385324
C47   C     C_R   0.558701 0.809766 0.569571 -0.144565
C48   C     C_R   0.532524 0.099752 0.412762 -0.132363
C49   C     C_R   0.566604 0.900955 0.567851 -0.130333
C50   C     C_R   0.516701 0.046923 0.494465 0.015983
Cu1   Cu    Cu3+1 0.500000 0.499990 0.596430 0.944012
Cu2   Cu    Cu3+1 0.500000 0.500010 0.403570 0.923272
H1    H     H_    0.371294 0.413985 0.243298 0.140087
H2    H     H_    0.610707 0.932981 0.627248 0.108947
H3    H     H_    0.635439 0.580101 0.079728 0.161703
H4    H     H_    0.457095 0.361234 0.928200 0.158256
H5    H     H_    0.630814 0.583694 0.256085 0.170043
H6    H     H_    0.446082 0.369329 0.751945 0.125311
H7    H     H_    0.802392 0.344992 0.406698 0.101381
H8    H     H_    0.889020 0.366193 0.313628 0.133739
H9    H     H_    0.733240 0.399895 0.195553 0.151835
H10   H     H_    0.734230 0.288812 0.246147 0.079013
H11   H     H_    0.652793 0.369972 0.290663 0.187939
H12   H     H_    0.547465 0.634009 0.753081 0.136268
H13   H     H_    0.252581 0.345510 0.613970 0.125397
H14   H     H_    0.114657 0.336537 0.616492 0.108205
H15   H     H_    0.127651 0.354646 0.790434 0.181223
H16   H     H_    0.211443 0.267332 0.762563 0.076330
H17   H     H_    0.264481 0.374253 0.794895 0.161553
H18   H     H_    0.243214 0.494831 0.084001 0.102892
H19   H     H_    0.274731 0.487035 0.959812 0.137776
H20   H     H_    0.146507 0.358625 0.076631 0.135908
H21   H     H_    0.105790 0.422485 0.967898 0.105617
H22   H     H_    0.191807 0.331530 0.962421 0.165784
H23   H     H_    0.824689 0.507401 0.681821 0.155584
H24   H     H_    0.389242 0.654358 0.978039 0.120644
H25   H     H_    0.411832 0.719209 0.869455 0.127108
H26   H     H_    0.517511 0.825629 0.971170 0.158172
H27   H     H_    0.389136 0.813481 0.008604 0.088715
H28   H     H_    0.495327 0.760091 0.078797 0.155421
H29   H     H_    0.046471 0.437710 0.211702 0.108782
H30   H     H_    0.083339 0.550938 0.181051 0.117370
H31   H     H_    0.907488 0.575478 0.099440 0.166927
H32   H     H_    0.974340 0.488934 0.046255 0.084525
H33   H     H_    0.875518 0.461287 0.124623 0.154471
H34   H     H_    0.179867 0.530394 0.320447 0.124846
H35   H     H_    0.965520 0.629389 0.750456 0.114333
H36   H     H_    0.078828 0.631783 0.683704 0.140882
H37   H     H_    0.182470 0.570198 0.828503 0.171910
H38   H     H_    0.123413 0.672895 0.852798 0.081748
H39   H     H_    0.070347 0.570208 0.896209 0.138639
H40   H     H_    0.532428 0.252481 0.711297 0.148924
H41   H     H_    0.394605 0.251680 0.668589 0.125070
H42   H     H_    0.451930 0.159919 0.735012 0.107842
H43   H     H_    0.330834 0.727626 0.361772 0.143276
H44   H     H_    0.346081 0.822707 0.284209 0.106703
H45   H     H_    0.481317 0.044314 0.642514 0.105228
H46   H     H_    0.438119 0.736470 0.287436 0.154927
H47   H     H_    0.421670 0.946678 0.355861 0.105584
H48   H     H_    0.540534 0.229732 0.352262 0.126499
H49   H     H_    0.597727 0.772904 0.629946 0.116651
H50   H     H_    0.549218 0.070453 0.345810 0.108180
N1    N     N_R   0.500000 0.500020 0.258690 -0.270094
N2    N     N_R   0.500000 0.499980 0.741310 -0.245052
O1    O     O_R   0.500010 0.371450 0.581430 -0.513966
O2    O     O_3   0.183011 0.461964 0.643470 -0.494232
O3    O     O_3   0.349854 0.397894 0.056063 -0.588763
O4    O     O_3   0.540089 0.656130 0.937970 -0.586088
O5    O     O_3   0.973901 0.537806 0.280082 -0.502876
O6    O     O_3   0.021378 0.506612 0.720510 -0.522072
O7    O     O_R   0.499990 0.628550 0.418570 -0.504560
O8    O     O_R   0.500010 0.371460 0.418560 -0.522398
O9    O     O_R   0.499990 0.628540 0.581440 -0.522614
O10   O     O_R   0.349000 0.499980 0.568210 -0.443755
O11   O     O_R   0.651000 0.500020 0.431790 -0.452205
O12   O     O_R   0.349000 0.499990 0.405340 -0.529858
O13   O     O_R   0.651000 0.500010 0.594660 -0.513844
O14   O     O_3   0.813071 0.476489 0.353415 -0.490337

loop_
_geom_bond_atom_site_label_1
_geom_bond_atom_site_label_2
_ccdc_geom_bond_type
C37   H22   S    
C5    N1    A    
Cu2   N1    S    
C16   C21   A    
C23   C45   A    
C27   C29   A    
C6    H6    S    
C10   O4    S    
C18   C26   A    
C18   O5    S    
C33   H13   S    
C47   C49   A    
C38   H24   S    
C43   H37   S    
C47   H49   S    
C23   C29   A    
C36   C37   S    
C19   C21   A    
C24   C26   A    
C32   H9    S    
C1    O8    A    
C38   C39   S    
C19   O6    S    
Cu2   O8    S    
C15   C16   S    
C41   H31   S    
C17   C20   A    
C31   H7    S    
C4    C13   A    
C44   H41   S    
C2    C50   S    
C33   C35   S    
C3    H3    S    
C46   H43   S    
C22   C25   A    
C20   H34   S    
C6    N2    A    
C44   H40   S    
C27   C50   A    
C48   C50   A    
C46   H46   S    
C16   C24   A    
C7    N1    A    
C4    H4    S    
C36   O3    S    
C38   O4    S    
C14   C17   S    
C36   H18   S    
C33   H14   S    
Cu2   O12   S    
Cu2   O11   S    
Cu1   O10   S    
C30   C34   A    
Cu1   Cu2   S    
C43   H38   S    
C39   H26   S    
C40   H30   S    
C3    C11   A    
C4    C6    A    
Cu2   O7    S    
C25   C26   A    
C22   O2    S    
C41   H32   S    
C45   H48   S    
C43   H39   S    
C15   O13   A    
C39   H27   S    
C31   H8    S    
C31   O14   S    
C2    C49   A    
C9    C11   A    
C31   C32   S    
C35   H15   S    
Cu1   O1    S    
C48   H50   S    
Cu1   O9    S    
C8    N2    A    
C8    H12   S    
C28   H47   S    
C40   C41   S    
C1    C23   S    
C29   C44   S    
C15   O11   A    
C42   H36   S    
C42   C43   S    
C7    H1    S    
C12   C34   S    
C12   O9    A    
C45   C48   A    
C7    C9    A    
C37   H21   S    
C27   H45   S    
C40   H29   S    
C30   C46   S    
C33   O2    S    
C32   H11   S    
C3    C5    A    
C10   C13   A    
C36   H19   S    
C40   O5    S    
C34   C47   A    
C38   H25   S    
C9    O3    S    
C41   H33   S    
C21   H23   S    
C24   O14   S    
C17   C22   A    
C5    H5    S    
C39   H28   S    
C28   C30   A    
Cu1   N2    S    
C32   H10   S    
C14   O10   A    
C11   C13   S    
C35   H16   S    
C14   O12   A    
Cu1   O13   S    
C18   C20   A    
C42   O6    S    
C19   C25   A    
C44   H42   S    
C46   H44   S    
C35   H17   S    
C8    C10   A    
C37   H20   S    
C2    C28   A    
C42   H35   S    
C12   O7    A    
C49   H2    S    
C1    O1    A    
