data_mof_unit_11140.cif
_audit_creation_date              2012-12-10T16:56:29-0500
_audit_creation_method            fapswitch 2.2
_symmetry_space_group_name_H-M    P1
_symmetry_Int_Tables_number       1
_space_group_crystal_system       triclinic
_cell_length_a                    7.768769
_cell_length_b                    8.578757
_cell_length_c                    15.710251
_cell_angle_alpha                 90.829782
_cell_angle_beta                  86.023966
_cell_angle_gamma                 93.630643
_cell_volume                      1042.36144696

loop_
_atom_site_label
_atom_site_type_symbol
_atom_type_description
_atom_site_fract_x
_atom_site_fract_y
_atom_site_fract_z
_atom_type_partial_charge
C1    C     C_R   0.545772 0.794732 0.497804 0.962104
C2    C     C_3   0.366571 0.403936 0.030513 -0.220956
C3    C     C_1   0.507345 0.499581 0.750637 -0.172630
C4    C     C_1   0.492725 0.500504 0.249364 -0.143149
C5    C     C_3   0.353339 0.549615 0.975656 0.051337
C6    C     C_3   0.647464 0.450769 0.024311 0.060456
C7    C     C_3   0.505394 0.499703 0.916868 0.092719
C8    C     C_3   0.495331 0.500557 0.083117 0.141932
C9    C     C_1   0.508420 0.499464 0.825900 -0.063368
C10   C     C_1   0.491886 0.500701 0.174095 0.004687
C11   C     C_2   0.812473 0.394943 0.052944 0.364942
C12   C     C_R   0.454228 0.205268 0.502193 0.960139
C13   C     C_2   0.187766 0.602420 0.945962 0.450670
C14   C     C_R   0.502403 0.500027 0.661933 0.902196
C15   C     C_R   0.497601 0.499975 0.338068 0.899726
C16   C     C_2   0.569863 0.958202 0.496549 -0.371339
C17   C     C_2   0.430137 0.041798 0.503444 -0.372046
C18   C     C_3   0.480118 0.647015 0.029638 -0.134151
C19   C     C_3   0.520774 0.353384 0.970353 -0.277997
C20   C     C_3   0.634270 0.596386 0.969394 -0.184992
H1    H     H_    0.744458 0.673475 0.942676 0.177166
H2    H     H_    0.108637 0.524625 0.907494 0.040567
H3    H     H_    0.256405 0.326769 0.057193 0.172913
H4    H     H_    0.462124 0.766327 0.055695 0.164993
H5    H     H_    0.539054 0.234060 0.944379 0.160177
H6    H     H_    0.701838 0.009232 0.489969 0.182350
H7    H     H_    0.298162 0.990767 0.510023 0.182267
H8    H     H_    0.013389 0.382141 0.436457 0.198727
H9    H     H_    0.986611 0.617861 0.563541 0.193377
H10   H     H_    0.855178 0.282063 0.031603 0.055039
N1    N     N_2   0.950320 0.457950 0.477300 -0.168269
N2    N     N_2   0.049680 0.542050 0.522700 -0.171895
O1    O     O_R   0.389250 0.738570 0.505570 -0.612801
O2    O     O_2   0.141067 0.732299 0.964917 -0.567090
O3    O     O_R   0.610750 0.261430 0.494430 -0.613894
O4    O     O_R   0.678390 0.711630 0.491020 -0.629178
O5    O     O_R   0.321610 0.288370 0.508980 -0.631240
O6    O     O_R   0.355460 0.513480 0.630490 -0.613166
O7    O     O_R   0.644540 0.486520 0.369510 -0.597564
O8    O     O_R   0.644600 0.486540 0.615950 -0.623026
O9    O     O_R   0.355400 0.513460 0.384050 -0.619316
O10   O     O_2   0.900224 0.476708 0.099627 -0.548634
Zn1   Zn    Zn3+2 0.306940 0.517990 0.509710 0.955846
Zn2   Zn    Zn3+2 0.693060 0.482010 0.490290 0.962368

loop_
_geom_bond_atom_site_label_1
_geom_bond_atom_site_label_2
_ccdc_geom_bond_type
C12   C17   S    
O5    Zn1   S    
C5    C13   S    
O7    Zn2   S    
C3    C9    T    
C14   O6    A    
C6    C20   S    
C18   C20   S    
N1    N2    D    
C2    H3    S    
C4    C15   S    
C1    O1    A    
C13   O2    D    
C1    C16   S    
C12   O3    A    
O3    Zn2   S    
O9    Zn1   S    
C15   O7    A    
C3    C14   S    
C11   H10   S    
C18   H4    S    
N2    Zn1   S    
C6    C19   S    
C13   H2    S    
H9    N2    S    
C7    C19   S    
C16   H6    S    
C19   H5    S    
C2    C8    S    
O4    Zn2   S    
C2    C5    S    
N1    Zn2   S    
C4    C10   T    
O1    Zn1   S    
C7    C9    S    
O8    Zn2   S    
C20   H1    S    
C15   O9    A    
C11   O10   D    
C8    C10   S    
C7    C20   S    
C12   O5    A    
C6    C11   S    
C5    C7    S    
C6    C8    S    
C5    C18   S    
C2    C19   S    
C14   O8    A    
H8    N1    S    
C8    C18   S    
O6    Zn1   S    
C1    O4    A    
C16   C17   D    
C17   H7    S    
