data_mof_unit_49480.cif
_audit_creation_date              2012-10-26T20:33:27-0400
_audit_creation_method            fapswitch 2.2
_symmetry_space_group_name_H-M    P1
_symmetry_Int_Tables_number       1
_space_group_crystal_system       triclinic
_cell_length_a                    8.751345
_cell_length_b                    9.086231
_cell_length_c                    7.794718
_cell_angle_alpha                 90.22576
_cell_angle_beta                  97.384665
_cell_angle_gamma                 89.979162
_cell_volume                      614.664846236

loop_
_atom_site_label
_atom_site_type_symbol
_atom_type_description
_atom_site_fract_x
_atom_site_fract_y
_atom_site_fract_z
_atom_type_partial_charge
C1    C     C_R   0.498992 0.220077 0.499638 0.532151
C2    C     C_3   0.084846 0.735846 0.088611 -0.266988
C3    C     C_3   0.119611 0.703317 0.905826 -0.433252
C4    C     C_3   0.028384 0.230093 0.609729 0.001331
C5    C     C_3   0.926215 0.126642 0.699382 -0.265877
C6    C     C_3   0.914624 0.975157 0.613191 -0.465838
C7    C     C_R   0.499512 0.779929 0.500135 0.547277
C8    C     C_R   0.203594 0.507883 0.457077 0.557807
C9    C     C_R   0.796232 0.495862 0.542527 0.589238
C10   C     C_2   0.038757 0.530712 0.438425 0.204646
C11   C     C_2   0.959400 0.471807 0.558656 0.231120
C12   C     C_1   0.498552 0.065391 0.499493 -0.070146
C13   C     C_1   0.498724 0.934604 0.500097 -0.063790
C14   C     C_3   0.986120 0.614329 0.154230 0.035328
Cu1   Cu    Cu3+1 0.500010 0.500000 0.669080 0.996390
Cu2   Cu    Cu3+1 0.499990 0.500000 0.330920 0.998142
H1    H     H_    0.869235 0.619845 0.079515 0.173577
H2    H     H_    0.974674 0.114701 0.837599 0.167948
H3    H     H_    0.808880 0.174333 0.693721 0.187382
H4    H     H_    0.859112 0.984028 0.477218 0.168896
H5    H     H_    0.843492 0.901520 0.684129 0.155377
H6    H     H_    0.030947 0.926009 0.614292 0.156945
H7    H     H_    0.031222 0.502792 0.127542 0.148378
H8    H     H_    0.022913 0.842648 0.089618 0.154663
H9    H     H_    0.195266 0.746752 0.175355 0.199161
H10   H     H_    0.183146 0.597826 0.903344 0.213250
H11   H     H_    0.191975 0.792599 0.862209 0.145098
H12   H     H_    0.010793 0.696086 0.815955 0.153716
H13   H     H_    0.148982 0.189260 0.632468 0.163829
H14   H     H_    0.992780 0.225343 0.466687 0.095664
N1    N     N_1   0.499980 0.500000 0.076820 -0.092839
N2    N     N_1   0.500020 0.500000 0.923180 -0.095053
O1    O     O_R   0.500010 0.288400 0.642760 -0.502381
O2    O     O_3   0.024856 0.373197 0.682850 -0.594796
O3    O     O_R   0.499990 0.711600 0.357240 -0.498438
O4    O     O_R   0.499990 0.288400 0.357240 -0.496869
O5    O     O_R   0.500010 0.711600 0.642760 -0.507999
O6    O     O_R   0.274840 0.500000 0.609840 -0.487331
O7    O     O_R   0.725160 0.500000 0.390160 -0.491553
O8    O     O_R   0.274830 0.500000 0.324260 -0.528614
O9    O     O_R   0.725170 0.500000 0.675740 -0.506238
O10   O     O_3   0.970970 0.641059 0.330102 -0.609312

loop_
_geom_bond_atom_site_label_1
_geom_bond_atom_site_label_2
_ccdc_geom_bond_type
C14   H7    S    
Cu1   O6    S    
C5    H3    S    
C10   O10   S    
C6    H4    S    
C9    O9    A    
C4    H13   S    
C9    O7    A    
C14   O10   S    
C3    H11   S    
C2    C3    S    
C7    O5    A    
C1    O1    A    
Cu1   N2    S    
Cu2   O4    S    
Cu2   N1    S    
C9    C11   S    
C14   H1    S    
C1    C12   S    
C8    O6    A    
Cu2   O8    S    
C3    H12   S    
C2    H9    S    
C3    H10   S    
Cu2   O3    S    
C2    H8    S    
C5    C6    S    
C2    C14   S    
C4    O2    S    
C10   C11   D    
Cu2   O7    S    
Cu1   Cu2   S    
C6    H6    S    
C7    C13   S    
C12   C13   T    
Cu1   O9    S    
C8    C10   S    
Cu1   O5    S    
C5    H2    S    
C8    O8    A    
C6    H5    S    
C7    O3    A    
Cu1   O1    S    
C11   O2    S    
C4    H14   S    
N1    N2    T    
C1    O4    A    
C4    C5    S    
