data_mof_unit_48081.cif
_audit_creation_date              2012-12-10T17:08:34-0500
_audit_creation_method            fapswitch 2.2
_symmetry_space_group_name_H-M    P1
_symmetry_Int_Tables_number       1
_space_group_crystal_system       triclinic
_cell_length_a                    18.326397
_cell_length_b                    18.321971
_cell_length_c                    34.314343
_cell_angle_alpha                 89.747835
_cell_angle_beta                  89.840683
_cell_angle_gamma                 89.897164
_cell_volume                      11521.7485972

loop_
_atom_site_label
_atom_site_type_symbol
_atom_type_description
_atom_site_fract_x
_atom_site_fract_y
_atom_site_fract_z
_atom_type_partial_charge
C1    C     C_R   0.000085 0.500006 0.894154 0.873419
C2    C     C_R   0.997296 0.566733 0.790511 -0.003106
C3    C     C_R   0.802056 0.856328 0.906844 -0.185725
C4    C     C_R   0.855389 0.803449 0.906818 -0.192705
C5    C     C_R   0.622884 0.322293 0.080653 -0.238915
C6    C     C_R   0.144648 0.196656 0.907254 -0.193065
C7    C     C_R   0.387522 0.664983 0.071416 -0.225939
C8    C     C_R   0.826608 0.119507 0.577477 -0.223225
C9    C     C_R   0.685386 0.631808 0.414231 -0.189748
C10   C     C_R   0.174117 0.877357 0.579631 -0.219456
C11   C     C_R   0.300223 0.354529 0.405794 -0.190631
C12   C     C_R   0.352984 0.301073 0.405529 -0.186132
C13   C     C_R   0.433055 0.003846 0.790314 -0.001737
C14   C     C_R   0.124380 0.821319 0.581766 -0.247681
C15   C     C_R   0.631818 0.684450 0.414452 -0.201872
C16   C     C_R   0.879174 0.172994 0.577847 -0.235729
C17   C     C_R   0.315568 0.739292 0.025708 -0.057867
C18   C     C_R   0.194111 0.249093 0.967466 -0.065494
C19   C     C_R   0.687918 0.256438 0.028871 -0.056893
C20   C     C_R   0.806127 0.751225 0.967498 -0.063054
C21   C     C_R   0.750641 0.806329 0.967561 -0.064451
C22   C     C_R   0.742821 0.312009 0.028851 -0.057884
C23   C     C_R   0.248992 0.193391 0.967889 -0.064962
C24   C     C_R   0.002913 0.433296 0.790802 -0.003792
C25   C     C_R   0.260145 0.684290 0.026119 -0.058126
C26   C     C_R   0.812549 0.242536 0.527915 -0.054555
C27   C     C_R   0.690577 0.745581 0.469686 -0.062018
C28   C     C_R   0.188258 0.756227 0.529315 -0.055652
C29   C     C_R   0.305384 0.250552 0.466992 -0.066907
C30   C     C_R   0.250302 0.306107 0.467228 -0.067220
C31   C     C_R   0.241815 0.813064 0.528238 -0.057674
C32   C     C_R   0.746163 0.690633 0.469568 -0.064292
C33   C     C_R   0.757586 0.187134 0.527762 -0.059387
C34   C     C_R   0.197125 0.694508 0.002299 -0.114200
C35   C     C_R   0.063989 0.503129 0.290159 -0.002409
C36   C     C_R   0.301891 0.193958 0.998403 -0.113120
C37   C     C_R   0.803099 0.305176 0.002600 -0.113500
C38   C     C_R   0.699309 0.807208 0.998984 -0.116256
C39   C     C_R   0.805851 0.697893 0.998011 -0.122874
C40   C     C_R   0.695633 0.196855 0.002465 -0.118621
C41   C     C_R   0.193127 0.301162 0.998360 -0.118227
C42   C     C_R   0.304511 0.802957 0.002259 -0.116755
C43   C     C_R   0.696788 0.195658 0.502219 -0.114703
C44   C     C_R   0.802631 0.694567 0.498082 -0.108637
C45   C     C_R   0.302568 0.805606 0.502344 -0.114975
C46   C     C_R   0.487868 0.061758 0.290094 -0.003454
C47   C     C_R   0.198312 0.306385 0.498351 -0.111976
C48   C     C_R   0.307179 0.199165 0.498444 -0.117145
C49   C     C_R   0.195235 0.697104 0.502564 -0.118384
C50   C     C_R   0.694331 0.802177 0.498121 -0.117168
C51   C     C_R   0.804112 0.304015 0.502560 -0.126393
C52   C     C_R   0.184899 0.759834 0.981225 0.099456
C53   C     C_R   0.300594 0.246749 0.028399 0.110475
C54   C     C_R   0.813459 0.242305 0.979510 0.100445
C55   C     C_R   0.703696 0.757184 0.030546 0.110328
C56   C     C_R   0.753084 0.698467 0.028199 0.096234
C57   C     C_R   0.931275 0.490408 0.290493 -0.002069
C58   C     C_R   0.759903 0.187274 0.979972 0.104141
C59   C     C_R   0.244018 0.298767 0.029301 0.111456
C60   C     C_R   0.238484 0.814821 0.981709 0.103451
C61   C     C_R   0.685386 0.260974 0.480746 0.110604
C62   C     C_R   0.806898 0.752545 0.525083 0.106288
C63   C     C_R   0.312679 0.742668 0.479251 0.100297
C64   C     C_R   0.200902 0.254734 0.529132 0.112748
C65   C     C_R   0.257867 0.203152 0.530186 0.114354
C66   C     C_R   0.258238 0.688542 0.478998 0.105472
C67   C     C_R   0.752396 0.806768 0.525088 0.104448
C68   C     C_R   0.499658 0.928923 0.290733 -0.002675
C69   C     C_R   0.739158 0.316016 0.481069 0.094152
C70   C     C_R   0.434590 0.986845 0.830505 0.145759
C71   C     C_R   0.985956 0.434835 0.831038 0.140839
C72   C     C_R   0.564599 0.013755 0.830333 0.146238
C73   C     C_R   0.014385 0.565155 0.830695 0.137037
C74   C     C_R   0.935212 0.475695 0.331002 0.145865
C75   C     C_R   0.485744 0.930583 0.331419 0.141601
C76   C     C_R   0.060011 0.521724 0.329941 0.140899
C77   C     C_R   0.508249 0.061649 0.329634 0.142374
C78   C     C_3   0.113637 0.770844 0.958490 -0.403079
C79   C     C_R   0.499637 0.000870 0.769650 -0.114549
C80   C     C_3   0.055461 0.808603 0.983394 -0.775556
C81   C     C_3   0.363354 0.251567 0.057660 -0.416132
C82   C     C_3   0.419830 0.307328 0.043831 -0.786937
C83   C     C_3   0.883282 0.233375 0.955149 -0.407525
C84   C     C_3   0.943155 0.194498 0.978362 -0.778895
C85   C     C_3   0.657602 0.768829 0.067388 -0.379378
C86   C     C_3   0.696569 0.818909 0.096185 -0.810583
C87   C     C_3   0.746093 0.632529 0.055623 -0.376939
C88   C     C_3   0.786989 0.642245 0.094023 -0.812373
C89   C     C_3   0.770823 0.117987 0.956065 -0.399864
C90   C     C_R   0.000074 0.500021 0.770053 -0.111453
C91   C     C_3   0.740122 0.128018 0.915301 -0.848820
C92   C     C_3   0.237076 0.351594 0.063727 -0.393349
C93   C     C_3   0.195164 0.316723 0.097547 -0.825006
C94   C     C_3   0.226782 0.885472 0.958748 -0.401950
C95   C     C_3   0.255908 0.877404 0.917438 -0.843698
C96   C     C_3   0.615225 0.270712 0.457256 -0.382793
C97   C     C_3   0.620603 0.231013 0.418470 -0.827589
C98   C     C_3   0.872627 0.758946 0.552277 -0.415393
C99   C     C_3   0.932757 0.804772 0.533264 -0.785517
C100  C     C_3   0.383659 0.732044 0.456142 -0.406036
C101  C     C_R   0.997712 0.496195 0.269734 -0.114238
C102  C     C_3   0.440016 0.690010 0.480260 -0.775483
C103  C     C_3   0.139102 0.250376 0.559191 -0.413133
C104  C     C_3   0.084003 0.191948 0.547501 -0.791323
C105  C     C_3   0.267556 0.153350 0.565915 -0.392463
C106  C     C_3   0.310689 0.191922 0.597796 -0.824485
C107  C     C_3   0.266687 0.621703 0.452891 -0.394397
C108  C     C_3   0.238408 0.638279 0.412145 -0.845449
C109  C     C_3   0.756601 0.871354 0.553219 -0.392045
C110  C     C_3   0.716650 0.855563 0.591441 -0.845819
C111  C     C_3   0.726607 0.388999 0.459662 -0.378912
C112  C     C_R   0.499726 0.000129 0.894051 0.869200
C113  C     C_R   0.492930 0.995212 0.269814 -0.114084
C114  C     C_3   0.733104 0.382435 0.415370 -0.820876
C115  C     C_3   0.376868 0.937764 0.848346 -0.372892
C116  C     C_3   0.401133 0.857927 0.846066 -0.856553
C117  C     C_3   0.939995 0.374989 0.849961 -0.355141
C118  C     C_3   0.859293 0.396206 0.850144 -0.857842
C119  C     C_3   0.622531 0.062493 0.847771 -0.374413
C120  C     C_3   0.598979 0.142470 0.844509 -0.861653
C121  C     C_3   0.059988 0.625195 0.849263 -0.355132
C122  C     C_3   0.140731 0.604121 0.849657 -0.854486
C123  C     C_3   0.883364 0.421595 0.350320 -0.370549
C124  C     C_R   0.630849 0.978189 0.770433 0.317459
C125  C     C_3   0.915957 0.344710 0.349500 -0.835400
C126  C     C_3   0.442400 0.870155 0.351480 -0.354930
C127  C     C_3   0.361030 0.888521 0.351892 -0.861986
C128  C     C_3   0.111733 0.577579 0.346973 -0.372075
C129  C     C_3   0.077561 0.653799 0.345261 -0.842070
C130  C     C_3   0.555181 0.122422 0.345648 -0.369449
C131  C     C_3   0.635804 0.100654 0.344105 -0.865044
C132  C     C_3   0.204523 0.472903 0.208419 -0.359406
C133  C     C_3   0.240713 0.544872 0.196962 -0.799057
C134  C     C_3   0.430997 0.194001 0.208413 -0.358952
C135  C     C_R   0.976338 0.631191 0.770597 0.322876
C136  C     C_3   0.494533 0.243665 0.197170 -0.810030
C137  C     C_3   0.791389 0.515061 0.207880 -0.359953
C138  C     C_3   0.760722 0.441987 0.194382 -0.811685
C139  C     C_3   0.546694 0.794897 0.208117 -0.359540
C140  C     C_3   0.479199 0.755434 0.192940 -0.818243
C141  C     C_3   0.703929 0.959560 0.708542 -0.362420
C142  C     C_3   0.708927 0.879211 0.697171 -0.802685
C143  C     C_3   0.950508 0.701846 0.708019 -0.359726
C144  C     C_3   0.017979 0.744195 0.694853 -0.815271
C145  C     C_3   0.297212 0.047299 0.708163 -0.356595
C146  C     C_R   0.368408 0.023857 0.770571 0.323201
C147  C     C_3   0.257099 0.978767 0.694958 -0.815980
C148  C     C_3   0.049879 0.298343 0.708774 -0.359282
C149  C     C_3   0.982584 0.255577 0.696156 -0.812641
C150  C     C_R   0.023806 0.368846 0.771109 0.323381
C151  C     C_R   0.130825 0.490971 0.270556 0.325214
C152  C     C_R   0.463513 0.125223 0.270501 0.324799
C153  C     C_R   0.864587 0.501181 0.270558 0.323362
C154  C     C_R   0.521906 0.865120 0.270809 0.319964
C155  C     C_R   0.132281 0.486189 0.229463 0.078152
C156  C     C_R   0.499938 0.999014 0.394073 0.866812
C157  C     C_R   0.457984 0.125604 0.229450 0.078775
C158  C     C_R   0.863638 0.504709 0.229303 0.080908
C159  C     C_R   0.525638 0.864799 0.229520 0.081948
C160  C     C_R   0.632192 0.975929 0.729334 0.077649
C161  C     C_R   0.971890 0.631773 0.729410 0.081768
C162  C     C_R   0.367740 0.027783 0.729383 0.080634
C163  C     C_R   0.028222 0.368309 0.729913 0.080951
C164  C     C_R   0.065716 0.493356 0.208547 0.055691
C165  C     C_R   0.477823 0.061622 0.208589 0.053238
C166  C     C_R   0.930726 0.499346 0.208445 0.058786
C167  C     C_R   0.999201 0.500052 0.394061 0.879787
C168  C     C_R   0.509661 0.930221 0.208565 0.062202
C169  C     C_R   0.566354 0.988514 0.708414 0.061084
C170  C     C_R   0.987206 0.566395 0.708626 0.055859
C171  C     C_R   0.433350 0.013113 0.708460 0.058864
C172  C     C_R   0.012694 0.433654 0.708887 0.057482
C173  C     C_R   0.998003 0.496107 0.228915 0.012637
C174  C     C_R   0.493178 0.995545 0.228991 0.010976
C175  C     C_R   0.499775 0.000849 0.728842 0.010604
C176  C     C_R   0.999983 0.500024 0.729196 0.011523
C177  C     C_R   0.064686 0.496250 0.167692 -0.229347
C178  C     C_R   0.499580 0.000381 0.851169 -0.096189
C179  C     C_R   0.481566 0.061440 0.167773 -0.216901
C180  C     C_R   0.932843 0.499690 0.167507 -0.225974
C181  C     C_R   0.512275 0.933101 0.167604 -0.229078
C182  C     C_R   0.564600 0.987110 0.667547 -0.216676
C183  C     C_R   0.988011 0.564894 0.667684 -0.216923
C184  C     C_R   0.435071 0.012490 0.667562 -0.228778
C185  C     C_R   0.011635 0.435122 0.667946 -0.222089
C186  C     C_R   0.999049 0.499071 0.147743 -0.034533
C187  C     C_R   0.498905 0.998089 0.147821 -0.032885
C188  C     C_R   0.499858 0.999577 0.647714 -0.033665
C189  C     C_R   0.000242 0.499975 0.851468 -0.097168
C190  C     C_R   0.999754 0.499997 0.647898 -0.033673
C191  C     C_R   0.999689 0.499805 0.105628 0.869989
C192  C     C_R   0.499838 0.999331 0.105652 0.867208
C193  C     C_R   0.499998 0.999842 0.605617 0.869346
C194  C     C_R   0.999912 0.500009 0.605679 0.872596
C195  C     C_R   0.860687 0.640504 0.999442 0.921706
C196  C     C_R   0.359767 0.860111 0.000098 0.919530
C197  C     C_R   0.138979 0.359077 0.999348 0.916918
C198  C     C_R   0.640051 0.140088 0.000174 0.918468
C199  C     C_R   0.140426 0.639343 0.000503 0.918611
C200  C     C_R   0.997788 0.499801 0.351203 -0.100779
C201  C     C_R   0.640369 0.860450 0.999915 0.918518
C202  C     C_R   0.859585 0.360596 0.000645 0.920258
C203  C     C_R   0.359764 0.139760 0.999748 0.915959
C204  C     C_R   0.360987 0.140804 0.499414 0.915669
C205  C     C_R   0.860171 0.359945 0.500387 0.912013
C206  C     C_R   0.639440 0.859465 0.499555 0.924941
C207  C     C_R   0.139608 0.640447 0.500449 0.912396
C208  C     C_R   0.640104 0.139971 0.500188 0.921543
C209  C     C_R   0.140336 0.360502 0.499644 0.909604
C210  C     C_R   0.359531 0.860611 0.500606 0.920374
C211  C     C_R   0.499121 0.996716 0.351236 -0.095705
C212  C     C_R   0.859774 0.639703 0.499658 0.913863
C213  C     C_R   0.269805 0.621768 0.051117 0.375491
C214  C     C_R   0.248370 0.139432 0.937464 0.367277
C215  C     C_R   0.735626 0.371359 0.055950 0.373049
C216  C     C_R   0.750689 0.859768 0.936617 0.367370
C217  C     C_R   0.859271 0.751810 0.936493 0.360424
C218  C     C_R   0.628601 0.262125 0.056313 0.373869
C219  C     C_R   0.141518 0.249066 0.936330 0.360552
C220  C     C_R   0.379078 0.728614 0.049696 0.378703
C221  C     C_R   0.765086 0.126390 0.554205 0.371286
C222  C     C_R   0.566075 0.997453 0.790210 0.000417
C223  C     C_R   0.742892 0.634293 0.440462 0.364514
C224  C     C_R   0.232973 0.874149 0.554089 0.376557
C225  C     C_R   0.250010 0.359179 0.436080 0.365629
C226  C     C_R   0.357702 0.250311 0.435596 0.370317
C227  C     C_R   0.130531 0.760732 0.557764 0.370424
C228  C     C_R   0.633773 0.741587 0.440891 0.364036
C229  C     C_R   0.872573 0.235008 0.554656 0.374488
C230  C     C_R   0.333771 0.612646 0.072220 -0.228947
C231  C     C_R   0.196927 0.142761 0.907869 -0.187339
C232  C     C_R   0.675214 0.376043 0.080350 -0.222651
Cl1   Cl    Cl    0.204211 0.553769 0.061424 -0.725014
Cl2   Cl    Cl    0.808391 0.565287 0.431960 -0.702971
Cl3   Cl    Cl    0.292303 0.949475 0.558728 -0.726159
Cl4   Cl    Cl    0.192143 0.436084 0.431596 -0.692997
Cl5   Cl    Cl    0.434228 0.192299 0.430882 -0.705705
Cl6   Cl    Cl    0.065773 0.692244 0.568989 -0.715952
Cl7   Cl    Cl    0.562853 0.805324 0.433466 -0.709095
Cl8   Cl    Cl    0.939318 0.301707 0.565147 -0.717466
Cl9   Cl    Cl    0.704540 0.939629 0.797139 -0.641418
Cl10  Cl    Cl    0.940255 0.705740 0.797495 -0.641972
Cl11  Cl    Cl    0.293235 0.058419 0.797687 -0.645343
Cl12  Cl    Cl    0.307258 0.063503 0.932910 -0.706273
Cl13  Cl    Cl    0.059762 0.294202 0.798225 -0.640980
Cl14  Cl    Cl    0.209681 0.466985 0.297849 -0.651136
Cl15  Cl    Cl    0.427020 0.198992 0.297867 -0.646492
Cl16  Cl    Cl    0.785427 0.526537 0.297330 -0.642434
Cl17  Cl    Cl    0.561044 0.791764 0.297634 -0.633819
Cl18  Cl    Cl    0.800370 0.440641 0.064765 -0.729630
Cl19  Cl    Cl    0.692344 0.936194 0.932094 -0.704257
Cl20  Cl    Cl    0.934619 0.692446 0.931199 -0.706460
Cl21  Cl    Cl    0.561129 0.195443 0.065904 -0.714867
Cl22  Cl    Cl    0.067599 0.309944 0.930180 -0.703507
Cl23  Cl    Cl    0.450176 0.791873 0.057492 -0.722298
Cl24  Cl    Cl    0.698782 0.058996 0.564351 -0.720215
H1    H     H_    0.341160 0.565115 0.090716 0.182709
H2    H     H_    0.682778 0.589011 0.392573 0.215004
H3    H     H_    0.744559 0.436690 0.402362 0.286280
H4    H     H_    0.777904 0.344477 0.407403 0.256314
H5    H     H_    0.681324 0.364044 0.402257 0.266130
H6    H     H_    0.673448 0.413433 0.467994 0.199076
H7    H     H_    0.765443 0.431643 0.468660 0.230880
H8    H     H_    0.412028 0.842777 0.815270 0.266923
H9    H     H_    0.451298 0.848273 0.863331 0.291249
H10   H     H_    0.357418 0.821725 0.857388 0.251671
H11   H     H_    0.366845 0.953935 0.878889 0.237079
H12   H     H_    0.324018 0.940628 0.833112 0.263245
H13   H     H_    0.167710 0.923349 0.599110 0.183318
H14   H     H_    0.850090 0.449050 0.864964 0.292789
H15   H     H_    0.838993 0.400771 0.819748 0.263595
H16   H     H_    0.827245 0.353508 0.865584 0.248460
H17   H     H_    0.942687 0.322712 0.834220 0.261515
H18   H     H_    0.958380 0.363934 0.880138 0.240722
H19   H     H_    0.587249 0.156617 0.813627 0.266434
H20   H     H_    0.549447 0.153105 0.862251 0.290322
H21   H     H_    0.643326 0.178740 0.854694 0.252921
H22   H     H_    0.631837 0.046998 0.878526 0.237998
H23   H     H_    0.675647 0.058399 0.832699 0.260392
H24   H     H_    0.299464 0.394113 0.382230 0.227542
H25   H     H_    0.149862 0.551375 0.864800 0.292577
H26   H     H_    0.161451 0.599440 0.819307 0.263174
H27   H     H_    0.172493 0.646959 0.864856 0.249145
H28   H     H_    0.057489 0.677327 0.833137 0.261606
H29   H     H_    0.041093 0.636457 0.879340 0.241172
H30   H     H_    0.921936 0.326177 0.318866 0.259609
H31   H     H_    0.970313 0.342866 0.363565 0.291912
H32   H     H_    0.879263 0.306193 0.365061 0.244943
H33   H     H_    0.871409 0.437988 0.380739 0.234036
H34   H     H_    0.830376 0.417336 0.335395 0.259509
H35   H     H_    0.392136 0.300339 0.381799 0.224701
H36   H     H_    0.350406 0.941570 0.366255 0.291906
H37   H     H_    0.339993 0.891241 0.321583 0.264208
H38   H     H_    0.330786 0.845330 0.367978 0.248250
H39   H     H_    0.446892 0.817075 0.336663 0.264439
H40   H     H_    0.461564 0.861708 0.381718 0.241168
H41   H     H_    0.066083 0.669045 0.314502 0.262855
H42   H     H_    0.025824 0.656297 0.362007 0.292554
H43   H     H_    0.115906 0.694550 0.357403 0.248863
H44   H     H_    0.125384 0.562063 0.377272 0.234644
H45   H     H_    0.163625 0.581988 0.330766 0.259161
H46   H     H_    0.080870 0.824642 0.603144 0.181489
H47   H     H_    0.647182 0.053009 0.363142 0.291768
H48   H     H_    0.651621 0.086762 0.313739 0.267817
H49   H     H_    0.670318 0.146816 0.353681 0.252220
H50   H     H_    0.551036 0.173535 0.328628 0.261043
H51   H     H_    0.537722 0.134800 0.375692 0.240733
H52   H     H_    0.204487 0.577584 0.177744 0.263926
H53   H     H_    0.253395 0.577073 0.223439 0.276558
H54   H     H_    0.292379 0.533673 0.181078 0.247844
H55   H     H_    0.197027 0.438056 0.182412 0.184209
H56   H     H_    0.243194 0.440853 0.226420 0.263434
H57   H     H_    0.588621 0.681383 0.393013 0.215722
H58   H     H_    0.523529 0.262163 0.223730 0.281189
H59   H     H_    0.533744 0.214674 0.177951 0.264969
H60   H     H_    0.473532 0.292322 0.181355 0.245272
H61   H     H_    0.398460 0.180012 0.182293 0.185392
H62   H     H_    0.391905 0.225474 0.226427 0.262829
H63   H     H_    0.799773 0.413458 0.174896 0.268778
H64   H     H_    0.749039 0.406534 0.219984 0.274225
H65   H     H_    0.709137 0.451251 0.178181 0.246931
H66   H     H_    0.749446 0.542097 0.226059 0.266171
H67   H     H_    0.797634 0.553086 0.182859 0.187210
H68   H     H_    0.924235 0.167401 0.598002 0.176894
H69   H     H_    0.443873 0.738573 0.217740 0.273633
H70   H     H_    0.447124 0.790930 0.173051 0.267813
H71   H     H_    0.496159 0.705887 0.176713 0.248687
H72   H     H_    0.585367 0.806623 0.183999 0.184433
H73   H     H_    0.577247 0.756032 0.226683 0.267356
H74   H     H_    0.706645 0.844074 0.723598 0.301019
H75   H     H_    0.663482 0.864020 0.677514 0.251209
H76   H     H_    0.761454 0.868974 0.681929 0.240780
H77   H     H_    0.751457 0.972984 0.727118 0.254331
H78   H     H_    0.711422 0.995247 0.682658 0.192583
H79   H     H_    0.114224 0.496896 0.150542 0.165440
H80   H     H_    0.050439 0.760897 0.720600 0.276460
H81   H     H_    0.052858 0.710580 0.675429 0.271197
H82   H     H_    0.000948 0.793979 0.678674 0.245170
H83   H     H_    0.914680 0.690135 0.682818 0.187314
H84   H     H_    0.916473 0.738362 0.726175 0.265438
H85   H     H_    0.291884 0.945250 0.675445 0.265599
H86   H     H_    0.241196 0.945342 0.720689 0.275722
H87   H     H_    0.206960 0.994557 0.678873 0.247019
H88   H     H_    0.259427 0.079753 0.726410 0.265796
H89   H     H_    0.308079 0.083936 0.683055 0.182797
H90   H     H_    0.472529 0.110251 0.150657 0.160904
H91   H     H_    0.950421 0.238682 0.722147 0.276664
H92   H     H_    0.947366 0.288990 0.676754 0.268552
H93   H     H_    0.999804 0.205900 0.680122 0.246220
H94   H     H_    0.085461 0.310220 0.683334 0.187391
H95   H     H_    0.084275 0.262090 0.726957 0.265331
H96   H     H_    0.883814 0.500463 0.150117 0.162947
H97   H     H_    0.196853 0.102287 0.884925 0.222983
H98   H     H_    0.524051 0.885526 0.150191 0.158488
H99   H     H_    0.612791 0.976491 0.650276 0.158287
H100  H     H_    0.980359 0.613587 0.650299 0.164838
H101  H     H_    0.386603 0.020886 0.650255 0.158857
H102  H     H_    0.019238 0.386423 0.650765 0.161859
H103  H     H_    0.035529 0.771555 0.006695 0.283402
H104  H     H_    0.077254 0.858636 0.997206 0.239063
H105  H     H_    0.008409 0.824267 0.964832 0.264782
H106  H     H_    0.122222 0.802501 0.931348 0.220798
H107  H     H_    0.091537 0.718523 0.947550 0.216854
H108  H     H_    0.669844 0.420965 0.100609 0.182655
H109  H     H_    0.449883 0.285882 0.018153 0.282882
H110  H     H_    0.393794 0.359846 0.035523 0.245599
H111  H     H_    0.459130 0.318171 0.067599 0.263238
H112  H     H_    0.343766 0.265796 0.087213 0.211163
H113  H     H_    0.391288 0.198628 0.062419 0.223907
H114  H     H_    0.965340 0.230849 0.001166 0.282829
H115  H     H_    0.922108 0.144294 0.992637 0.240296
H116  H     H_    0.988417 0.178832 0.958517 0.266252
H117  H     H_    0.873266 0.203258 0.927826 0.221437
H118  H     H_    0.904322 0.286568 0.944468 0.214630
H119  H     H_    0.801704 0.896386 0.883505 0.223909
H120  H     H_    0.752192 0.798421 0.102707 0.259130
H121  H     H_    0.701796 0.875010 0.084415 0.283435
H122  H     H_    0.664902 0.821598 0.123766 0.234703
H123  H     H_    0.603607 0.792489 0.060398 0.230455
H124  H     H_    0.643807 0.717514 0.082652 0.211651
H125  H     H_    0.796065 0.588079 0.107818 0.262560
H126  H     H_    0.840837 0.668415 0.089150 0.273025
H127  H     H_    0.754515 0.675329 0.114705 0.249345
H128  H     H_    0.688206 0.618272 0.061121 0.198935
H129  H     H_    0.766786 0.582584 0.041322 0.232951
H130  H     H_    0.895191 0.803410 0.883395 0.226742
H131  H     H_    0.680329 0.136021 0.917359 0.273837
H132  H     H_    0.764049 0.176300 0.900466 0.249010
H133  H     H_    0.752494 0.078917 0.897646 0.285355
H134  H     H_    0.828823 0.101482 0.954151 0.224975
H135  H     H_    0.744650 0.070094 0.970063 0.234609
H136  H     H_    0.139075 0.302085 0.088366 0.281316
H137  H     H_    0.223093 0.266643 0.108071 0.247638
H138  H     H_    0.191282 0.356003 0.122011 0.244911
H139  H     H_    0.290680 0.371230 0.074056 0.220451
H140  H     H_    0.208918 0.402710 0.055494 0.236553
H141  H     H_    0.578280 0.326479 0.101318 0.178517
H142  H     H_    0.315598 0.868253 0.918618 0.270701
H143  H     H_    0.230640 0.830391 0.902374 0.249013
H144  H     H_    0.243875 0.927644 0.900451 0.288108
H145  H     H_    0.168812 0.902284 0.957780 0.224220
H146  H     H_    0.253623 0.932499 0.972888 0.236943
H147  H     H_    0.674574 0.239666 0.404512 0.256442
H148  H     H_    0.613365 0.171739 0.423059 0.273121
H149  H     H_    0.577488 0.251384 0.398515 0.277275
H150  H     H_    0.567228 0.250545 0.473834 0.227913
H151  H     H_    0.601035 0.328282 0.451529 0.216176
H152  H     H_    0.105092 0.196930 0.883830 0.226998
H153  H     H_    0.960663 0.772982 0.510123 0.283724
H154  H     H_    0.910449 0.855464 0.520034 0.244193
H155  H     H_    0.973343 0.820538 0.555558 0.263049
H156  H     H_    0.857190 0.782687 0.580759 0.212437
H157  H     H_    0.895378 0.704945 0.560527 0.219941
H158  H     H_    0.461161 0.724557 0.504148 0.282565
H159  H     H_    0.415966 0.639891 0.493204 0.241254
H160  H     H_    0.486427 0.673620 0.461388 0.263406
H161  H     H_    0.374723 0.703393 0.428283 0.221000
H162  H     H_    0.407458 0.784692 0.446510 0.219225
H163  H     H_    0.435646 0.656876 0.089217 0.182833
H164  H     H_    0.052732 0.210460 0.521585 0.283411
H165  H     H_    0.111265 0.139557 0.540334 0.247037
H166  H     H_    0.045684 0.181971 0.571979 0.262059
H167  H     H_    0.160013 0.239107 0.588855 0.210055
H168  H     H_    0.109455 0.302613 0.562862 0.224752
H169  H     H_    0.365560 0.207651 0.586921 0.282772
H170  H     H_    0.281872 0.241801 0.607750 0.248972
H171  H     H_    0.317652 0.154605 0.623060 0.241286
H172  H     H_    0.214947 0.133832 0.577887 0.221334
H173  H     H_    0.296162 0.101996 0.558730 0.236775
H174  H     H_    0.832328 0.073410 0.597143 0.183474
H175  H     H_    0.179404 0.651138 0.413886 0.269676
H176  H     H_    0.266617 0.685791 0.398869 0.249718
H177  H     H_    0.247425 0.590117 0.393225 0.285374
H178  H     H_    0.323853 0.602316 0.451273 0.225250
H179  H     H_    0.237289 0.573682 0.464674 0.233841
H180  H     H_    0.658044 0.844572 0.586230 0.280283
H181  H     H_    0.740959 0.807709 0.606528 0.247789
H182  H     H_    0.720972 0.903797 0.610752 0.268031
H183  H     H_    0.813372 0.887735 0.559617 0.220572
H184  H     H_    0.733623 0.921226 0.539771 0.237630
O1    O     O_3   0.000000 0.500000 0.999990 -0.484811
O2    O     O_R   0.000000 0.560750 0.412560 -0.621534
O3    O     O_R   0.439250 0.000000 0.412560 -0.619391
O4    O     O_R   0.000000 0.439250 0.412560 -0.620524
O5    O     O_R   1.000000 0.560690 0.087420 -0.622040
O6    O     O_R   0.439310 0.000000 0.087420 -0.626796
O7    O     O_R   1.000000 0.439310 0.087420 -0.618606
O8    O     O_R   0.560690 0.000000 0.087420 -0.616279
O9    O     O_R   0.500000 0.060690 0.587420 -0.615573
O10   O     O_R   0.939310 0.500000 0.587420 -0.618798
O11   O     O_R   0.500000 0.939310 0.587420 -0.628119
O12   O     O_3   0.500000 0.000000 0.999990 -0.483805
O13   O     O_R   0.060690 0.500000 0.587420 -0.614254
O14   O     O_R   0.853830 0.585440 0.977070 -0.598786
O15   O     O_R   0.414560 0.853830 0.977070 -0.619809
O16   O     O_R   0.146170 0.414560 0.977070 -0.589494
O17   O     O_R   0.585440 0.146170 0.977070 -0.633264
O18   O     O_R   0.146170 0.585440 0.977070 -0.631674
O19   O     O_R   0.585440 0.853830 0.977070 -0.587049
O20   O     O_R   0.853830 0.414560 0.977070 -0.635918
O21   O     O_R   0.414560 0.146170 0.977070 -0.593586
O22   O     O_R   0.353830 0.085440 0.477070 -0.587643
O23   O     O_3   0.500000 0.000000 0.499990 -0.484485
O24   O     O_R   0.914560 0.353830 0.477070 -0.625416
O25   O     O_R   0.646170 0.914560 0.477070 -0.600008
O26   O     O_R   0.085440 0.646170 0.477070 -0.638562
O27   O     O_R   0.646170 0.085440 0.477070 -0.633905
O28   O     O_R   0.085440 0.353830 0.477070 -0.593905
O29   O     O_R   0.353830 0.914560 0.477070 -0.626729
O30   O     O_R   0.914560 0.646170 0.477070 -0.597160
O31   O     O_R   0.085460 0.353830 0.022910 -0.645398
O32   O     O_R   0.646170 0.085460 0.022910 -0.608682
O33   O     O_R   0.914540 0.646170 0.022910 -0.638367
O34   O     O_3   1.000000 0.500000 0.499990 -0.485703
O35   O     O_R   0.353830 0.914540 0.022910 -0.619174
O36   O     O_R   0.914540 0.353830 0.022910 -0.609388
O37   O     O_R   0.353830 0.085460 0.022910 -0.644203
O38   O     O_R   0.085460 0.646170 0.022910 -0.611857
O39   O     O_R   0.646170 0.914540 0.022910 -0.643480
O40   O     O_R   0.585460 0.853830 0.522910 -0.640302
O41   O     O_R   0.146170 0.585460 0.522910 -0.602452
O42   O     O_R   0.414540 0.146170 0.522910 -0.640949
O43   O     O_R   0.853830 0.414540 0.522910 -0.612040
O44   O     O_R   0.414540 0.853830 0.522910 -0.614472
O45   O     O_R   0.060750 0.500000 0.912560 -0.619682
O46   O     O_R   0.853830 0.585460 0.522910 -0.645247
O47   O     O_R   0.585460 0.146170 0.522910 -0.611903
O48   O     O_R   0.146170 0.414540 0.522910 -0.644085
O49   O     O_R   0.500000 0.060750 0.912560 -0.621739
O50   O     O_R   0.939250 0.500000 0.912560 -0.620900
O51   O     O_R   0.500000 0.939250 0.912560 -0.620495
O52   O     O_R   0.560750 0.000000 0.412560 -0.624094
Zn1   Zn    Zn3+2 1.000000 0.586740 0.032740 1.046250
Zn2   Zn    Zn3+2 0.500000 0.913250 0.967240 1.068820
Zn3   Zn    Zn3+2 0.086750 0.500000 0.967240 1.063407
Zn4   Zn    Zn3+2 0.500000 0.086750 0.967240 1.058262
Zn5   Zn    Zn3+2 0.413250 0.000000 0.467240 1.065952
Zn6   Zn    Zn3+2 0.000000 0.413250 0.467240 1.059940
Zn7   Zn    Zn3+2 0.586750 0.000000 0.467240 1.055045
Zn8   Zn    Zn3+2 1.000000 0.586750 0.467240 1.051151
Zn9   Zn    Zn3+2 0.413260 0.000000 0.032740 1.051555
Zn10  Zn    Zn3+2 1.000000 0.413260 0.032740 1.046333
Zn11  Zn    Zn3+2 0.586740 0.000000 0.032740 1.052383
Zn12  Zn    Zn3+2 0.500000 0.086740 0.532740 1.052389
Zn13  Zn    Zn3+2 0.913260 0.500000 0.532740 1.054623
Zn14  Zn    Zn3+2 0.500000 0.913260 0.532740 1.045783
Zn15  Zn    Zn3+2 0.086740 0.500000 0.532740 1.059803
Zn16  Zn    Zn3+2 0.913250 0.500000 0.967240 1.057984

loop_
_geom_bond_atom_site_label_1
_geom_bond_atom_site_label_2
_ccdc_geom_bond_type
C64   C103  S    
C13   C79   A    
C126  C127  S    
C219  Cl22  S    
C150  Cl13  S    
C133  H54   S    
O4    Zn6   S    
C81   H112  S    
C1    O50   A    
O3    Zn5   S    
O25   Zn7   S    
C181  C187  A    
C185  C190  A    
C170  C176  A    
C68   C75   A    
C150  C163  A    
C88   H125  S    
C149  H93   S    
C137  C158  S    
C85   H124  S    
O24   Zn6   S    
C119  H23   S    
C13   C70   A    
C201  O39   A    
C143  C144  S    
C92   H140  S    
C220  Cl23  S    
C90   C176  A    
C195  O33   A    
C132  C155  S    
C214  Cl12  S    
C2    C90   A    
O28   Zn6   S    
C36   C53   A    
C191  O5    A    
C38   C55   A    
C149  H92   S    
C102  H159  S    
C167  C200  S    
O35   Zn9   S    
C33   C221  A    
C121  H28   S    
C151  C155  A    
C48   C65   A    
C210  O29   A    
C122  H27   S    
C147  H87   S    
C27   C50   A    
C10   C224  A    
C25   C34   A    
C87   H129  S    
C74   C123  S    
C221  Cl24  S    
C139  C159  S    
C8    C16   A    
C9    H2    S    
C185  H102  S    
C208  O27   A    
C213  Cl1   S    
C167  O4    A    
C54   C83   S    
C184  H101  S    
C128  H44   S    
C126  H40   S    
C108  H176  S    
C40   C58   A    
C208  O47   A    
C110  H182  S    
C117  H17   S    
C47   C64   A    
C97   H149  S    
O12   Zn2   S    
C130  H50   S    
C39   C195  S    
C177  C186  A    
C24   C90   A    
C12   H35   S    
C116  H8    S    
C79   C175  A    
C131  H48   S    
C39   C56   A    
C21   C216  A    
C164  C173  A    
C14   H46   S    
O48   Zn15  S    
C163  C172  A    
C202  O20   A    
C80   H104  S    
C124  C222  A    
C197  O16   A    
C73   C121  S    
C157  C165  A    
C11   H24   S    
C145  H89   S    
C115  H12   S    
C43   C61   A    
C79   C222  A    
C112  C178  S    
O12   Zn4   S    
O36   Zn10  S    
C152  C157  A    
C43   C208  S    
C207  O41   A    
C144  H80   S    
C99   H155  S    
C46   C77   A    
C134  C136  S    
C139  C140  S    
C16   H68   S    
C70   C115  S    
C197  O31   A    
C180  C186  A    
C75   C126  S    
C6    H152  S    
O29   Zn5   S    
C130  C131  S    
C9    C15   A    
O26   Zn8   S    
C103  H168  S    
O1    Zn16  S    
O2    Zn8   S    
C128  H45   S    
O37   Zn9   S    
C124  C160  A    
C129  H41   S    
C106  H169  S    
C122  H25   S    
C182  H99   S    
O20   Zn16  S    
C20   C21   A    
O31   Zn10  S    
C168  C181  A    
O7    Zn10  S    
C140  H70   S    
C141  H78   S    
C91   H132  S    
C51   C69   A    
C114  H4    S    
C167  O2    A    
C143  C161  S    
C138  H64   S    
C7    C230  A    
C57   C74   A    
C125  H31   S    
C143  H84   S    
C181  H98   S    
C20   C217  A    
C101  C173  A    
O47   Zn12  S    
C72   C178  A    
C66   C107  S    
C128  C129  S    
C196  O35   A    
C151  Cl14  S    
C61   C96   S    
C85   C86   S    
O32   Zn11  S    
C168  C174  A    
O8    Zn11  S    
C131  H47   S    
C224  Cl3   S    
C212  O30   A    
C84   H115  S    
C193  O9    A    
C78   C80   S    
C204  O42   A    
C115  C116  S    
C153  Cl16  S    
C16   C229  A    
C106  H171  S    
C205  O24   A    
C153  C158  A    
C123  H34   S    
C152  Cl15  S    
C52   C60   A    
O9    Zn12  S    
C21   C38   A    
C44   C62   A    
C10   H13   S    
C135  Cl10  S    
C37   C202  S    
C89   C91   S    
C114  H3    S    
C127  H37   S    
O23   Zn14  S    
C226  Cl5   S    
C22   C215  A    
C156  C211  S    
C135  C161  A    
C206  O25   A    
C29   C226  A    
C99   H153  S    
C134  H61   S    
C65   C105  S    
C58   C89   S    
C120  H20   S    
C118  H16   S    
C136  H59   S    
C169  C182  A    
C35   C76   A    
C93   H137  S    
C49   C66   A    
C71   C117  S    
C104  H166  S    
C215  C232  A    
C1    O45   A    
C41   C197  S    
C10   C14   A    
C81   H113  S    
C165  C174  A    
C227  Cl6   S    
C129  H43   S    
C29   C30   A    
C105  H172  S    
O23   Zn7   S    
C28   C49   A    
C26   C33   A    
C12   C226  A    
C83   C84   S    
C230  H1    S    
C172  C185  A    
C93   H136  S    
C198  O32   A    
C182  C188  A    
C187  C192  S    
C2    C73   A    
C24   C150  A    
C7    C220  A    
C82   H110  S    
C83   H118  S    
C217  Cl20  S    
C188  C193  S    
C23   C36   A    
O34   Zn8   S    
C47   C209  S    
C165  C179  A    
C166  C180  A    
C161  C170  A    
C3    C4    A    
O46   Zn13  S    
C50   C206  S    
C203  O37   A    
C139  H73   S    
O6    Zn9   S    
C88   H126  S    
C46   C113  A    
C225  Cl4   S    
C193  O11   A    
C207  O26   A    
C51   C205  S    
C100  H161  S    
C57   C101  A    
C48   C204  S    
C2    C135  A    
C78   H106  S    
C94   H145  S    
C95   H144  S    
C117  C118  S    
C15   H57   S    
C120  H21   S    
C40   C198  S    
C216  Cl19  S    
C132  H55   S    
C19   C40   A    
C31   C224  A    
C232  H108  S    
C149  H91   S    
C102  H160  S    
C124  Cl9   S    
C96   H151  S    
C80   H105  S    
C172  C176  A    
C113  C174  A    
C118  H14   S    
C1    C189  S    
C55   C56   A    
C99   H154  S    
C212  O46   A    
C5    H141  S    
C91   H133  S    
O5    Zn1   S    
C86   H121  S    
C146  C162  A    
C75   C211  A    
O17   Zn4   S    
C109  H184  S    
C144  H81   S    
C204  O22   A    
O23   Zn5   S    
C107  H178  S    
C54   C58   A    
C170  C183  A    
C97   H148  S    
C123  C125  S    
C179  C187  A    
C130  H51   S    
C214  C231  A    
C202  O36   A    
C98   C99   S    
O30   Zn8   S    
C156  O3    A    
C186  C191  S    
C17   C42   A    
C84   H114  S    
C89   H134  S    
O1    Zn1   S    
C106  H170  S    
C160  C169  A    
C205  O43   A    
C36   C203  S    
C110  H180  S    
O45   Zn3   S    
C68   C113  A    
O43   Zn13  S    
C147  H86   S    
C131  H49   S    
C63   C66   A    
O41   Zn15  S    
O23   Zn12  S    
C35   C151  A    
C198  O17   A    
C52   C78   S    
C28   C227  A    
C133  H53   S    
C145  C147  S    
C115  H11   S    
C85   H123  S    
C26   C229  A    
C140  H71   S    
C142  H74   S    
C171  C184  A    
C95   H142  S    
C20   C39   A    
C136  H58   S    
C3    C216  A    
C22   C37   A    
C57   C153  A    
C55   C85   S    
C192  O6    A    
C111  H6    S    
C103  H167  S    
C201  O19   A    
C223  Cl2   S    
C5    C218  A    
C11   C225  A    
C102  H158  S    
C137  H67   S    
C169  C175  A    
C5    C232  A    
C19   C218  A    
C121  H29   S    
C71   C189  A    
C42   C196  S    
C122  H26   S    
C121  C122  S    
C127  H36   S    
C17   C220  A    
C76   C128  S    
O51   Zn2   S    
C8    H174  S    
C194  O13   A    
C91   H131  S    
C112  O49   A    
O15   Zn2   S    
O18   Zn3   S    
C32   C223  A    
C158  C166  A    
C126  H39   S    
C125  H30   S    
C166  C173  A    
C143  H83   S    
C194  O10   A    
C27   C32   A    
O49   Zn4   S    
C28   C31   A    
O50   Zn16  S    
C177  H79   S    
C110  H181  S    
C206  O40   A    
C117  H18   S    
C35   C101  A    
C199  O18   A    
C119  C120  S    
O42   Zn12  S    
C105  C106  S    
C34   C52   A    
C15   C228  A    
C195  O14   A    
C64   C65   A    
O16   Zn3   S    
C84   H116  S    
C109  C110  S    
C92   H139  S    
O1    Zn3   S    
C92   C93   S    
C148  H95   S    
C111  C114  S    
C77   C130  S    
O34   Zn6   S    
C94   C95   S    
C123  H33   S    
C53   C81   S    
C98   H156  S    
C80   H103  S    
C154  C159  A    
C87   C88   S    
C31   C45   A    
C138  H65   S    
C103  C104  S    
C4    H130  S    
C59   C92   S    
C26   C51   A    
C7    H163  S    
C73   C189  A    
C213  C230  A    
O1    Zn10  S    
C23   C214  A    
C46   C152  A    
C8    C221  A    
O12   Zn9   S    
C69   C111  S    
O34   Zn15  S    
C98   H157  S    
C96   H150  S    
C142  H75   S    
C134  H62   S    
C119  H22   S    
C81   C82   S    
C53   C59   A    
C133  H52   S    
C199  O38   A    
C136  H60   S    
C3    H119  S    
C62   C67   A    
C89   H135  S    
O52   Zn7   S    
C192  O8    A    
C114  H5    S    
C180  H96   S    
C68   C154  A    
C27   C228  A    
C145  C162  S    
O13   Zn15  S    
O11   Zn14  S    
C129  H42   S    
C159  C168  A    
C107  H179  S    
C62   C98   S    
C210  O44   A    
C34   C199  S    
C67   C109  S    
C49   C207  S    
C132  C133  S    
O19   Zn2   S    
C38   C201  S    
C146  Cl11  S    
C104  H164  S    
C215  Cl18  S    
C140  H69   S    
C231  H97   S    
C112  O51   A    
C95   H143  S    
C138  H63   S    
O40   Zn14  S    
C82   H111  S    
C83   H117  S    
C125  H32   S    
C6    C231  A    
C30   C225  A    
C25   C213  A    
C13   C146  A    
C156  O52   A    
C18   C219  A    
C108  H177  S    
O44   Zn14  S    
C179  H90   S    
O10   Zn13  S    
C29   C48   A    
C18   C23   A    
C33   C43   A    
O27   Zn7   S    
C30   C47   A    
C19   C22   A    
C148  C149  S    
C41   C59   A    
C228  Cl7   S    
C116  H9    S    
C76   C200  A    
C18   C41   A    
C42   C60   A    
C77   C211  A    
C137  H66   S    
C70   C178  A    
C56   C87   S    
C86   H120  S    
O39   Zn11  S    
C171  C175  A    
C45   C63   A    
C184  C188  A    
C44   C212  S    
C183  H100  S    
C94   H146  S    
O21   Zn4   S    
C100  H162  S    
C63   C100  S    
C203  O21   A    
C9    C223  A    
C141  C160  S    
C107  C108  S    
C72   C222  A    
C96   C97   S    
C100  C102  S    
C32   C44   A    
C132  H56   S    
C229  Cl8   S    
C111  H7    S    
C127  H38   S    
C191  O7    A    
C37   C54   A    
O12   Zn11  S    
O34   Zn13  S    
O22   Zn5   S    
C145  H88   S    
C108  H175  S    
O33   Zn1   S    
C209  O28   A    
C120  H19   S    
C118  H15   S    
C50   C67   A    
C61   C69   A    
C139  H72   S    
C93   H138  S    
C104  H165  S    
C148  C163  S    
C74   C200  A    
C17   C25   A    
C86   H122  S    
C11   C12   A    
C154  Cl17  S    
C155  C164  A    
C88   H127  S    
C137  C138  S    
O38   Zn1   S    
C45   C210  S    
C109  H183  S    
C144  H82   S    
C14   C227  A    
C105  H173  S    
C141  C142  S    
C97   H147  S    
C116  H10   S    
C142  H76   S    
C196  O15   A    
C72   C119  S    
C87   H128  S    
C218  Cl21  S    
C141  H77   S    
C183  C190  A    
C190  C194  S    
C6    C219  A    
C82   H109  S    
O14   Zn16  S    
C162  C171  A    
C134  C157  S    
C4    C217  A    
C148  H94   S    
C164  C177  A    
C24   C71   A    
C60   C94   S    
C78   H107  S    
C147  H85   S    
C209  O48   A    
