data_mof_unit_32052.cif
_audit_creation_date              2012-12-10T16:49:22-0500
_audit_creation_method            fapswitch 2.2
_symmetry_space_group_name_H-M    P1
_symmetry_Int_Tables_number       1
_space_group_crystal_system       triclinic
_cell_length_a                    19.329342
_cell_length_b                    8.68714
_cell_length_c                    7.489822
_cell_angle_alpha                 103.364913
_cell_angle_beta                  94.65095
_cell_angle_gamma                 93.103082
_cell_volume                      1216.12764939

loop_
_atom_site_label
_atom_site_type_symbol
_atom_type_description
_atom_site_fract_x
_atom_site_fract_y
_atom_site_fract_z
_atom_type_partial_charge
C1    C     C_R   0.497794 0.199647 0.452933 0.881258
C2    C     C_R   0.502206 0.800353 0.547067 0.881258
C3    C     C_2   0.496608 0.031332 0.426936 -0.366196
C4    C     C_2   0.503392 0.968668 0.573064 -0.366196
C5    C     C_R   0.367591 0.499764 0.501749 0.790759
C6    C     C_R   0.632409 0.500236 0.498251 0.790758
C7    C     C_R   0.262153 0.516126 0.673726 -0.153334
C8    C     C_R   0.737847 0.483875 0.326274 -0.153333
C9    C     C_R   0.190170 0.515964 0.679432 0.164208
C10   C     C_R   0.809829 0.484037 0.320568 0.164208
C11   C     C_R   0.146555 0.500143 0.513628 0.012307
C12   C     C_R   0.853445 0.499857 0.486372 0.012307
C13   C     C_R   0.176719 0.485270 0.346722 -0.174211
C14   C     C_R   0.823281 0.514729 0.653277 -0.174211
C15   C     C_R   0.248443 0.484749 0.342673 -0.178478
C16   C     C_R   0.751557 0.515251 0.657327 -0.178479
C17   C     C_R   0.291761 0.500066 0.506048 -0.089411
C18   C     C_R   0.708239 0.499934 0.493952 -0.089411
C19   C     C_R   0.929676 0.498405 0.491103 0.407157
C20   C     C_R   0.070324 0.501595 0.508897 0.407157
Cu1   Cu    Cu3+1 0.507710 0.517380 0.684380 0.975803
Cu2   Cu    Cu3+1 0.492290 0.482620 0.315620 0.975803
H1    H     H_    0.294876 0.529441 0.801627 0.160567
H2    H     H_    0.705124 0.470560 0.198373 0.160567
H3    H     H_    0.144571 0.472410 0.218081 0.168733
H4    H     H_    0.855429 0.527589 0.781919 0.168733
H5    H     H_    0.269843 0.472360 0.211248 0.164529
H6    H     H_    0.730157 0.527639 0.788752 0.164529
H7    H     H_    0.490078 0.958724 0.286576 0.174552
H8    H     H_    0.509922 0.041276 0.713424 0.174552
N1    N     N_R   0.034262 0.560824 0.380045 -0.230806
N2    N     N_R   0.965738 0.439176 0.619955 -0.230806
N3    N     N_R   0.965292 0.559878 0.371899 -0.244793
N4    N     N_R   0.034708 0.440123 0.628101 -0.244793
N5    N     N_2   0.480680 0.456420 0.038530 0.001589
N6    N     N_2   0.519320 0.543580 0.961470 0.001589
O1    O     O_R   0.505010 0.286130 0.619770 -0.557524
O2    O     O_R   0.494990 0.713870 0.380230 -0.557524
O3    O     O_R   0.491990 0.256780 0.308370 -0.598719
O4    O     O_R   0.508010 0.743220 0.691630 -0.598719
O5    O     O_R   0.406650 0.514660 0.655750 -0.568627
O6    O     O_R   0.593350 0.485340 0.344250 -0.568626
O7    O     O_R   0.393640 0.485310 0.344340 -0.597394
O8    O     O_R   0.606360 0.514690 0.655660 -0.597394
N7    N     N_3   0.163614 0.537129 0.855906 -0.613125
H9    H     H_    0.134714 0.433240 0.860573 0.239801
H10   H     H_    0.131538 0.631552 0.873496 0.239789
N8    N     N_3   0.836386 0.462873 0.144094 -0.613126
H11   H     H_    0.865286 0.566762 0.139428 0.239801
H12   H     H_    0.868462 0.368449 0.126504 0.239790
N9    N     N_3   0.430307 0.352873 0.922650 -0.413050
H13   H     H_    0.438545 0.239547 0.941250 0.203690
H14   H     H_    0.382333 0.381722 0.970815 0.200926
N10   N     N_3   0.569693 0.647127 0.077350 -0.413050
H15   H     H_    0.561454 0.760453 0.058750 0.203690
H16   H     H_    0.617667 0.618278 0.029185 0.200926

loop_
_geom_bond_atom_site_label_1
_geom_bond_atom_site_label_2
_ccdc_geom_bond_type
C16   H6    S    
C2    C4    S    
N1    N3    A    
C9    N7    S    
C8    C18   A    
Cu1   O8    S    
C11   C13   A    
C2    O2    A    
C15   H5    S    
Cu2   O7    S    
C1    O1    A    
C20   N4    A    
Cu1   Cu2   S    
N8    H12   S    
C5    O7    A    
Cu1   O1    S    
N9    H13   S    
Cu1   N6    S    
C6    O8    A    
N7    H9    S    
C14   H4    S    
N5    N9    S    
Cu2   N5    S    
C9    C11   A    
C13   H3    S    
Cu2   O6    S    
Cu1   O4    S    
C10   C12   A    
C7    H1    S    
C19   N2    A    
C12   C19   S    
C8    C10   A    
N8    H11   S    
C8    H2    S    
C12   C14   A    
N10   H16   S    
C13   C15   A    
C10   N8    S    
C6    C18   S    
C14   C16   A    
C11   C20   S    
N6    N10   S    
Cu2   O3    S    
C3    C4    D    
Cu2   O2    S    
C2    O4    A    
C3    H7    S    
C5    C17   S    
C16   C18   A    
Cu1   O5    S    
N7    H10   S    
C1    C3    S    
C7    C9    A    
C1    O3    A    
N10   H15   S    
C5    O5    A    
N9    H14   S    
C15   C17   A    
C6    O6    A    
C4    H8    S    
N5    N6    D    
C19   N3    A    
C7    C17   A    
C20   N1    A    
N2    N4    A    
