data_mof_unit_54298.cif
_audit_creation_date              2012-12-10T17:31:26-0500
_audit_creation_method            fapswitch 2.2
_symmetry_space_group_name_H-M    P1
_symmetry_Int_Tables_number       1
_space_group_crystal_system       triclinic
_cell_length_a                    19.453168
_cell_length_b                    18.333662
_cell_length_c                    12.320654
_cell_angle_alpha                 90.338125
_cell_angle_beta                  129.208823
_cell_angle_gamma                 90.449526
_cell_volume                      3404.34310532

loop_
_atom_site_label
_atom_site_type_symbol
_atom_type_description
_atom_site_fract_x
_atom_site_fract_y
_atom_site_fract_z
_atom_type_partial_charge
C1    C     C_R   0.616727 0.903256 0.660204 0.951107
C2    C     C_R   0.607227 0.105418 0.647349 0.852649
C3    C     C_R   0.116113 0.402254 0.659367 0.922801
C4    C     C_R   0.106972 0.605434 0.647087 0.841082
C5    C     C_R   0.219064 0.789872 0.011705 -0.131757
C6    C     C_R   0.270686 0.256024 0.087863 -0.122294
C7    C     C_R   0.724663 0.284244 0.021959 -0.122374
C8    C     C_R   0.758614 0.747320 0.072494 -0.122937
C9    C     C_R   0.662179 0.262458 0.039360 -0.293988
C10   C     C_R   0.672316 0.727706 0.025077 -0.317393
C11   C     C_R   0.156634 0.768544 0.030013 -0.301246
C12   C     C_R   0.189505 0.249513 0.063444 -0.323237
C13   C     C_R   0.584306 0.223832 0.929359 0.420930
C14   C     C_R   0.597026 0.748061 0.890224 0.476727
C15   C     C_R   0.079427 0.728783 0.921565 0.436502
C16   C     C_R   0.109889 0.268253 0.932969 0.457599
C17   C     C_R   0.575071 0.202148 0.810739 0.510035
C18   C     C_R   0.607971 0.781468 0.800920 0.530008
C19   C     C_R   0.071678 0.703427 0.806315 0.510102
C20   C     C_R   0.112528 0.291952 0.828026 0.539967
C21   C     C_R   0.302729 0.819207 0.126768 0.434700
C22   C     C_R   0.343277 0.212760 0.193948 0.447859
C23   C     C_R   0.808952 0.310871 0.138299 0.437787
C24   C     C_R   0.833255 0.708953 0.187220 0.446180
C25   C     C_R   0.248435 0.829284 0.257984 0.473911
C26   C     C_R   0.258023 0.175874 0.268133 0.494771
C27   C     C_R   0.753926 0.323522 0.267238 0.495426
C28   C     C_R   0.736375 0.647118 0.221075 0.460431
C29   C     C_R   0.653466 0.176761 0.712610 -0.161520
C30   C     C_R   0.696149 0.864168 0.773689 -0.153952
C31   C     C_R   0.150628 0.677803 0.708827 -0.164978
C32   C     C_R   0.195679 0.362343 0.771960 -0.154590
C33   C     C_R   0.682770 0.004603 0.289005 0.514076
C34   C     C_R   0.182842 0.509521 0.289465 0.506809
C35   C     C_R   0.345552 0.999516 0.628619 0.877849
C36   C     C_R   0.845635 0.499507 0.629109 0.873948
C37   C     C_R   0.313398 0.002745 0.702229 -0.325824
C38   C     C_R   0.813829 0.505138 0.702963 -0.345250
C39   C     C_R   0.389124 0.102339 0.348362 0.877877
C40   C     C_R   0.385368 0.899466 0.342705 0.924811
C41   C     C_R   0.886490 0.600009 0.344548 0.893068
C42   C     C_R   0.886789 0.398204 0.344844 0.900627
C43   C     C_R   0.372141 0.006110 0.847949 -0.246896
C44   C     C_R   0.872924 0.509481 0.848546 -0.218229
C45   C     C_R   0.464468 0.005368 0.922828 0.026631
C46   C     C_R   0.964955 0.506259 0.923065 0.027497
C47   C     C_R   0.494408 0.002977 0.842909 0.124970
C48   C     C_R   0.994708 0.503533 0.843004 0.124715
C49   C     C_R   0.527878 0.005974 0.073408 -0.108758
C50   C     C_R   0.028160 0.505839 0.073514 -0.114613
C51   C     C_R   0.620089 0.006946 0.141391 -0.052486
C52   C     C_R   0.120385 0.509058 0.141709 -0.061349
C53   C     C_R   0.647902 0.010516 0.060827 0.430219
C54   C     C_R   0.148401 0.511703 0.061220 0.428050
C55   C     C_R   0.586175 0.004721 0.915672 -0.246614
C56   C     C_R   0.086573 0.505022 0.915912 -0.257273
C57   C     C_R   0.503755 0.005075 0.160431 0.006402
C58   C     C_R   0.003664 0.501060 0.159947 0.014359
C59   C     C_R   0.653882 0.000593 0.366853 -0.022084
C60   C     C_R   0.153837 0.505313 0.367175 -0.030053
C61   C     C_R   0.679480 0.280807 0.166093 0.418596
C62   C     C_R   0.663412 0.684556 0.110089 0.444183
C63   C     C_R   0.172873 0.788077 0.155452 0.427430
C64   C     C_R   0.190085 0.221713 0.169591 0.486669
C65   C     C_R   0.311980 0.847801 0.242181 -0.307742
C66   C     C_R   0.329928 0.164269 0.269381 -0.385705
C67   C     C_R   0.816899 0.342667 0.250431 -0.308506
C68   C     C_R   0.819125 0.654597 0.253137 -0.369424
C69   C     C_R   0.708482 0.208123 0.685522 0.410269
C70   C     C_R   0.778970 0.895284 0.828310 0.391538
C71   C     C_R   0.202476 0.710690 0.676951 0.402889
C72   C     C_R   0.278237 0.386994 0.813085 0.408939
C73   C     C_R   0.237136 0.781761 0.729533 -0.359043
C74   C     C_R   0.353640 0.380767 0.953131 -0.361422
C75   C     C_R   0.749222 0.276785 0.747342 -0.332187
C76   C     C_R   0.849696 0.888184 0.970712 -0.349805
C77   C     C_R   0.233686 0.813353 0.829034 0.506005
C78   C     C_R   0.350273 0.343459 0.047785 0.497825
C79   C     C_R   0.747639 0.307013 0.849674 0.508077
C80   C     C_R   0.841747 0.845561 0.055545 0.510382
C81   C     C_R   0.708418 0.267281 0.895810 -0.013340
C82   C     C_R   0.765500 0.800448 0.995213 -0.009185
C83   C     C_R   0.201448 0.771888 0.884570 -0.008518
C84   C     C_R   0.273424 0.302949 0.999407 -0.001941
C85   C     C_R   0.644696 0.214128 0.805212 -0.237859
C86   C     C_R   0.689981 0.813921 0.854482 -0.254101
C87   C     C_R   0.140751 0.715832 0.799643 -0.240497
C88   C     C_R   0.193343 0.317619 0.863581 -0.246001
Cu1   Cu    Cu3+1 0.526340 0.000000 0.421010 0.976576
Cu2   Cu    Cu3+1 0.026340 0.500000 0.421010 0.974750
Cu3   Cu    Cu3+1 0.473640 0.000000 0.578990 1.079030
Cu4   Cu    Cu3+1 0.973640 0.500000 0.578990 1.085768
H1    H     H_    0.435803 0.008466 0.118379 0.146436
H2    H     H_    0.935339 0.497725 0.116898 0.153532
H3    H     H_    0.343502 0.009786 0.899116 0.193697
H4    H     H_    0.845265 0.517014 0.900411 0.182578
H5    H     H_    0.242571 0.003102 0.646058 0.187840
H6    H     H_    0.743097 0.506905 0.647108 0.179228
H7    H     H_    0.614299 0.001892 0.864914 0.208112
H8    H     H_    0.114633 0.501436 0.865128 0.208118
H9    H     H_    0.267691 0.813172 0.695777 0.159498
H10   H     H_    0.413354 0.410928 0.991548 0.181461
H11   H     H_    0.783129 0.307397 0.718672 0.156257
H12   H     H_    0.909040 0.921287 0.018708 0.178545
H13   H     H_    0.701315 0.999431 0.479684 0.198041
H14   H     H_    0.201171 0.507365 0.480155 0.211559
N1    N     N_R   0.566260 0.000000 0.302220 -0.234846
N2    N     N_R   0.066260 0.500000 0.302220 -0.235145
N3    N     N_R   0.434410 0.000000 0.697680 -0.250223
N4    N     N_R   0.934410 0.500000 0.697680 -0.245441
O1    O     O_R   0.608610 0.924520 0.551740 -0.563327
O2    O     O_R   0.608610 0.075480 0.551740 -0.544455
O3    O     O_R   0.108610 0.424520 0.551740 -0.564580
O4    O     O_R   0.108610 0.575480 0.551740 -0.541808
O5    O     O_R   0.564110 0.924510 0.685150 -0.608266
O6    O     O_R   0.564110 0.075490 0.685150 -0.570589
O7    O     O_R   0.064110 0.424510 0.685150 -0.597427
O8    O     O_R   0.064110 0.575490 0.685150 -0.569015
O9    O     O_R   0.435880 0.075470 0.314850 -0.597253
O10   O     O_R   0.435880 0.924530 0.314850 -0.618613
O11   O     O_R   0.935880 0.575470 0.314850 -0.590657
O12   O     O_R   0.935880 0.424530 0.314850 -0.635310
O13   O     O_R   0.391380 0.075460 0.448260 -0.447799
O14   O     O_R   0.391380 0.924540 0.448260 -0.470431
O15   O     O_R   0.891380 0.575460 0.448260 -0.457212
O16   O     O_R   0.891380 0.424540 0.448260 -0.455316
F1    F     F_    0.261117 0.847968 0.376404 -0.641151
F2    F     F_    0.251340 0.141587 0.358602 -0.579293
F3    F     F_    0.764793 0.344560 0.383171 -0.632958
F4    F     F_    0.722833 0.596387 0.285934 -0.584577
O17   O     O_3   0.736902 0.014747 0.123734 -0.587715
C89   C     C_3   0.758788 0.087555 0.119476 -0.170849
H15   H     H_    0.742116 0.125474 0.170479 0.187173
H16   H     H_    0.725868 0.104112 0.010185 0.136361
H17   H     H_    0.831415 0.091950 0.178579 0.202128
O18   O     O_3   0.237643 0.515096 0.124619 -0.575844
C90   C     C_3   0.259214 0.586730 0.113122 -0.179307
H18   H     H_    0.240972 0.627627 0.157965 0.186841
H19   H     H_    0.227353 0.599616 0.002536 0.131177
H20   H     H_    0.332021 0.591071 0.173893 0.194464
F5    F     F_    0.771536 0.005196 0.358808 -0.660931
F6    F     F_    0.271581 0.513716 0.359690 -0.648802
F7    F     F_    0.287129 0.997122 0.486819 -0.582335
F8    F     F_    0.787000 0.495175 0.487583 -0.567640
O19   O     O_3   0.524824 0.198663 0.948097 -0.537286
C91   C     C_3   0.436962 0.219543 0.837706 -0.164034
H21   H     H_    0.403446 0.232809 0.881894 0.156208
H22   H     H_    0.399836 0.173049 0.763313 0.224589
H23   H     H_    0.432881 0.268408 0.780864 0.122821
O20   O     O_3   0.512606 0.727895 0.838891 -0.488885
C92   C     C_3   0.469166 0.790623 0.834142 -0.204876
H24   H     H_    0.441945 0.822389 0.738351 0.199986
H25   H     H_    0.512610 0.826443 0.929011 0.098574
H26   H     H_    0.413332 0.772513 0.830302 0.178092
O21   O     O_3   0.017284 0.707376 0.936715 -0.523557
C93   C     C_3   0.932997 0.736162 0.829302 -0.179537
H27   H     H_    0.900730 0.751499 0.874708 0.160150
H28   H     H_    0.890476 0.693548 0.747897 0.216499
H29   H     H_    0.935567 0.785794 0.780132 0.109076
O22   O     O_3   0.029491 0.251454 0.901278 -0.514797
C94   C     C_3   0.987310 0.317017 0.887396 -0.192575
H30   H     H_    0.955152 0.341382 0.783217 0.191849
H31   H     H_    0.033519 0.357197 0.972643 0.122970
H32   H     H_    0.935188 0.304513 0.895878 0.177266
O23   O     O_3   0.624149 0.257072 0.192712 -0.549400
C95   C     C_3   0.563850 0.312700 0.156664 -0.153746
H33   H     H_    0.503749 0.286004 0.129655 0.232738
H34   H     H_    0.542395 0.344029 0.062650 0.114921
H35   H     H_    0.592047 0.350390 0.247172 0.208815
O24   O     O_3   0.581159 0.669558 0.073097 -0.488863
C96   C     C_3   0.573995 0.708725 0.164311 -0.195817
H36   H     H_    0.506668 0.698890 0.130706 0.200796
H37   H     H_    0.582588 0.768458 0.159879 0.096599
H38   H     H_    0.622352 0.689746 0.274031 0.194353
O25   O     O_3   0.117777 0.763455 0.182369 -0.539873
C97   C     C_3   0.062245 0.820636 0.159591 -0.182951
H39   H     H_    0.005785 0.796075 0.147730 0.232122
H40   H     H_    0.034251 0.850894 0.061626 0.117045
H41   H     H_    0.097618 0.858815 0.250882 0.206911
O26   O     O_3   0.127876 0.243201 0.182872 -0.508554
C98   C     C_3   0.162241 0.306854 0.268421 -0.289691
H42   H     H_    0.110362 0.331596 0.267264 0.157237
H43   H     H_    0.182907 0.349387 0.229465 0.140805
H44   H     H_    0.218832 0.293519 0.378889 0.184870
O27   O     O_3   0.377511 0.788385 0.154473 -0.574863
C99   C     C_3   0.418719 0.834148 0.118473 -0.198280
H45   H     H_    0.490559 0.838424 0.209159 0.168300
H46   H     H_    0.392318 0.890017 0.089657 0.196978
H47   H     H_    0.412502 0.809068 0.030539 0.151050
O28   O     O_3   0.418762 0.209374 0.204425 -0.548265
C100  C     C_3   0.497581 0.221783 0.344264 -0.147231
H48   H     H_    0.542762 0.175796 0.375216 0.211692
H49   H     H_    0.487828 0.230049 0.423420 0.108137
H50   H     H_    0.533769 0.270354 0.349939 0.185918
O29   O     O_3   0.879069 0.269607 0.170227 -0.577365
C101  C     C_3   0.941159 0.310630 0.172313 -0.183300
H51   H     H_    0.001529 0.318779 0.282839 0.186100
H52   H     H_    0.917335 0.363989 0.119842 0.185236
H53   H     H_    0.959793 0.278398 0.118231 0.204703
O30   O     O_3   0.914097 0.714398 0.213400 -0.536579
C102  C     C_3   0.985808 0.729187 0.357106 -0.168721
H54   H     H_    0.031621 0.683054 0.400898 0.191017
H55   H     H_    0.966125 0.741977 0.422667 0.122949
H56   H     H_    0.025873 0.775917 0.367032 0.186736
O31   O     O_3   0.722131 0.168791 0.603183 -0.575094
C103  C     C_3   0.743630 0.212705 0.534518 -0.155887
H57   H     H_    0.814340 0.230602 0.608456 0.206588
H58   H     H_    0.698663 0.260025 0.482738 0.174733
H59   H     H_    0.735051 0.179301 0.451211 0.218804
O32   O     O_3   0.784776 0.947194 0.753145 -0.556025
C104  C     C_3   0.841118 0.921447 0.726722 -0.278873
H60   H     H_    0.812168 0.871702 0.658633 0.149405
H61   H     H_    0.909173 0.910982 0.825087 0.140991
H62   H     H_    0.847744 0.964008 0.670184 0.217561
O33   O     O_3   0.219267 0.670890 0.599105 -0.569245
C105  C     C_3   0.227363 0.714582 0.513732 -0.127745
H63   H     H_    0.295332 0.738254 0.575589 0.199616
H64   H     H_    0.176686 0.757978 0.460419 0.158097
H65   H     H_    0.216884 0.679268 0.430841 0.219944
O34   O     O_3   0.281610 0.432618 0.727319 -0.552309
C106  C     C_3   0.331181 0.398939 0.693974 -0.282702
H66   H     H_    0.301781 0.344892 0.641960 0.144327
H67   H     H_    0.402025 0.393848 0.788117 0.151566
H68   H     H_    0.329665 0.433632 0.619149 0.214904
O35   O     O_3   0.255189 0.886472 0.862058 -0.619619
C107  C     C_3   0.176060 0.926138 0.793457 -0.354004
H69   H     H_    0.193096 0.985110 0.815177 0.192676
H70   H     H_    0.139906 0.911919 0.833241 0.169751
H71   H     H_    0.132185 0.917658 0.677802 0.174778
O36   O     O_3   0.419622 0.353394 0.188856 -0.619377
C108  C     C_3   0.398641 0.409830 0.241119 -0.222923
H72   H     H_    0.339312 0.395431 0.231543 0.201903
H73   H     H_    0.388930 0.462146 0.188028 0.195950
H74   H     H_    0.455193 0.417883 0.354196 0.181424
O37   O     O_3   0.777154 0.378113 0.894250 -0.616706
C109  C     C_3   0.702473 0.423305 0.831399 -0.347595
H75   H     H_    0.725180 0.479274 0.875480 0.186225
H76   H     H_    0.657794 0.405519 0.853798 0.167780
H77   H     H_    0.664701 0.425861 0.716265 0.176901
O38   O     O_3   0.907386 0.852675 0.198267 -0.617450
C110  C     C_3   0.882634 0.904935 0.251257 -0.206352
H78   H     H_    0.817449 0.891077 0.223898 0.204032
H79   H     H_    0.882776 0.960096 0.214646 0.210409
H80   H     H_    0.932826 0.905709 0.367210 0.176774
F9    F     F_    0.494531 0.177805 0.695244 -0.666531
F10   F     F_    0.536738 0.783439 0.662213 -0.651548
F11   F     F_    0.991929 0.676087 0.693769 -0.671015
F12   F     F_    0.036002 0.290285 0.693260 -0.649575

loop_
_geom_bond_atom_site_label_1
_geom_bond_atom_site_label_2
_ccdc_geom_bond_type
C76   H12   S    
C48   N4    A    
C96   H36   S    
C77   O35   S    
O28   C100  S    
C16   O22   S    
C102  H55   S    
C102  H54   S    
C14   C18   A    
C53   C55   A    
C83   C87   A    
C71   O33   S    
C105  H65   S    
C13   O19   S    
C39   C66   S    
C38   H6    S    
Cu4   O15   S    
C37   H5    S    
O19   C91   S    
C19   F11   S    
C32   C72   A    
O23   C95   S    
O31   C103  S    
C109  H75   S    
C15   C19   A    
C96   H37   S    
Cu1   O2    S    
C2    O2    A    
C59   H13   S    
C2    C29   S    
C9    C61   A    
C109  H76   S    
C4    O4    A    
C93   H27   S    
C28   C68   A    
C61   O23   S    
C105  H64   S    
C5    C11   A    
C106  H68   S    
C19   C87   A    
C6    C12   A    
C64   O26   S    
C28   F4    S    
C103  H58   S    
C92   H26   S    
O24   C96   S    
C77   C83   A    
C23   C67   A    
C6    C22   A    
C98   H42   S    
C101  H51   S    
C49   C57   A    
Cu3   O6    S    
C7    C9    A    
C110  H78   S    
C25   C63   A    
Cu2   O3    S    
C41   O11   A    
C9    C13   A    
C80   O38   S    
C22   C66   A    
C26   C64   A    
C75   H11   S    
C3    O7    A    
C30   C70   A    
C11   C15   A    
C97   H41   S    
C12   C16   A    
C44   C46   A    
O30   C102  S    
C49   C51   A    
C43   H3    S    
O37   C109  S    
C53   O17   S    
C45   C49   A    
C30   C86   A    
C27   C61   A    
C91   H22   S    
C60   N2    A    
C74   H10   S    
C21   C65   A    
C69   O31   S    
C31   C71   A    
C92   H24   S    
C33   C59   A    
C57   H1    S    
C92   H25   S    
C34   C60   A    
Cu2   O12   S    
C4    O8    A    
C10   C62   A    
C2    O6    A    
C101  H53   S    
C40   O14   A    
C17   C85   A    
O34   C106  S    
C94   H31   S    
C52   C54   A    
C94   H30   S    
C41   C68   S    
C29   C69   A    
C45   C47   A    
Cu2   Cu4   S    
C62   O24   S    
C96   H38   S    
C54   C56   A    
C6    C84   A    
C28   C62   A    
C39   O13   A    
C100  H48   S    
C26   C66   A    
Cu1   O9    S    
C95   H34   S    
C31   C87   A    
C105  H63   S    
C72   C74   A    
C3    O3    A    
C98   H43   S    
C71   C73   A    
C24   C68   A    
C103  H57   S    
C89   H15   S    
C26   F2    S    
O29   C101  S    
C33   F5    S    
C47   N3    A    
C59   N1    A    
C33   C51   A    
C58   H2    S    
C110  H79   S    
C50   C58   A    
C37   C43   A    
Cu4   O7    S    
C100  H49   S    
C38   C44   A    
C106  H66   S    
C44   H4    S    
C41   O15   A    
Cu2   O11   S    
C91   H23   S    
C90   H19   S    
C18   F10   S    
C50   C52   A    
C104  H60   S    
Cu1   O10   S    
C17   F9    S    
C16   C20   A    
C104  H61   S    
C54   O18   S    
C14   O20   S    
C35   F7    S    
O35   C107  S    
C25   C65   A    
C3    C32   S    
C108  H73   S    
C18   C86   A    
C63   O25   S    
C43   C45   A    
C89   H16   S    
C80   C82   A    
C97   H39   S    
C7    C81   A    
O32   C104  S    
C107  H70   S    
C40   C65   S    
C36   N4    A    
C42   C67   S    
C27   F3    S    
C102  H56   S    
C8    C82   A    
Cu1   Cu3   S    
C56   H8    S    
C55   H7    S    
O17   C89   S    
O21   C93   S    
C94   H32   S    
C60   H14   S    
O26   C98   S    
C42   O12   A    
C47   C55   A    
C91   H21   S    
C90   H18   S    
C98   H44   S    
C35   C37   A    
C48   C56   A    
C12   C64   A    
Cu1   O1    S    
C34   F6    S    
C40   O10   A    
C15   O21   S    
C101  H52   S    
C93   H29   S    
C76   C80   A    
C7    C23   A    
O18   C90   S    
Cu4   O16   S    
O38   C110  S    
C79   C81   A    
C5    C83   A    
C21   O27   S    
C78   O36   S    
C107  H71   S    
C22   O28   S    
C46   C50   A    
C34   C52   A    
C109  H77   S    
C13   C17   A    
Cu3   O14   S    
C110  H80   S    
O22   C94   S    
Cu3   N3    S    
C99   H47   S    
C93   H28   S    
C25   F1    S    
C100  H50   S    
C29   C85   A    
C106  H67   S    
O25   C97   S    
C82   C86   A    
C1    O1    A    
C36   C38   A    
C70   C76   A    
C103  H59   S    
Cu4   N4    S    
O27   C99   S    
C95   H33   S    
C84   C88   A    
C89   H17   S    
C39   O9    A    
C90   H20   S    
C20   C88   A    
C73   H9    S    
C1    C30   S    
C8    C24   A    
Cu3   O5    S    
C35   N3    A    
C69   C75   A    
C108  H74   S    
C58   N2    A    
Cu2   O4    S    
O33   C105  S    
C36   F8    S    
O36   C108  S    
C99   H46   S    
C4    C31   S    
C27   C67   A    
C42   O16   A    
Cu2   N2    S    
Cu1   N1    S    
C46   C48   A    
C78   C84   A    
C20   F12   S    
C104  H62   S    
C5    C21   A    
Cu4   O8    S    
C24   O30   S    
C95   H35   S    
C8    C10   A    
C107  H69   S    
C74   C78   A    
C23   O29   S    
C108  H72   S    
C57   N1    A    
C73   C77   A    
O20   C92   S    
C72   O34   S    
Cu3   O13   S    
C1    O5    A    
C70   O32   S    
C51   C53   A    
C99   H45   S    
C11   C63   A    
C75   C79   A    
C81   C85   A    
C79   O37   S    
C10   C14   A    
C97   H40   S    
C32   C88   A    
