data_mof_unit_60607.cif
_audit_creation_date              2012-12-10T20:13:41-0500
_audit_creation_method            fapswitch 2.2
_symmetry_space_group_name_H-M    P1
_symmetry_Int_Tables_number       1
_space_group_crystal_system       triclinic
_cell_length_a                    15.911689
_cell_length_b                    15.911221
_cell_length_c                    39.826965
_cell_angle_alpha                 89.998973
_cell_angle_beta                  89.997673
_cell_angle_gamma                 90.000833
_cell_volume                      10083.1679632

loop_
_atom_site_label
_atom_site_type_symbol
_atom_type_description
_atom_site_fract_x
_atom_site_fract_y
_atom_site_fract_z
_atom_type_partial_charge
C1    C     C_R   0.999928 0.499987 0.948656 -0.031392
C2    C     C_1   0.999918 0.499997 0.015080 0.023760
C3    C     C_1   0.548258 0.850516 0.051010 0.282113
C4    C     C_1   0.123562 0.406188 0.949813 0.277567
C5    C     C_1   0.123564 0.593811 0.050181 0.277319
C6    C     C_1   0.560935 0.145305 0.948951 0.281385
C7    C     C_1   0.464394 0.149414 0.049816 0.280138
C8    C     C_1   0.622516 0.094480 0.449915 0.277696
C9    C     C_1   0.623258 0.906366 0.550120 0.283271
C10   C     C_1   0.906463 0.623845 0.449814 0.277852
C11   C     C_1   0.093431 0.623929 0.550225 0.282748
C12   C     C_1   0.376308 0.905485 0.449711 0.277375
C13   C     C_1   0.509640 0.999755 0.984928 0.022231
C14   C     C_1   0.375447 0.093290 0.550290 0.277440
C15   C     C_1   0.093736 0.376304 0.449786 0.283476
C16   C     C_1   0.906816 0.375875 0.550191 0.277944
C17   C     C_2   0.873091 0.595482 0.877169 0.605322
C18   C     C_2   0.873111 0.404483 0.122834 0.605704
C19   C     C_2   0.447272 0.850446 0.877958 0.574133
C20   C     C_2   0.543953 0.847798 0.123927 0.593725
C21   C     C_2   0.126837 0.404486 0.877188 0.604018
C22   C     C_2   0.126831 0.595530 0.122806 0.603958
C23   C     C_2   0.556574 0.148180 0.876044 0.597046
C24   C     C_1   0.509661 0.000062 0.015141 0.021957
C25   C     C_2   0.460258 0.153696 0.122342 0.574985
C26   C     C_2   0.626188 0.096135 0.377297 0.603290
C27   C     C_2   0.627256 0.904829 0.622505 0.599322
C28   C     C_2   0.904766 0.627090 0.377177 0.604007
C29   C     C_2   0.095095 0.627433 0.622595 0.598896
C30   C     C_2   0.373363 0.903902 0.377088 0.602915
C31   C     C_2   0.372648 0.095114 0.622923 0.603423
C32   C     C_2   0.095334 0.372714 0.377409 0.599342
C33   C     C_2   0.905131 0.372613 0.622835 0.603696
C34   C     C_1   0.499282 0.999919 0.484924 0.024967
C35   C     C_1   0.499254 0.999874 0.515083 0.024418
C36   C     C_1   0.000078 0.500028 0.484922 0.024730
C37   C     C_1   0.000082 0.499964 0.515082 0.024564
C38   C     C_R   0.499960 0.998886 0.840933 0.569097
C39   C     C_R   0.499979 0.001033 0.159085 0.574277
C40   C     C_R   0.999996 0.499999 0.840955 0.586029
C41   C     C_R   0.999933 0.500002 0.051344 -0.031563
C42   C     C_R   0.999997 0.500000 0.159044 0.586085
C43   C     C_R   0.999998 0.499977 0.340955 0.580230
C44   C     C_R   0.000000 0.500022 0.659045 0.580149
C45   C     C_R   0.499978 0.999998 0.340957 0.586708
C46   C     C_R   0.500005 0.000000 0.659045 0.580637
C47   C     C_R   0.660068 0.160094 0.750007 0.521268
C48   C     C_R   0.339913 0.839927 0.250005 0.519271
C49   C     C_R   0.839899 0.660059 0.750013 0.519049
C50   C     C_R   0.160075 0.339913 0.250004 0.527104
C51   C     C_R   0.339936 0.839903 0.750011 0.515622
C52   C     C_R   0.508226 0.999330 0.948587 -0.032523
C53   C     C_R   0.660096 0.160066 0.250009 0.516513
C54   C     C_R   0.160099 0.339936 0.750011 0.517926
C55   C     C_R   0.839939 0.660100 0.250013 0.518885
C56   C     C_R   0.660073 0.839911 0.249996 0.520729
C57   C     C_R   0.339909 0.160071 0.749993 0.519512
C58   C     C_R   0.839900 0.339938 0.249988 0.519415
C59   C     C_R   0.160076 0.660087 0.749996 0.527247
C60   C     C_R   0.339937 0.160098 0.249989 0.516818
C61   C     C_R   0.660086 0.839924 0.749996 0.525579
C62   C     C_R   0.160099 0.660063 0.249988 0.517724
C63   C     C_R   0.508313 0.000493 0.051484 -0.032948
C64   C     C_R   0.839939 0.339901 0.749988 0.519154
C65   C     C_1   0.276647 0.223356 0.750000 0.005569
C66   C     C_1   0.723361 0.776649 0.250005 0.008575
C67   C     C_1   0.776658 0.276635 0.749990 0.006744
C68   C     C_1   0.223368 0.723343 0.249990 0.005153
C69   C     C_1   0.723346 0.776635 0.750004 0.009301
C70   C     C_1   0.276661 0.223369 0.249991 0.004015
C71   C     C_1   0.223362 0.723349 0.750003 0.007173
C72   C     C_1   0.776636 0.276655 0.249993 0.005690
C73   C     C_1   0.276652 0.776641 0.249999 0.005285
C74   C     C_R   0.499419 0.999979 0.448661 -0.030852
C75   C     C_1   0.723354 0.223357 0.749998 0.008570
C76   C     C_1   0.776662 0.723369 0.250013 0.006594
C77   C     C_1   0.223366 0.276656 0.750008 0.005432
C78   C     C_1   0.723357 0.223352 0.250003 0.005601
C79   C     C_1   0.276660 0.776632 0.750011 0.003406
C80   C     C_1   0.223362 0.276650 0.249997 0.007402
C81   C     C_1   0.776629 0.723336 0.750012 0.004558
C82   C     C_R   0.939661 0.547596 0.931143 -0.032985
C83   C     C_R   0.939673 0.452382 0.068859 -0.033245
C84   C     C_R   0.479395 0.927606 0.931400 -0.028069
C85   C     C_R   0.499355 0.999837 0.551345 -0.032161
C86   C     C_R   0.527638 0.926602 0.069360 -0.032750
C87   C     C_R   0.060212 0.452376 0.931152 -0.032552
C88   C     C_R   0.060212 0.547622 0.068845 -0.032821
C89   C     C_R   0.533854 0.071191 0.930653 -0.033217
C90   C     C_R   0.485786 0.074380 0.068724 -0.028601
C91   C     C_R   0.559520 0.047930 0.431204 -0.032602
C92   C     C_R   0.559874 0.952435 0.568809 -0.028252
C93   C     C_R   0.952546 0.560417 0.431153 -0.032185
C94   C     C_R   0.047437 0.560384 0.568856 -0.028258
C95   C     C_R   0.439493 0.952049 0.431105 -0.032535
C96   C     C_R   0.000081 0.500070 0.448659 -0.031671
C97   C     C_R   0.439048 0.047309 0.568898 -0.032733
C98   C     C_R   0.047578 0.439714 0.431149 -0.027706
C99   C     C_R   0.952718 0.439433 0.568853 -0.032835
C100  C     C_R   0.939168 0.547842 0.895696 0.013925
C101  C     C_R   0.939180 0.452139 0.104305 0.013635
C102  C     C_R   0.475080 0.927553 0.896002 0.016715
C103  C     C_R   0.523864 0.925975 0.104829 0.016720
C104  C     C_R   0.060748 0.452137 0.895705 0.013964
C105  C     C_R   0.060746 0.547867 0.104292 0.013795
C106  C     C_R   0.530165 0.071965 0.895178 0.017494
C107  C     C_R   0.000091 0.499912 0.551345 -0.032144
C108  C     C_R   0.481565 0.074676 0.104140 0.015370
C109  C     C_R   0.560235 0.048165 0.395759 0.014093
C110  C     C_R   0.560717 0.952385 0.604229 0.016515
C111  C     C_R   0.952291 0.560928 0.395703 0.015766
C112  C     C_R   0.047524 0.561009 0.604273 0.016661
C113  C     C_R   0.439148 0.951835 0.395658 0.014085
C114  C     C_R   0.438744 0.047612 0.604346 0.014802
C115  C     C_R   0.047657 0.439071 0.395730 0.017569
C116  C     C_R   0.952458 0.438919 0.604304 0.014868
C117  C     C_R   0.999973 0.499995 0.877998 -0.017350
C118  C     C_1   0.999916 0.499993 0.984920 0.023900
C119  C     C_R   0.999975 0.500002 0.122001 -0.017485
C120  C     C_R   0.499933 0.000125 0.877937 -0.011618
C121  C     C_R   0.499939 0.000061 0.122109 -0.010934
C122  C     C_R   0.499795 0.999993 0.378004 -0.017539
C123  C     C_R   0.499805 0.999994 0.622000 -0.021020
C124  C     C_R   0.999997 0.500020 0.378003 -0.019785
C125  C     C_R   0.000005 0.499954 0.622000 -0.020855
C126  C     C_1   0.876284 0.593776 0.949795 0.279110
C127  C     C_1   0.876305 0.406187 0.050209 0.279232
C128  C     C_1   0.451877 0.854612 0.950322 0.278649
H1    H     H_    0.786529 0.595907 0.840127 0.345356
H2    H     H_    0.691416 0.796251 0.627761 0.355278
H3    H     H_    0.904463 0.713602 0.340114 0.343670
H4    H     H_    0.203843 0.691211 0.628003 0.355304
H5    H     H_    0.286869 0.903144 0.340022 0.344100
H6    H     H_    0.286335 0.095401 0.660059 0.344149
H7    H     H_    0.204119 0.308976 0.372043 0.355233
H8    H     H_    0.905048 0.286205 0.659941 0.344137
H9    H     H_    0.786547 0.404036 0.159878 0.346025
H10   H     H_    0.368811 0.798092 0.844105 0.342606
H11   H     H_    0.513673 0.769567 0.161952 0.341261
H12   H     H_    0.213445 0.404047 0.840161 0.344768
H13   H     H_    0.213438 0.595985 0.159831 0.344766
H14   H     H_    0.532709 0.228546 0.838002 0.341413
H15   H     H_    0.389297 0.211035 0.157537 0.341610
H16   H     H_    0.713033 0.096965 0.340360 0.344486
N1    N     N_1   0.825806 0.630502 0.964713 -0.197314
N2    N     N_1   0.673750 0.869727 0.535174 -0.202923
N3    N     N_1   0.869813 0.674361 0.464741 -0.202261
N4    N     N_1   0.130006 0.674550 0.535323 -0.202949
N5    N     N_1   0.325986 0.868451 0.464592 -0.201988
N6    N     N_1   0.324787 0.129863 0.535412 -0.202068
N7    N     N_1   0.130441 0.325798 0.464697 -0.202642
N8    N     N_1   0.870308 0.325253 0.535265 -0.200973
N9    N     N_1   0.825833 0.369449 0.035293 -0.195615
N10   N     N_1   0.429932 0.796487 0.965435 -0.196089
N11   N     N_1   0.564655 0.789924 0.036327 -0.187797
N12   N     N_1   0.174019 0.369456 0.964739 -0.203919
N13   N     N_1   0.174023 0.630543 0.035254 -0.202796
N14   N     N_1   0.582479 0.204329 0.963592 -0.188307
N15   N     N_1   0.447327 0.209156 0.034705 -0.194915
N16   N     N_1   0.672687 0.131503 0.464880 -0.201034
O1    O     O_3   0.500000 1.000000 0.750000 -0.472787
O2    O     O_R   0.430670 0.000000 0.175110 -0.468146
O3    O     O_R   0.000000 0.569330 0.824890 -0.509103
O4    O     O_R   1.000000 0.430670 0.175110 -0.509028
O5    O     O_R   0.930670 0.500000 0.324890 -0.508886
O6    O     O_R   0.069330 0.500000 0.675110 -0.505158
O7    O     O_R   0.500000 0.930670 0.324890 -0.505398
O8    O     O_R   0.500000 0.069330 0.675110 -0.507785
O9    O     O_R   0.069330 0.500000 0.324890 -0.505844
O10   O     O_R   0.930670 0.500000 0.675110 -0.510808
O11   O     O_R   0.500000 0.069330 0.324890 -0.507714
O12   O     O_3   0.500000 1.000000 0.250000 -0.472021
O13   O     O_R   0.500000 0.930670 0.675110 -0.507141
O14   O     O_R   0.666560 0.097440 0.769680 -0.521351
O15   O     O_R   0.333440 0.902560 0.230320 -0.519465
O16   O     O_R   0.902560 0.666560 0.769680 -0.521934
O17   O     O_R   0.097440 0.333440 0.230320 -0.526064
O18   O     O_R   0.333440 0.902560 0.769680 -0.518245
O19   O     O_R   0.666560 0.097440 0.230320 -0.527417
O20   O     O_R   0.097440 0.333440 0.769680 -0.523579
O21   O     O_R   0.902560 0.666560 0.230320 -0.525007
O22   O     O_R   0.666560 0.902560 0.230320 -0.523496
O23   O     O_3   0.000000 0.500000 0.750000 -0.471027
O24   O     O_R   0.333440 0.097440 0.769680 -0.519591
O25   O     O_R   0.902560 0.333440 0.230320 -0.523129
O26   O     O_R   0.097440 0.666560 0.769680 -0.525873
O27   O     O_R   0.333440 0.097440 0.230320 -0.517339
O28   O     O_R   0.666560 0.902560 0.769680 -0.527227
O29   O     O_R   0.097440 0.666560 0.230320 -0.523874
O30   O     O_R   0.902560 0.333440 0.769680 -0.524299
O31   O     O_R   0.166560 0.597440 0.269680 -0.526300
O32   O     O_R   0.833440 0.402560 0.730320 -0.524184
O33   O     O_R   0.402560 0.166560 0.269680 -0.529249
O34   O     O_3   0.000000 0.500000 0.250000 -0.471419
O35   O     O_R   0.597440 0.833440 0.730320 -0.522476
O36   O     O_R   0.833440 0.402560 0.269680 -0.525320
O37   O     O_R   0.166560 0.597440 0.730320 -0.521588
O38   O     O_R   0.597440 0.833440 0.269680 -0.525623
O39   O     O_R   0.402560 0.166560 0.730320 -0.524802
O40   O     O_R   0.166560 0.402560 0.730320 -0.526404
O41   O     O_R   0.833440 0.597440 0.269680 -0.523544
O42   O     O_R   0.402560 0.833440 0.730320 -0.530354
O43   O     O_R   0.597440 0.166560 0.269680 -0.524085
O44   O     O_R   0.833440 0.597440 0.730320 -0.528179
O45   O     O_R   0.430670 1.000000 0.824890 -0.470880
O46   O     O_R   0.166560 0.402560 0.269680 -0.521411
O47   O     O_R   0.597440 0.166560 0.730320 -0.526527
O48   O     O_R   0.402560 0.833440 0.269680 -0.524929
O49   O     O_2   0.857149 0.668147 0.884894 -0.466883
O50   O     O_R   0.829180 0.557013 0.850912 -0.686456
O51   O     O_2   0.857184 0.331814 0.115109 -0.466079
O52   O     O_R   0.829192 0.442939 0.149093 -0.685954
O53   O     O_2   0.481260 0.783103 0.883852 -0.475552
O54   O     O_R   0.381685 0.854609 0.854680 -0.658750
O55   O     O_2   0.604904 0.805199 0.116154 -0.471054
O56   O     O_R   0.569330 0.000000 0.175110 -0.529131
O57   O     O_R   0.493232 0.823170 0.150872 -0.686608
O58   O     O_2   0.142750 0.331814 0.884914 -0.466031
O59   O     O_R   0.170790 0.442949 0.850939 -0.690736
O60   O     O_2   0.142740 0.668201 0.115077 -0.466079
O61   O     O_R   0.170785 0.557078 0.149056 -0.690716
O62   O     O_2   0.620890 0.185590 0.883750 -0.470575
O63   O     O_R   0.507920 0.176875 0.849133 -0.687388
O64   O     O_2   0.497190 0.218927 0.115544 -0.472522
O65   O     O_R   0.397670 0.153672 0.146968 -0.665534
O66   O     O_2   0.641656 0.168908 0.385014 -0.467384
O67   O     O_R   0.000000 0.430670 0.824890 -0.506030
O68   O     O_R   0.670520 0.057855 0.351108 -0.688902
O69   O     O_2   0.666693 0.938526 0.645172 -0.506285
O70   O     O_R   0.644998 0.821699 0.613591 -0.656506
O71   O     O_2   0.832150 0.643200 0.384920 -0.466424
O72   O     O_R   0.943281 0.670881 0.350897 -0.689442
O73   O     O_2   0.061295 0.667022 0.645197 -0.508881
O74   O     O_R   0.178370 0.644862 0.613804 -0.654462
O75   O     O_2   0.357809 0.831121 0.384766 -0.465550
O76   O     O_R   0.329285 0.942231 0.350843 -0.691653
O77   O     O_2   0.356465 0.167720 0.615187 -0.466132
O78   O     O_R   0.000000 0.569330 0.175110 -0.506144
O79   O     O_R   0.329008 0.056591 0.649241 -0.690711
O80   O     O_2   0.061644 0.333170 0.354770 -0.508018
O81   O     O_R   0.178579 0.355289 0.386243 -0.654727
O82   O     O_2   0.832619 0.356166 0.615057 -0.468134
O83   O     O_R   0.943725 0.329063 0.649160 -0.688420
O84   O     O_R   0.569330 1.000000 0.824890 -0.527789
Zn1   Zn    Zn3+2 0.500000 0.098940 0.722030 1.013850
Zn2   Zn    Zn3+2 0.000000 0.401060 0.777970 1.014097
Zn3   Zn    Zn3+2 0.401060 1.000000 0.222030 1.024579
Zn4   Zn    Zn3+2 0.598940 1.000000 0.777970 1.005217
Zn5   Zn    Zn3+2 0.000000 0.401060 0.222030 1.014522
Zn6   Zn    Zn3+2 0.000000 0.598940 0.777970 1.015107
Zn7   Zn    Zn3+2 0.598940 1.000000 0.222030 1.001491
Zn8   Zn    Zn3+2 0.401060 1.000000 0.777970 1.022889
Zn9   Zn    Zn3+2 0.500000 0.901060 0.277970 1.013205
Zn10  Zn    Zn3+2 0.901060 0.500000 0.722030 1.011176
Zn11  Zn    Zn3+2 0.098940 0.500000 0.277970 1.018242
Zn12  Zn    Zn3+2 0.500000 0.901060 0.722030 1.010963
Zn13  Zn    Zn3+2 0.500000 0.098940 0.277970 1.006873
Zn14  Zn    Zn3+2 0.098940 0.500000 0.722030 1.018434
Zn15  Zn    Zn3+2 0.901060 0.500000 0.277970 1.014679
Zn16  Zn    Zn3+2 0.000000 0.598940 0.222030 1.013251

loop_
_geom_bond_atom_site_label_1
_geom_bond_atom_site_label_2
_ccdc_geom_bond_type
H3    O72   S    
C84   C128  S    
O21   Zn16  S    
C1    C87   A    
O7    Zn9   S    
C38   O45   A    
C32   O81   S    
C84   C102  A    
H6    O79   S    
O9    Zn11  S    
C29   C112  S    
C34   C74   S    
O23   Zn10  S    
C108  C121  A    
C58   C72   S    
C127  N9    T    
C15   N7    T    
C2    C118  T    
O14   Zn4   S    
C4    C87   S    
O28   Zn4   S    
C59   C71   S    
C53   O43   A    
C46   O8    A    
C39   O56   A    
C59   O26   A    
H7    O81   S    
O6    Zn14  S    
C36   C37   T    
C59   O37   A    
C37   C107  S    
C17   O49   D    
O16   Zn6   S    
C19   C102  S    
C42   O4    A    
C11   N4    T    
C7    N15   T    
C86   C103  A    
C2    C41   S    
C55   O41   A    
C53   O19   A    
C9    N2    T    
C54   O40   A    
O34   Zn11  S    
C25   O64   D    
C34   C35   T    
C20   O57   S    
C49   C81   S    
O2    Zn3   S    
C52   C84   A    
C36   C96   S    
C82   C126  S    
O27   Zn3   S    
H12   O59   S    
C6    N14   T    
C42   C119  S    
C21   C104  S    
C27   O69   D    
O42   Zn12  S    
C113  C122  A    
C27   C110  S    
C26   O68   S    
C96   C98   A    
C89   C106  A    
O33   Zn13  S    
C12   C95   S    
O78   Zn16  S    
C49   O16   A    
C30   O75   D    
C58   O36   A    
C51   O18   A    
C28   O72   S    
C31   C114  S    
H8    O83   S    
C51   O42   A    
C128  N10   T    
C10   N3    T    
C54   C77   S    
C38   C120  S    
C68   C73   T    
O15   Zn3   S    
O8    Zn1   S    
C31   O77   D    
C49   O44   A    
O17   Zn5   S    
C32   C115  S    
O35   Zn12  S    
C57   O39   A    
C3    C86   S    
C5    C88   S    
C48   O48   A    
C33   O82   D    
C82   C100  A    
C99   C107  A    
H15   O65   S    
O46   Zn11  S    
O47   Zn1   S    
C9    C92   S    
C71   C79   T    
C64   O32   A    
C126  N1    T    
C60   O33   A    
C23   O63   S    
C62   O29   A    
C56   O38   A    
C43   O5    A    
C28   C111  S    
C42   O78   A    
C94   C107  A    
C22   O61   S    
O12   Zn9   S    
O30   Zn2   S    
C65   C77   T    
O44   Zn10  S    
O10   Zn10  S    
H9    O52   S    
C70   C80   T    
C101  C119  A    
C64   C67   S    
O11   Zn13  S    
C50   O17   A    
C69   C81   T    
H13   O61   S    
C40   O3    A    
C17   O50   S    
C83   C127  S    
C99   C116  A    
C20   C103  S    
C32   O80   D    
O12   Zn3   S    
C1    C82   A    
C23   C106  S    
C61   O28   A    
O31   Zn11  S    
O5    Zn15  S    
C13   C24   T    
C19   O53   D    
O23   Zn2   S    
C74   C91   A    
O36   Zn15  S    
C18   O52   S    
O22   Zn7   S    
O41   Zn15  S    
O1    Zn1   S    
C110  C123  A    
C13   C52   S    
O19   Zn7   S    
H11   O57   S    
C27   O70   S    
C26   C109  S    
C23   O62   D    
C60   C70   S    
C45   O11   A    
O23   Zn14  S    
C66   C76   T    
C14   N6    T    
C3    N11   T    
C20   O55   D    
C55   O21   A    
C46   O13   A    
C16   N8    T    
C8    C91   S    
C44   O6    A    
C39   O2    A    
C45   O7    A    
C28   O71   D    
C29   O73   D    
C112  C125  A    
O1    Zn4   S    
C114  C123  A    
C50   O46   A    
O38   Zn9   S    
C4    N12   T    
C93   C111  A    
C24   C63   S    
C5    N13   T    
C21   O58   D    
C43   O9    A    
C63   C86   A    
C48   C73   S    
C88   C105  A    
C46   C123  S    
C33   O83   S    
C44   O10   A    
C67   C75   T    
O48   Zn9   S    
C55   C76   S    
C15   C98   S    
C58   O25   A    
C18   C101  S    
C8    N16   T    
O24   Zn8   S    
H14   O63   S    
C74   C95   A    
C102  C120  A    
C11   C94   S    
C14   C97   S    
C48   O15   A    
C104  C117  A    
C61   C69   S    
C41   C88   A    
C22   O60   D    
C61   O35   A    
H10   O54   S    
C33   C116  S    
C52   C89   A    
C115  C124  A    
C83   C101  A    
O29   Zn16  S    
C106  C120  A    
C111  C124  A    
O4    Zn5   S    
C12   N5    T    
O3    Zn6   S    
C105  C119  A    
C103  C121  A    
C57   C65   S    
O37   Zn14  S    
C47   C75   S    
C50   C80   S    
O1    Zn8   S    
C64   O30   A    
C44   C125  S    
C16   C99   S    
O40   Zn14  S    
C62   O31   A    
C47   O47   A    
C45   C122  S    
C93   C96   A    
C6    C89   S    
C38   O84   A    
O12   Zn7   S    
O32   Zn10  S    
C10   C93   S    
C62   C68   S    
C116  C125  A    
C19   O54   S    
C91   C109  A    
C40   O67   A    
C53   C78   S    
O12   Zn13  S    
O23   Zn6   S    
C18   O51   D    
O34   Zn5   S    
O45   Zn8   S    
C95   C113  A    
O67   Zn2   S    
C60   O27   A    
C7    C90   S    
H1    O50   S    
C92   C110  A    
C98   C115  A    
C56   O22   A    
C26   O66   D    
O56   Zn7   S    
C56   C66   S    
C63   C90   A    
C94   C112  A    
C54   O20   A    
C40   C117  S    
O34   Zn16  S    
C1    C118  S    
O1    Zn12  S    
C22   C105  S    
C109  C122  A    
C17   C100  S    
C51   C79   S    
C29   O74   S    
O26   Zn6   S    
C47   O14   A    
C85   C97   A    
C90   C108  A    
O39   Zn1   S    
O25   Zn5   S    
C87   C104  A    
C35   C85   S    
O84   Zn4   S    
O34   Zn15  S    
O18   Zn8   S    
C85   C92   A    
C21   O59   S    
C72   C78   T    
H2    O70   S    
C39   C121  S    
H16   O68   S    
C31   O79   S    
C100  C117  A    
O13   Zn12  S    
C30   O76   S    
C97   C114  A    
H4    O74   S    
C43   C124  S    
H5    O76   S    
C57   O24   A    
O43   Zn13  S    
C25   C108  S    
O20   Zn2   S    
C25   O65   S    
C30   C113  S    
C41   C83   A    
