data_mof_unit_8906.cif
_audit_creation_date              2012-12-10T20:50:11-0500
_audit_creation_method            fapswitch 2.2
_symmetry_space_group_name_H-M    P1
_symmetry_Int_Tables_number       1
_space_group_crystal_system       triclinic
_cell_length_a                    18.973152
_cell_length_b                    8.904634
_cell_length_c                    8.115163
_cell_angle_alpha                 89.621729
_cell_angle_beta                  91.522152
_cell_angle_gamma                 90.335193
_cell_volume                      1370.51270908

loop_
_atom_site_label
_atom_site_type_symbol
_atom_type_description
_atom_site_fract_x
_atom_site_fract_y
_atom_site_fract_z
_atom_type_partial_charge
C1    C     C_R   0.500011 0.218071 0.500355 0.931603
C2    C     C_R   0.250495 0.453492 0.341468 0.121770
C3    C     C_R   0.183677 0.367586 0.627295 0.389633
C4    C     C_R   0.825046 0.515321 0.382355 0.417912
C5    C     C_R   0.813041 0.328759 0.602965 0.400684
C6    C     C_R   0.187085 0.373363 0.327465 0.413244
C7    C     C_R   0.148724 0.350705 0.472799 -0.262911
C8    C     C_R   0.854647 0.399347 0.482553 -0.220369
C9    C     C_R   0.289215 0.450292 0.492590 -0.330612
C10   C     C_R   0.711639 0.474850 0.506956 -0.290811
C11   C     C_R   0.929824 0.360483 0.467933 0.326788
C12   C     C_R   0.500113 0.781930 0.499662 0.937780
C13   C     C_R   0.071642 0.334722 0.462505 0.308668
C14   C     C_3   0.119330 0.514773 0.795326 0.157922
C15   C     C_3   0.056658 0.506126 0.911337 -0.240739
C16   C     C_3   0.997907 0.614889 0.860542 -0.981912
C17   C     C_3   0.895654 0.720614 0.351744 0.103935
C18   C     C_3   0.945069 0.801239 0.234620 -0.320894
C19   C     C_3   0.971866 0.949294 0.306532 -0.975372
C20   C     C_3   0.831091 0.079961 0.665700 0.104067
C21   C     C_3   0.840177 0.976503 0.816138 -0.298351
C22   C     C_3   0.823600 0.812872 0.774820 -0.931635
C23   C     C_R   0.364480 0.491776 0.498000 0.955742
C24   C     C_3   0.134894 0.185669 0.164415 0.117594
C25   C     C_3   0.179465 0.088797 0.053367 -0.280944
C26   C     C_3   0.149777 0.929457 0.040219 -0.973735
C27   C     C_R   0.635407 0.497286 0.502419 0.959658
C28   C     C_1   0.500106 0.065267 0.500532 -0.149974
C29   C     C_1   0.500145 0.934755 0.499526 -0.155847
C30   C     C_R   0.256566 0.389077 0.632806 0.086543
C31   C     C_R   0.753356 0.548351 0.390103 0.062071
C32   C     C_R   0.742537 0.370811 0.619490 0.063890
H1    H     H_    0.101772 0.569073 0.676806 0.116803
H2    H     H_    0.990831 0.727884 0.210727 0.237887
H3    H     H_    0.916727 0.824449 0.115824 0.237396
H4    H     H_    0.997775 0.930975 0.429356 0.270234
H5    H     H_    0.927670 0.029406 0.317544 0.268834
H6    H     H_    0.010738 0.999223 0.222721 0.261360
H7    H     H_    0.870392 0.049361 0.572947 0.137333
H8    H     H_    0.777190 0.062320 0.610580 0.146868
H9    H     H_    0.895320 0.985263 0.865155 0.219966
H10   H     H_    0.804342 0.013243 0.914059 0.262954
H11   H     H_    0.770049 0.801881 0.717214 0.280054
H12   H     H_    0.160938 0.588174 0.851182 0.158809
H13   H     H_    0.825725 0.744038 0.889403 0.302213
H14   H     H_    0.863152 0.768816 0.690094 0.240655
H15   H     H_    0.080459 0.189669 0.111065 0.163901
H16   H     H_    0.132536 0.126968 0.285843 0.117629
H17   H     H_    0.179756 0.137879 0.927911 0.287393
H18   H     H_    0.234412 0.084262 0.104009 0.242060
H19   H     H_    0.149925 0.874113 0.163316 0.282024
H20   H     H_    0.182645 0.862773 0.956802 0.285938
H21   H     H_    0.095029 0.931784 0.988443 0.258921
H22   H     H_    0.034098 0.390671 0.912070 0.263160
H23   H     H_    0.074986 0.532806 0.038920 0.239469
H24   H     H_    0.978469 0.591022 0.733135 0.269141
H25   H     H_    0.017245 0.732631 0.867077 0.254047
H26   H     H_    0.953053 0.600750 0.944367 0.300625
H27   H     H_    0.927189 0.686231 0.463272 0.118751
H28   H     H_    0.853784 0.799998 0.388063 0.154823
I1    I     I_    0.312512 0.301580 0.843575 -0.273958
I2    I     I_    0.711863 0.718370 0.226513 -0.322157
I3    I     I_    0.685955 0.267511 0.816871 -0.271559
I4    I     I_    0.276615 0.600245 0.143498 -0.316110
N1    N     N_1   0.500000 0.500000 0.073640 0.012329
N2    N     N_1   0.500000 0.500000 0.926360 0.013616
N3    N     N_R   0.035502 0.396258 0.333233 -0.185312
N4    N     N_R   0.965724 0.291348 0.593368 -0.132327
N5    N     N_R   0.965936 0.406949 0.335038 -0.129467
N6    N     N_R   0.035314 0.277593 0.590204 -0.133866
O1    O     O_R   0.500000 0.285350 0.636850 -0.599428
O2    O     O_3   0.865471 0.594360 0.271271 -0.598994
O3    O     O_3   0.842840 0.229832 0.717020 -0.595486
O4    O     O_3   0.161105 0.335904 0.170859 -0.598205
O5    O     O_R   0.500000 0.714650 0.363150 -0.603208
O6    O     O_R   0.500000 0.714650 0.636850 -0.614064
O7    O     O_R   0.500000 0.285350 0.363150 -0.615635
O8    O     O_R   0.398140 0.500000 0.636920 -0.589755
O9    O     O_R   0.601860 0.500000 0.363080 -0.588781
O10   O     O_R   0.601860 0.500000 0.636920 -0.594914
O11   O     O_R   0.398140 0.500000 0.363080 -0.591014
O12   O     O_3   0.146946 0.368737 0.772343 -0.607454
Zn1   Zn    Zn3+2 0.500000 0.500000 0.682780 1.055018
Zn2   Zn    Zn3+2 0.500000 0.500000 0.317220 1.056086

loop_
_geom_bond_atom_site_label_1
_geom_bond_atom_site_label_2
_ccdc_geom_bond_type
C10   C27   S    
C12   C29   S    
C1    O7    A    
C4    C8    A    
C14   H1    S    
C1    O1    A    
C28   C29   T    
C3    C7    A    
C19   H4    S    
O9    Zn2   S    
C20   H8    S    
O5    Zn2   S    
C13   N6    A    
C15   C16   S    
C18   C19   S    
C25   H18   S    
C19   H5    S    
N2    Zn1   S    
C10   C31   A    
C1    C28   S    
C18   H3    S    
C5    C32   A    
C21   C22   S    
C31   I2    S    
C2    C6    A    
O10   Zn1   S    
O8    Zn1   S    
O6    Zn1   S    
C2    I4    S    
C6    O4    S    
O1    Zn1   S    
C24   H16   S    
C15   H22   S    
C24   C25   S    
C27   O10   A    
C20   H7    S    
C9    C23   S    
N1    Zn2   S    
O7    Zn2   S    
C25   C26   S    
N3    N5    A    
C15   H23   S    
C3    C30   A    
C16   H24   S    
C19   H6    S    
C26   H20   S    
C22   H11   S    
C3    O12   S    
C17   C18   S    
C16   H26   S    
C18   H2    S    
C9    C30   A    
C17   H27   S    
C21   H9    S    
C22   H14   S    
C12   O6    A    
C12   O5    A    
C14   O12   S    
C26   H21   S    
C4    O2    S    
O11   Zn2   S    
C11   N4    A    
C14   H12   S    
C13   N3    A    
C23   O11   A    
C24   H15   S    
C32   I3    S    
C5    C8    A    
C11   N5    A    
C6    C7    A    
C27   O9    A    
C26   H19   S    
C24   O4    S    
C8    C11   S    
C20   O3    S    
C16   H25   S    
C23   O8    A    
C5    O3    S    
C25   H17   S    
C4    C31   A    
C17   H28   S    
C21   H10   S    
C10   C32   A    
C7    C13   S    
C22   H13   S    
C20   C21   S    
C17   O2    S    
N4    N6    A    
N1    N2    T    
C30   I1    S    
C14   C15   S    
C2    C9    A    
