data_mof_unit_43053.cif
_audit_creation_date              2012-12-10T18:58:12-0500
_audit_creation_method            fapswitch 2.2
_symmetry_space_group_name_H-M    P1
_symmetry_Int_Tables_number       1
_space_group_crystal_system       triclinic
_cell_length_a                    10.557928
_cell_length_b                    9.820775
_cell_length_c                    15.870726
_cell_angle_alpha                 90.00061
_cell_angle_beta                  90.081086
_cell_angle_gamma                 89.961852
_cell_volume                      1645.58651511

loop_
_atom_site_label
_atom_site_type_symbol
_atom_type_description
_atom_site_fract_x
_atom_site_fract_y
_atom_site_fract_z
_atom_type_partial_charge
C1    C     C_R   0.868056 0.501366 0.546333 -0.180268
C2    C     C_R   0.503989 0.374248 0.955682 -0.033608
C3    C     C_R   0.506610 0.499943 0.912782 -0.049034
C4    C     C_R   0.505929 0.499989 0.087112 -0.047136
C5    C     C_1   0.504380 0.499978 0.823415 -0.112309
C6    C     C_1   0.503631 0.499978 0.176504 -0.105574
C7    C     C_1   0.501699 0.499990 0.251197 -0.175214
C8    C     C_1   0.502227 0.499990 0.748746 -0.155374
C9    C     C_R   0.542284 0.071819 0.568491 -0.044983
C10   C     C_R   0.456061 0.928064 0.431913 -0.002644
C11   C     C_R   0.456164 0.072006 0.431884 -0.018522
C12   C     C_R   0.127454 0.501017 0.538912 -0.229140
C13   C     C_R   0.542652 0.927989 0.568407 -0.048516
C14   C     C_R   0.063913 0.376625 0.555816 -0.086378
C15   C     C_R   0.931526 0.626057 0.558369 -0.051236
C16   C     C_R   0.931925 0.377978 0.561814 -0.023666
C17   C     C_R   0.063598 0.626577 0.552327 -0.066070
C18   C     C_2   0.489641 0.754929 0.092888 0.534078
C19   C     C_2   0.490979 0.245016 0.906851 0.524418
C20   C     C_2   0.524428 0.754740 0.906879 0.527694
C21   C     C_2   0.523851 0.245163 0.093074 0.538234
C22   C     C_2   0.135180 0.249362 0.574344 0.432584
C23   C     C_R   0.259758 0.500169 0.511346 0.869682
C24   C     C_2   0.859461 0.748838 0.586422 0.454497
C25   C     C_2   0.862459 0.256586 0.593534 0.441334
C26   C     C_2   0.134489 0.755040 0.566164 0.574434
C27   C     C_R   0.737560 0.500191 0.516214 0.914416
C28   C     C_R   0.500001 0.499999 0.339347 0.945812
C29   C     C_R   0.500111 0.500000 0.660655 0.880169
C30   C     C_R   0.510213 0.625627 0.955660 -0.037733
C31   C     C_R   0.510007 0.374298 0.044236 -0.038725
C32   C     C_R   0.503418 0.625684 0.044176 -0.037254
H1    H     H_    0.575172 0.125873 0.623566 0.181153
H2    H     H_    0.777850 0.735849 0.627141 0.048270
H3    H     H_    0.885964 0.154995 0.572194 0.166026
H4    H     H_    0.197374 0.764298 0.620010 0.016386
H5    H     H_    0.420601 0.873684 0.377547 0.142703
H6    H     H_    0.420817 0.126435 0.377486 0.141049
H7    H     H_    0.576598 0.873686 0.623210 0.132177
H8    H     H_    0.532587 0.764923 0.154735 0.057310
H9    H     H_    0.534696 0.235070 0.845311 0.070243
H10   H     H_    0.481302 0.765081 0.845105 0.047797
H11   H     H_    0.480145 0.234841 0.154581 0.053183
H12   H     H_    0.213836 0.251622 0.618463 0.073403
N1    N     N_R   0.500000 0.857200 0.500000 -0.092068
N2    N     N_R   0.500000 0.142800 0.500000 -0.095807
O1    O     O_R   0.316770 0.614620 0.499990 -0.611229
O2    O     O_2   0.426610 0.150930 0.933125 -0.495453
O3    O     O_2   0.589198 0.848333 0.933509 -0.490380
O4    O     O_2   0.588908 0.151523 0.066812 -0.488475
O5    O     O_2   0.110443 0.143301 0.537852 -0.514090
O6    O     O_2   0.886873 0.863388 0.563012 -0.526622
O7    O     O_2   0.779497 0.269923 0.646409 -0.596257
O8    O     O_2   0.128926 0.847208 0.514705 -0.462045
O9    O     O_R   0.683230 0.385380 0.500010 -0.586151
O10   O     O_R   0.683230 0.614620 0.500010 -0.623033
O11   O     O_R   0.316770 0.385380 0.499990 -0.612216
O12   O     O_R   0.499980 0.614630 0.378020 -0.612335
O13   O     O_R   0.500020 0.385370 0.621980 -0.611422
O14   O     O_R   0.500020 0.614630 0.621980 -0.656135
O15   O     O_R   0.499980 0.385370 0.378020 -0.617480
O16   O     O_2   0.425469 0.848996 0.066131 -0.492249
Zn1   Zn    Zn3+2 0.500000 0.653120 0.500000 0.970562
Zn2   Zn    Zn3+2 0.500000 0.346880 0.500000 0.989217

loop_
_geom_bond_atom_site_label_1
_geom_bond_atom_site_label_2
_ccdc_geom_bond_type
C12   C17   A    
C24   O6    D    
C3    C30   A    
C20   H10   S    
C6    C7    T    
C1    C15   A    
C28   O12   A    
O15   Zn2   S    
C2    C31   A    
C29   O14   A    
C1    C27   S    
O9    Zn2   S    
C14   C22   S    
C10   N1    A    
C2    C3    A    
O10   Zn1   S    
C9    N2    A    
C1    C16   A    
C20   C30   S    
C28   O15   A    
C30   C32   A    
C21   C31   S    
C12   C23   S    
O13   Zn2   S    
C20   O3    D    
C22   H12   S    
C9    H1    S    
O14   Zn1   S    
C8    C29   S    
C26   O8    D    
C26   H4    S    
C21   O4    D    
C25   H3    S    
C27   O9    A    
C10   H5    S    
O1    Zn1   S    
C14   C16   A    
C13   H7    S    
C4    C31   A    
C23   O1    A    
C10   C11   A    
C17   C26   S    
C4    C32   A    
C19   H9    S    
O12   Zn1   S    
C18   C32   S    
C13   N1    A    
O11   Zn2   S    
C23   O11   A    
C4    C6    S    
N2    Zn2   S    
C16   C25   S    
C15   C17   A    
C5    C8    T    
C9    C13   A    
C27   O10   A    
C18   O16   D    
C11   H6    S    
C18   H8    S    
C25   O7    D    
C3    C5    S    
C2    C19   S    
C19   O2    D    
C15   C24   S    
N1    Zn1   S    
C21   H11   S    
C7    C28   S    
C29   O13   A    
C12   C14   A    
C22   O5    D    
C11   N2    A    
C24   H2    S    
