data_mof_unit_7916.cif
_audit_creation_date              2012-12-10T17:29:20-0500
_audit_creation_method            fapswitch 2.2
_symmetry_space_group_name_H-M    P1
_symmetry_Int_Tables_number       1
_space_group_crystal_system       triclinic
_cell_length_a                    12.009262
_cell_length_b                    12.886452
_cell_length_c                    13.093825
_cell_angle_alpha                 87.325341
_cell_angle_beta                  113.668265
_cell_angle_gamma                 93.465696
_cell_volume                      1851.96105642

loop_
_atom_site_label
_atom_site_type_symbol
_atom_type_description
_atom_site_fract_x
_atom_site_fract_y
_atom_site_fract_z
_atom_type_partial_charge
C1    C     C_R   0.477262 0.299472 0.498028 0.894529
C2    C     C_R   0.612649 0.502636 0.829891 -0.125380
C3    C     C_R   0.536589 0.811823 0.503638 -0.050277
C4    C     C_R   0.567593 0.499955 0.708822 0.872193
C5    C     C_R   0.464193 0.188097 0.498063 -0.064575
C6    C     C_R   0.359925 0.028978 0.519933 -0.215278
C7    C     C_R   0.366088 0.136549 0.513796 -0.191293
C8    C     C_R   0.554781 0.132896 0.486358 -0.261226
C9    C     C_R   0.549786 0.026106 0.492977 0.181456
C10   C     C_R   0.451751 0.973802 0.510136 0.185090
C11   C     C_R   0.446543 0.866980 0.516338 -0.284561
C12   C     C_R   0.561019 0.513742 0.989348 0.106039
C13   C     C_R   0.634916 0.863393 0.488318 -0.200512
C14   C     C_R   0.641539 0.970959 0.483031 -0.213057
C15   C     C_R   0.003536 0.590763 0.388530 -0.277122
C16   C     C_R   0.522895 0.700506 0.502357 0.868169
C17   C     C_R   0.124590 0.583330 0.400319 0.004049
C18   C     C_R   0.161821 0.461881 0.550331 0.031265
C19   C     C_R   0.040134 0.466445 0.541636 0.001615
C20   C     C_R   0.960244 0.532105 0.459385 0.001893
C21   C     C_R   0.839423 0.538469 0.450806 -0.160610
C22   C     C_R   0.873052 0.414195 0.598807 0.474426
C23   C     C_R   0.542812 0.546053 0.880006 0.068603
C24   C     C_R   0.997616 0.408594 0.614069 0.216943
C25   C     C_R   0.433054 0.504501 0.291316 0.861699
C26   C     C_R   0.299964 0.636868 0.013954 -0.195946
C27   C     C_R   0.393184 0.521086 0.172090 -0.171937
C28   C     C_R   0.717696 0.450042 0.895632 -0.176187
C29   C     C_R   0.748917 0.435503 0.009448 -0.181743
C30   C     C_R   0.670353 0.465238 0.056100 -0.102017
C31   C     C_R   0.470881 0.534231 0.028442 0.031605
C32   C     C_R   0.382326 0.608099 0.970258 0.104589
C33   C     C_R   0.377793 0.652517 0.869678 -0.212499
C34   C     C_R   0.455355 0.620266 0.823673 -0.194514
C35   C     C_R   0.462729 0.480445 0.120837 0.377161
C36   C     C_R   0.308759 0.596533 0.117116 -0.245441
H1    H     H_    0.254225 0.627754 0.156247 0.168225
H2    H     H_    0.312046 0.710064 0.825020 0.147329
H3    H     H_    0.224809 0.411633 0.612585 0.184815
H4    H     H_    0.233688 0.694632 0.971476 0.149948
H5    H     H_    0.774090 0.418378 0.858716 0.190804
H6    H     H_    0.698500 0.453111 0.145012 0.190024
H7    H     H_    0.831637 0.397415 0.060842 0.153828
H8    H     H_    0.448509 0.656190 0.745126 0.163750
H9    H     H_    0.371182 0.826985 0.529706 0.159316
H10   H     H_    0.867619 0.288207 0.683850 0.318643
H11   H     H_    0.052962 0.344342 0.762223 0.344363
H12   H     H_    0.704916 0.820827 0.478467 0.160709
H13   H     H_    0.484575 0.349242 0.206329 0.331703
H14   H     H_    0.284327 0.989135 0.532840 0.142058
H15   H     H_    0.717187 0.010816 0.470222 0.144109
H16   H     H_    0.295820 0.179147 0.523144 0.170156
H17   H     H_    0.630180 0.172826 0.472999 0.170912
H18   H     H_    0.777968 0.589988 0.388813 0.158493
H19   H     H_    0.944261 0.641992 0.324352 0.143443
H20   H     H_    0.156797 0.628387 0.344976 0.127932
N1    N     N_R   0.798200 0.480260 0.519790 -0.112942
N2    N     N_R   0.201820 0.519740 0.480210 -0.118374
O1    O     O_R   0.579910 0.341070 0.505280 -0.570944
O2    O     O_3   0.079208 0.350153 0.699451 -0.784025
O3    O     O_3   0.519846 0.387527 0.158020 -0.782111
O4    O     O_R   0.388440 0.353740 0.492580 -0.627890
O5    O     O_R   0.643280 0.490550 0.663120 -0.562542
O6    O     O_R   0.451810 0.503220 0.650420 -0.621819
O7    O     O_R   0.611560 0.646260 0.507420 -0.625886
O8    O     O_R   0.420090 0.658930 0.494720 -0.633627
O9    O     O_R   0.548190 0.496780 0.349580 -0.599627
O10   O     O_R   0.356720 0.509450 0.336880 -0.616090
O11   O     O_3   0.824054 0.353742 0.661468 -0.755049
Zn1   Zn    Zn3+2 0.627850 0.491540 0.508480 0.994444
Zn2   Zn    Zn3+2 0.372150 0.508460 0.491520 0.938771

loop_
_geom_bond_atom_site_label_1
_geom_bond_atom_site_label_2
_ccdc_geom_bond_type
C8    H17   S    
C6    C10   A    
C5    C8    A    
C2    C4    S    
C18   H3    S    
C21   N1    A    
C6    C7    A    
N1    Zn1   S    
C13   H12   S    
C9    C10   A    
C4    O6    A    
C22   O11   S    
O8    Zn2   S    
C3    C13   A    
O5    Zn1   S    
C17   N2    A    
C24   O2    S    
C23   C34   A    
C27   C35   A    
C32   C33   A    
O9    Zn1   S    
C22   N1    A    
C19   C24   A    
C8    C9    A    
C9    C14   A    
C34   H8    S    
C35   O3    S    
C13   C14   A    
C1    O4    A    
C26   C32   A    
C12   C23   A    
C26   H4    S    
C29   C30   A    
C25   O10   A    
O10   Zn2   S    
C1    C5    S    
C7    H16   S    
C22   C24   A    
C26   C36   A    
C36   H1    S    
C25   O9    A    
O4    Zn2   S    
C33   C34   A    
C17   H20   S    
C1    O1    A    
C12   C31   A    
C21   H18   S    
C27   C36   A    
C31   C35   A    
N2    Zn2   S    
C11   H9    S    
C3    C11   A    
C10   C11   A    
O1    Zn1   S    
C19   C20   A    
O7    Zn1   S    
C4    O5    A    
C28   H5    S    
C16   O8    A    
C20   C21   A    
C14   H15   S    
C15   C17   A    
H13   O3    S    
O6    Zn2   S    
C2    C23   A    
C5    C7    A    
C18   C19   A    
C28   C29   A    
H10   O11   S    
C2    C28   A    
C16   O7    A    
C6    H14   S    
C12   C30   A    
H11   O2    S    
C30   H6    S    
C18   N2    A    
C31   C32   A    
C29   H7    S    
C3    C16   S    
C33   H2    S    
C15   C20   A    
C25   C27   S    
C15   H19   S    
