data_mof_unit_39678.cif
_audit_creation_date              2012-12-10T22:11:08-0500
_audit_creation_method            fapswitch 2.2
_symmetry_space_group_name_H-M    P1
_symmetry_Int_Tables_number       1
_space_group_crystal_system       triclinic
_cell_length_a                    12.13342
_cell_length_b                    12.319132
_cell_length_c                    23.013275
_cell_angle_alpha                 91.001354
_cell_angle_beta                  90.866742
_cell_angle_gamma                 91.038213
_cell_volume                      3438.36759594

loop_
_atom_site_label
_atom_site_type_symbol
_atom_type_description
_atom_site_fract_x
_atom_site_fract_y
_atom_site_fract_z
_atom_type_partial_charge
C1    C     C_R   0.656686 0.998494 0.579640 0.870697
C2    C     C_R   0.343314 0.001506 0.420360 0.870688
C3    C     C_R   0.896632 0.764261 0.151753 -0.170370
C4    C     C_R   0.103379 0.235717 0.848258 -0.170380
C5    C     C_R   0.086950 0.889421 0.173519 -0.157038
C6    C     C_R   0.913041 0.110598 0.826470 -0.157028
C7    C     C_R   0.086943 0.809295 0.130914 -0.186044
C8    C     C_R   0.913048 0.190723 0.869076 -0.186041
C9    C     C_R   0.894405 0.127836 0.172934 0.206448
C10   C     C_R   0.105604 0.872147 0.827056 0.206430
C11   C     C_R   0.898786 0.210553 0.133110 -0.179364
C12   C     C_R   0.101223 0.789428 0.866879 -0.179358
C13   C     C_R   0.141524 0.907353 0.305126 -0.166765
C14   C     C_R   0.858506 0.092653 0.694859 -0.166742
C15   C     C_R   0.222863 0.905593 0.347937 -0.182968
C16   C     C_R   0.777167 0.094413 0.652047 -0.182970
C17   C     C_R   0.852509 0.110172 0.312721 0.185018
C18   C     C_R   0.147465 0.889825 0.687266 0.185035
C19   C     C_R   0.770897 0.103794 0.353958 -0.177281
C20   C     C_R   0.229076 0.896201 0.646029 -0.177279
C21   C     C_3   0.993756 0.007858 0.247642 -0.100813
C22   C     C_3   0.006243 0.992142 0.752357 -0.100815
C23   C     C_R   0.655015 0.001941 0.421059 0.887218
C24   C     C_R   0.344983 0.998059 0.578940 0.887221
C25   C     C_R   0.095907 0.006566 0.287636 0.106853
C26   C     C_R   0.904091 0.993435 0.712365 0.106855
C27   C     C_R   0.259027 0.002500 0.375008 -0.030050
C28   C     C_R   0.740972 0.997500 0.624992 -0.030056
C29   C     C_R   0.900420 0.011984 0.291429 0.109174
C30   C     C_R   0.099575 0.988016 0.708569 0.109184
C31   C     C_R   0.740077 0.004633 0.377698 -0.068183
C32   C     C_R   0.259918 0.995366 0.622300 -0.068182
C33   C     C_R   0.991943 0.101056 0.204806 0.105102
C34   C     C_R   0.008058 0.898946 0.795194 0.105113
C35   C     C_R   0.997736 0.265184 0.122174 -0.063135
C36   C     C_R   0.002265 0.734818 0.877826 -0.063139
C37   C     C_R   0.991959 0.908697 0.206485 0.106811
C38   C     C_R   0.008041 0.091304 0.793514 0.106807
C39   C     C_R   0.991546 0.747035 0.119558 -0.030880
C40   C     C_R   0.008454 0.252964 0.880442 -0.030886
C41   C     C_R   0.993020 0.661779 0.075533 0.868560
C42   C     C_R   0.006980 0.338221 0.924467 0.868564
C43   C     C_R   0.998986 0.351357 0.080295 0.885305
C44   C     C_R   0.001014 0.648644 0.919705 0.885308
C45   C     C_R   0.132810 0.102848 0.316061 -0.160019
C46   C     C_R   0.867156 0.897147 0.683956 -0.160019
C47   C     C_R   0.214145 0.101133 0.358558 -0.181712
C48   C     C_R   0.785822 0.898862 0.641459 -0.181701
C49   C     C_R   0.874352 0.914469 0.320188 -0.194796
C50   C     C_R   0.125663 0.085538 0.679820 -0.194800
C51   C     C_R   0.793408 0.910194 0.361528 -0.185703
C52   C     C_R   0.206607 0.089812 0.638480 -0.185696
C53   C     C_R   0.092508 0.152000 0.189320 -0.205831
C54   C     C_R   0.907488 0.848026 0.810694 -0.205828
C55   C     C_R   0.094942 0.234351 0.149520 -0.171469
C56   C     C_R   0.905053 0.765674 0.850494 -0.171472
C57   C     C_R   0.896749 0.844110 0.194862 -0.148613
C58   C     C_R   0.103261 0.155869 0.805149 -0.148625
H1    H     H_    0.240462 0.177239 0.379093 0.168141
H2    H     H_    0.759478 0.822750 0.620938 0.168145
H3    H     H_    0.916614 0.839945 0.310375 0.147804
H4    H     H_    0.083418 0.160068 0.689641 0.147795
H5    H     H_    0.171029 0.127750 0.207079 0.153002
H6    H     H_    0.828965 0.872295 0.792946 0.152988
H7    H     H_    0.820726 0.855632 0.217563 0.175896
H8    H     H_    0.179289 0.144334 0.782455 0.175902
H9    H     H_    0.161580 0.937603 0.180413 0.144931
H10   H     H_    0.838403 0.062432 0.819568 0.144921
H11   H     H_    0.112298 0.830123 0.287269 0.144226
H12   H     H_    0.887754 0.169884 0.712704 0.144213
H13   H     H_    0.773833 0.833208 0.381319 0.169070
H14   H     H_    0.226199 0.166802 0.618697 0.169070
H15   H     H_    0.173248 0.273106 0.139877 0.169401
H16   H     H_    0.826741 0.726936 0.860147 0.169404
H17   H     H_    0.822299 0.715921 0.143753 0.166502
H18   H     H_    0.177719 0.284041 0.856267 0.166506
H19   H     H_    0.161352 0.797201 0.106370 0.165075
H20   H     H_    0.838631 0.202832 0.893610 0.165077
H21   H     H_    0.823716 0.231932 0.110313 0.185802
H22   H     H_    0.176298 0.768034 0.889667 0.185806
H23   H     H_    0.256028 0.828189 0.360387 0.162731
H24   H     H_    0.744028 0.171821 0.639584 0.162734
H25   H     H_    0.732306 0.177966 0.368339 0.187368
H26   H     H_    0.267651 0.822025 0.631640 0.187369
H27   H     H_    0.099283 0.180310 0.305495 0.178531
H28   H     H_    0.900656 0.819679 0.694536 0.178534
O1    O     O_R   0.621380 0.090460 0.561410 -0.625862
O2    O     O_R   0.378620 0.909540 0.438590 -0.625861
O3    O     O_R   0.617150 0.909540 0.438590 -0.626334
O4    O     O_R   0.382850 0.090460 0.561410 -0.626337
O5    O     O_R   0.619720 0.093230 0.440890 -0.626436
O6    O     O_R   0.380280 0.906770 0.559110 -0.626436
O7    O     O_R   0.618800 0.906770 0.559110 -0.627518
O8    O     O_R   0.381200 0.093230 0.440890 -0.627517
O9    O     O_R   0.087590 0.627480 0.058790 -0.628009
O10   O     O_R   0.912410 0.372520 0.941210 -0.628011
O11   O     O_R   0.905660 0.383870 0.059980 -0.625624
O12   O     O_R   0.094340 0.616130 0.940020 -0.625629
O13   O     O_R   0.092570 0.390420 0.063230 -0.625521
O14   O     O_R   0.907430 0.609580 0.936770 -0.625520
O15   O     O_R   0.900680 0.620930 0.055550 -0.621431
O16   O     O_R   0.099320 0.379070 0.944450 -0.621436
Zn1   Zn    Zn3+2 0.501730 0.123520 0.501540 0.970417
Zn2   Zn    Zn3+2 0.498270 0.876480 0.498460 0.970419
Zn3   Zn    Zn3+2 0.125690 0.504390 0.002180 0.975443
Zn4   Zn    Zn3+2 0.874310 0.495610 0.997820 0.975447
I1    I     I_    0.732270 0.059049 0.180066 -0.407011
I2    I     I_    0.267748 0.940908 0.819911 -0.407029
I3    I     I_    0.891634 0.276218 0.293476 -0.420741
I4    I     I_    0.108317 0.723780 0.706503 -0.420743

loop_
_geom_bond_atom_site_label_1
_geom_bond_atom_site_label_2
_ccdc_geom_bond_type
C16   C28   A    
C9    C33   A    
C1    O1    A    
C5    C37   A    
C53   H5    S    
C17   C29   A    
C10   I2    S    
C5    H9    S    
C19   C31   A    
C39   C41   S    
C29   C49   A    
O12   Zn3   S    
C13   H11   S    
C42   O10   A    
C43   O13   A    
C19   H25   S    
C21   C33   S    
C22   C38   S    
C42   O16   A    
O16   Zn3   S    
C45   C47   A    
C32   C52   A    
C21   C25   S    
O9    Zn3   S    
C38   C58   A    
C44   O12   A    
C11   C35   A    
C58   H8    S    
C4    C40   A    
C49   C51   A    
C1    C28   S    
C50   C52   A    
C6    C38   A    
C2    O2    A    
C2    C27   S    
C18   C30   A    
C12   C36   A    
C3    H17   S    
C18   C20   A    
C7    H19   S    
C6    H10   S    
C30   C50   A    
C3    C39   A    
C8    H20   S    
C14   H12   S    
C13   C25   A    
C11   H21   S    
C51   H13   S    
O13   Zn3   S    
C24   O6    A    
O7    Zn2   S    
C16   H24   S    
O2    Zn2   S    
C48   H2    S    
C46   C48   A    
C53   C55   A    
C33   C53   A    
C22   C34   S    
C54   C56   A    
C49   H3    S    
C35   C55   A    
C18   I4    S    
C2    O8    A    
C56   H16   S    
C15   H23   S    
O5    Zn1   S    
C5    C7    A    
C26   C46   A    
C6    C8    A    
C21   C29   S    
C24   O4    A    
C23   C31   S    
C45   H27   S    
C24   C32   S    
C52   H14   S    
C31   C51   A    
C15   C27   A    
C23   O3    A    
C10   C34   A    
C14   C26   A    
C9    C11   A    
C10   C12   A    
O1    Zn1   S    
O11   Zn4   S    
C3    C57   A    
O8    Zn1   S    
C34   C54   A    
C13   C15   A    
O3    Zn2   S    
C50   H4    S    
C14   C16   A    
C36   C44   S    
C25   C45   A    
C35   C43   S    
C20   C32   A    
C27   C47   A    
O15   Zn4   S    
O10   Zn4   S    
C28   C48   A    
C22   C30   S    
C43   O11   A    
C57   H7    S    
C17   I3    S    
C9    I1    S    
O14   Zn4   S    
C20   H26   S    
C44   O14   A    
C41   O9    A    
C54   H6    S    
C12   H22   S    
C40   C42   S    
C36   C56   A    
C17   C19   A    
C41   O15   A    
C23   O5    A    
O4    Zn1   S    
C4    H18   S    
O6    Zn2   S    
C47   H1    S    
C55   H15   S    
C21   C37   S    
C1    O7    A    
C22   C26   S    
C4    C58   A    
C7    C39   A    
C8    C40   A    
C37   C57   A    
C46   H28   S    
