data_mof_unit_64000.cif
_audit_creation_date              2012-12-10T17:40:19-0500
_audit_creation_method            fapswitch 2.2
_symmetry_space_group_name_H-M    P1
_symmetry_Int_Tables_number       1
_space_group_crystal_system       triclinic
_cell_length_a                    37.307814
_cell_length_b                    30.376986
_cell_length_c                    21.928851
_cell_angle_alpha                 90.832372
_cell_angle_beta                  125.440682
_cell_angle_gamma                 89.331721
_cell_volume                      20244.9864355

loop_
_atom_site_label
_atom_site_type_symbol
_atom_type_description
_atom_site_fract_x
_atom_site_fract_y
_atom_site_fract_z
_atom_type_partial_charge
C1    C     C_R   0.414921 0.500038 0.915514 0.828053
C2    C     C_R   0.585101 0.499876 0.084614 0.825892
C3    C     C_R   0.914923 0.000038 0.915517 0.828216
C4    C     C_R   0.085102 0.999876 0.084615 0.825831
C5    C     C_2   0.505440 0.496573 0.821806 0.468399
C6    C     C_2   0.494560 0.503393 0.178196 0.461569
C7    C     C_2   0.005439 0.996573 0.821804 0.468405
C8    C     C_2   0.994560 0.003393 0.178195 0.461576
C9    C     C_R   0.296854 0.467220 0.826546 -0.264269
C10   C     C_R   0.703461 0.465334 0.176045 -0.266002
C11   C     C_R   0.796866 0.967276 0.826713 -0.264301
C12   C     C_R   0.203464 0.965317 0.176099 -0.265977
C13   C     C_R   0.342951 0.465962 0.872374 0.438560
C14   C     C_R   0.657369 0.464091 0.130347 0.440388
C15   C     C_R   0.842965 0.966025 0.872549 0.438544
C16   C     C_R   0.157372 0.964073 0.130403 0.440392
C17   C     C_R   0.366608 0.500002 0.867619 -0.109078
C18   C     C_R   0.633454 0.499547 0.132861 -0.117955
C19   C     C_R   0.866614 0.000001 0.867632 -0.108895
C20   C     C_R   0.133455 0.999547 0.132865 -0.118010
C21   C     C_R   0.343851 0.533862 0.815674 -0.253328
C22   C     C_R   0.656023 0.534726 0.182875 -0.252625
C23   C     C_R   0.843854 0.033790 0.815535 -0.253363
C24   C     C_R   0.156024 0.034746 0.182830 -0.252604
C25   C     C_R   0.298051 0.534006 0.768679 -0.166659
C26   C     C_R   0.701816 0.534869 0.229906 -0.168793
C27   C     C_R   0.798055 0.033925 0.768539 -0.166608
C28   C     C_R   0.201818 0.034891 0.229861 -0.168805
C29   C     C_R   0.274283 0.500805 0.774054 0.044164
C30   C     C_R   0.725789 0.500316 0.226452 0.042177
C31   C     C_R   0.774289 0.000788 0.774063 0.044214
C32   C     C_R   0.225791 0.000321 0.226455 0.042159
C33   C     C_R   0.203021 0.508059 0.648349 -0.171900
C34   C     C_R   0.796998 0.509553 0.351716 -0.172205
C35   C     C_R   0.703025 0.007950 0.648327 -0.171894
C36   C     C_R   0.296999 0.009591 0.351708 -0.172205
C37   C     C_R   0.157152 0.507492 0.602325 -0.186839
C38   C     C_R   0.842868 0.509091 0.397646 -0.187024
C39   C     C_R   0.657156 0.007391 0.602306 -0.186831
C40   C     C_R   0.342870 0.009126 0.397638 -0.187028
C41   C     C_R   0.133521 0.500566 0.633047 -0.031838
C42   C     C_R   0.866501 0.500403 0.367056 -0.031316
C43   C     C_R   0.633523 0.000560 0.633049 -0.031865
C44   C     C_R   0.366502 0.000404 0.367057 -0.031304
C45   C     C_R   0.501632 0.499482 0.884130 0.747780
C46   C     C_R   0.498359 0.500510 0.115860 0.750248
C47   C     C_R   0.001632 0.999483 0.884129 0.747753
C48   C     C_R   0.998359 0.000510 0.115860 0.750326
C49   C     C_R   0.156513 0.494231 0.710474 -0.187764
C50   C     C_R   0.843531 0.492121 0.289891 -0.187788
C51   C     C_R   0.656515 0.994313 0.710498 -0.187751
C52   C     C_R   0.343532 0.992091 0.289901 -0.187791
C53   C     C_R   0.202306 0.494459 0.756289 -0.166485
C54   C     C_R   0.797729 0.492154 0.244199 -0.166680
C55   C     C_R   0.702309 0.994537 0.756313 -0.166493
C56   C     C_R   0.297730 0.992125 0.244209 -0.166676
C57   C     C_R   0.225881 0.501317 0.725570 0.128216
C58   C     C_R   0.774163 0.500860 0.274781 0.127787
C59   C     C_R   0.725885 0.001298 0.725573 0.128225
C60   C     C_R   0.274165 0.000864 0.274782 0.127783
C61   C     C_R   0.500064 0.414885 0.500165 0.789341
C62   C     C_R   0.000064 0.914885 0.500165 0.789338
C63   C     C_R   0.499607 0.501926 0.617045 0.825602
C64   C     C_R   0.500391 0.498045 0.382952 0.825861
C65   C     C_R   0.999607 0.001927 0.617045 0.825603
C66   C     C_R   0.000391 0.998045 0.382952 0.825867
C67   C     C_R   0.499925 0.585117 0.499787 0.789264
C68   C     C_R   0.999925 0.085117 0.499787 0.789265
C69   C     C_R   0.999922 0.414881 0.499551 0.790818
C70   C     C_R   0.499922 0.914881 0.499551 0.790820
C71   C     C_R   0.085147 0.500151 0.584929 0.792147
C72   C     C_R   0.914861 0.500128 0.415090 0.791734
C73   C     C_R   0.585148 0.000149 0.584930 0.792151
C74   C     C_R   0.414861 0.000129 0.415090 0.791729
C75   C     C_R   0.999968 0.585134 0.500337 0.790542
C76   C     C_R   0.499968 0.085134 0.500337 0.790545
C77   C     C_R   0.462556 0.297291 0.445530 -0.166871
C78   C     C_R   0.537472 0.297496 0.557425 -0.166713
C79   C     C_R   0.962560 0.797291 0.445520 -0.166870
C80   C     C_R   0.037469 0.797497 0.557435 -0.166713
C81   C     C_R   0.999290 0.274173 0.497451 0.100122
C82   C     C_R   0.499290 0.774173 0.497451 0.100121
C83   C     C_R   0.462502 0.343149 0.445336 -0.183063
C84   C     C_R   0.537682 0.343373 0.556596 -0.172369
C85   C     C_R   0.962505 0.843149 0.445326 -0.183071
C86   C     C_R   0.037679 0.843373 0.556606 -0.172363
C87   C     C_R   0.500133 0.366542 0.500670 -0.026450
C88   C     C_R   0.000133 0.866542 0.500669 -0.026444
C89   C     C_R   0.499982 0.274210 0.501681 0.099621
C90   C     C_R   0.999982 0.774210 0.501681 0.099619
C91   C     C_R   0.013274 0.702964 0.566692 -0.165068
C92   C     C_R   0.986638 0.702338 0.436182 -0.170350
C93   C     C_R   0.513286 0.202963 0.566698 -0.165069
C94   C     C_R   0.486625 0.202337 0.436176 -0.170342
C95   C     C_R   0.012874 0.657059 0.566202 -0.183566
C96   C     C_R   0.986889 0.656485 0.435976 -0.182189
C97   C     C_R   0.512886 0.157059 0.566208 -0.183570
C98   C     C_R   0.486876 0.156485 0.435969 -0.182181
C99   C     C_R   0.999866 0.633486 0.500902 -0.029676
C100  C     C_R   0.499866 0.133486 0.500902 -0.029670
C101  C     C_R   0.999986 0.725838 0.501587 0.100435
C102  C     C_R   0.499985 0.225838 0.501587 0.100434
C103  C     C_R   0.461774 0.702912 0.478842 -0.166506
C104  C     C_R   0.537069 0.702321 0.516596 -0.166678
C105  C     C_R   0.961775 0.202912 0.478846 -0.166504
C106  C     C_R   0.037068 0.202321 0.516591 -0.166676
C107  C     C_R   0.461842 0.657037 0.479058 -0.181262
C108  C     C_R   0.537400 0.656453 0.518003 -0.173846
C109  C     C_R   0.961843 0.157036 0.479063 -0.181261
C110  C     C_R   0.037399 0.156453 0.517999 -0.173844
C111  C     C_R   0.499736 0.633462 0.499020 -0.026222
C112  C     C_R   0.999736 0.133462 0.499020 -0.026220
C113  C     C_R   0.013007 0.296939 0.459196 -0.165061
C114  C     C_R   0.985684 0.297784 0.536137 -0.170342
C115  C     C_R   0.513007 0.796939 0.459196 -0.165061
C116  C     C_R   0.485684 0.797784 0.536137 -0.170344
C117  C     C_R   0.499335 0.725800 0.497387 0.099941
C118  C     C_R   0.999335 0.225800 0.497387 0.099942
C119  C     C_R   0.999617 0.366530 0.498536 -0.029857
C120  C     C_R   0.499617 0.866530 0.498536 -0.029855
C121  C     C_R   0.012820 0.342845 0.459195 -0.183982
C122  C     C_R   0.986169 0.343642 0.537176 -0.182466
C123  C     C_R   0.512820 0.842845 0.459195 -0.183985
C124  C     C_R   0.486169 0.843642 0.537176 -0.182464
C125  C     C_2   0.529447 0.523951 0.746278 -0.116099
C126  C     C_2   0.470520 0.476013 0.253680 -0.118923
C127  C     C_2   0.029448 0.023949 0.746280 -0.116105
C128  C     C_2   0.970518 0.976014 0.253678 -0.118938
C129  C     C_2   0.497213 0.506222 0.680692 -0.224082
C130  C     C_2   0.502780 0.493703 0.319295 -0.223420
C131  C     C_2   0.997213 0.006223 0.680692 -0.224077
C132  C     C_2   0.002780 0.993702 0.319295 -0.223440
C133  C     C_2   0.524436 0.528392 0.807994 -0.287589
C134  C     C_2   0.475503 0.471592 0.191922 -0.281961
C135  C     C_2   0.024438 0.028390 0.807995 -0.287609
C136  C     C_2   0.975501 0.971593 0.191920 -0.281896
Cu1   Cu    Cu3+1 0.500000 0.544050 0.000000 0.977208
Cu2   Cu    Cu3+1 0.000000 0.044050 0.000000 0.977239
Cu3   Cu    Cu3+1 0.500000 0.455950 0.000000 0.978420
Cu4   Cu    Cu3+1 0.000000 0.955950 0.000000 0.978424
Cu5   Cu    Cu3+1 0.544050 0.500000 0.544060 0.954680
Cu6   Cu    Cu3+1 0.455950 0.500000 0.455940 0.956729
Cu7   Cu    Cu3+1 0.044050 0.000000 0.544060 0.954678
Cu8   Cu    Cu3+1 0.955950 0.000000 0.455940 0.956735
Cu9   Cu    Cu3+1 0.000010 0.500010 0.438990 0.940431
Cu10  Cu    Cu3+1 0.999990 0.500010 0.561010 0.940306
Cu11  Cu    Cu3+1 0.500010 0.000010 0.438990 0.940434
Cu12  Cu    Cu3+1 0.499990 0.000010 0.561010 0.940299
H1    H     H_    0.558555 0.537406 0.753537 0.155514
H2    H     H_    0.441391 0.462603 0.246405 0.155533
H3    H     H_    0.058558 0.037401 0.753539 0.155517
H4    H     H_    0.941389 0.962606 0.246403 0.155539
H5    H     H_    0.140243 0.512587 0.542841 0.152750
H6    H     H_    0.859786 0.515720 0.456930 0.152495
H7    H     H_    0.640248 0.012415 0.542803 0.152767
H8    H     H_    0.359787 0.015781 0.456915 0.152486
H9    H     H_    0.139162 0.488862 0.735719 0.154471
H10   H     H_    0.860917 0.485314 0.264820 0.154185
H11   H     H_    0.639164 0.989018 0.735763 0.154482
H12   H     H_    0.360918 0.985257 0.264839 0.154178
H13   H     H_    0.219348 0.489632 0.815883 0.135445
H14   H     H_    0.780661 0.485752 0.184803 0.135858
H15   H     H_    0.719349 0.989783 0.815925 0.135428
H16   H     H_    0.280662 0.985696 0.184820 0.135865
H17   H     H_    0.023395 0.279164 0.428718 0.134561
H18   H     H_    0.975259 0.280693 0.566355 0.130119
H19   H     H_    0.523395 0.779164 0.428718 0.134561
H20   H     H_    0.475259 0.780692 0.566355 0.130120
H21   H     H_    0.433245 0.279796 0.402304 0.131105
H22   H     H_    0.566744 0.280138 0.600913 0.131949
H23   H     H_    0.933252 0.779795 0.402286 0.131104
H24   H     H_    0.066737 0.780139 0.600932 0.131950
H25   H     H_    0.433178 0.360270 0.401498 0.149760
H26   H     H_    0.567037 0.360698 0.600050 0.153831
H27   H     H_    0.933184 0.860270 0.401480 0.149751
H28   H     H_    0.067031 0.860699 0.600068 0.153829
H29   H     H_    0.023442 0.720654 0.617557 0.134235
H30   H     H_    0.976543 0.719505 0.385557 0.129794
H31   H     H_    0.523463 0.220653 0.617568 0.134228
H32   H     H_    0.476521 0.219505 0.385546 0.129799
H33   H     H_    0.023167 0.640039 0.617032 0.150715
H34   H     H_    0.976575 0.639052 0.384840 0.150495
H35   H     H_    0.523188 0.140038 0.617043 0.150704
H36   H     H_    0.476553 0.139051 0.384828 0.150492
H37   H     H_    0.023456 0.359778 0.429173 0.150485
H38   H     H_    0.975674 0.361173 0.567684 0.150260
H39   H     H_    0.523456 0.859778 0.429173 0.150482
H40   H     H_    0.475674 0.861173 0.567684 0.150261
H41   H     H_    0.432285 0.720570 0.463504 0.130757
H42   H     H_    0.566443 0.719525 0.531531 0.131168
H43   H     H_    0.932287 0.220570 0.463512 0.130756
H44   H     H_    0.066442 0.219525 0.531523 0.131167
H45   H     H_    0.466093 0.497645 0.671044 0.192758
H46   H     H_    0.533911 0.502233 0.328951 0.192586
H47   H     H_    0.966093 0.997648 0.671043 0.192764
H48   H     H_    0.033912 0.002230 0.328951 0.192581
H49   H     H_    0.432428 0.640046 0.464386 0.150104
H50   H     H_    0.566962 0.638993 0.533276 0.152668
H51   H     H_    0.932430 0.140046 0.464394 0.150103
H52   H     H_    0.066961 0.138993 0.533268 0.152668
H53   H     H_    0.538494 0.557056 0.844614 0.128462
H54   H     H_    0.461364 0.442976 0.155187 0.138294
H55   H     H_    0.038499 0.057052 0.844620 0.128461
H56   H     H_    0.961361 0.942978 0.155183 0.138307
H57   H     H_    0.278653 0.441906 0.831877 0.135721
H58   H     H_    0.721854 0.438900 0.172293 0.137757
H59   H     H_    0.778666 0.942019 0.832166 0.135635
H60   H     H_    0.221857 0.938867 0.172386 0.137788
H61   H     H_    0.361559 0.559987 0.810832 0.167357
H62   H     H_    0.638184 0.561960 0.186156 0.175063
H63   H     H_    0.861561 0.059865 0.810575 0.167260
H64   H     H_    0.138185 0.061995 0.186073 0.175081
H65   H     H_    0.281137 0.560459 0.728978 0.141840
H66   H     H_    0.718571 0.562355 0.268067 0.143864
H67   H     H_    0.781139 0.060325 0.728718 0.141819
H68   H     H_    0.218572 0.062393 0.267982 0.143865
H69   H     H_    0.220675 0.513072 0.623540 0.129983
H70   H     H_    0.779322 0.516035 0.376372 0.130646
H71   H     H_    0.720679 0.012888 0.623498 0.129971
H72   H     H_    0.279323 0.016099 0.376356 0.130650
O1    O     O_R   0.435730 0.537200 0.935720 -0.592546
O2    O     O_R   0.564270 0.537200 0.064280 -0.593265
O3    O     O_R   0.935730 0.037200 0.935720 -0.592518
O4    O     O_R   0.064270 0.037200 0.064280 -0.593274
O5    O     O_R   0.064280 0.500010 0.512760 -0.589124
O6    O     O_R   0.935720 0.500010 0.487240 -0.589147
O7    O     O_R   0.564280 0.000010 0.512760 -0.589128
O8    O     O_R   0.435720 0.000010 0.487240 -0.589144
O9    O     O_R   0.064270 0.500010 0.615800 -0.589172
O10   O     O_R   0.935730 0.500010 0.384200 -0.589009
O11   O     O_R   0.564270 0.000010 0.615800 -0.589182
O12   O     O_R   0.435730 0.000010 0.384200 -0.589006
O13   O     O_R   0.000010 0.564280 0.448470 -0.588275
O14   O     O_R   0.999990 0.564280 0.551530 -0.587760
O15   O     O_R   0.500010 0.064280 0.448470 -0.588261
O16   O     O_R   0.499990 0.064280 0.551530 -0.587767
O17   O     O_R   0.435730 0.462800 0.935730 -0.558309
O18   O     O_R   0.564270 0.462800 0.064270 -0.558149
O19   O     O_R   0.935730 0.962800 0.935730 -0.558415
O20   O     O_R   0.064270 0.962800 0.064270 -0.558123
O21   O     O_R   0.500010 0.537200 0.910980 -0.624456
O22   O     O_R   0.499990 0.537200 0.089020 -0.534503
O23   O     O_R   0.000010 0.037200 0.910980 -0.624464
O24   O     O_R   0.999990 0.037200 0.089020 -0.534503
O25   O     O_R   0.500010 0.462800 0.910980 -0.533334
O26   O     O_R   0.499990 0.462800 0.089020 -0.623602
O27   O     O_R   0.000010 0.962800 0.910980 -0.533309
O28   O     O_R   0.999990 0.962800 0.089020 -0.623633
O29   O     O_R   0.537200 0.435730 0.537210 -0.588495
O30   O     O_R   0.462800 0.435730 0.462790 -0.589544
O31   O     O_R   0.037200 0.935730 0.537210 -0.588496
O32   O     O_R   0.962800 0.935730 0.462790 -0.589540
O33   O     O_R   0.537190 0.500000 0.626220 -0.576146
O34   O     O_R   0.462810 0.500000 0.373780 -0.575658
O35   O     O_R   0.037190 0.000000 0.626220 -0.576149
O36   O     O_R   0.962810 0.000000 0.373780 -0.575656
O37   O     O_R   0.462790 0.500000 0.551820 -0.587870
O38   O     O_R   0.537210 0.500000 0.448180 -0.588304
O39   O     O_R   0.962790 1.000000 0.551820 -0.587867
O40   O     O_R   0.037210 0.000000 0.448180 -0.588306
O41   O     O_R   0.537200 0.564270 0.537200 -0.591464
O42   O     O_R   0.462800 0.564270 0.462800 -0.586600
O43   O     O_R   0.037200 0.064270 0.537200 -0.591464
O44   O     O_R   0.962800 0.064270 0.462800 -0.586599
O45   O     O_R   1.000000 0.435740 0.448480 -0.587450
O46   O     O_R   1.000000 0.435740 0.551520 -0.587977
O47   O     O_R   0.500000 0.935740 0.448480 -0.587458
O48   O     O_R   0.500000 0.935740 0.551520 -0.587969
F1    F     F_    0.494285 0.457475 0.783845 -0.654163
F2    F     F_    0.505802 0.542453 0.216275 -0.655262
F3    F     F_    0.994279 0.957476 0.783839 -0.654143
F4    F     F_    0.005804 0.042453 0.216276 -0.655261
O49   O     O_3   0.365000 0.434253 0.927170 -0.577846
C137  C     C_3   0.359976 0.392790 0.893110 0.085584
H73   H     H_    0.367882 0.394357 0.851297 0.144953
H74   H     H_    0.325871 0.380391 0.865300 0.131886
C138  C     C_3   0.391441 0.360099 0.953049 -0.765509
H75   H     H_    0.384069 0.357140 0.995156 0.242470
H76   H     H_    0.387802 0.327282 0.927098 0.191151
H77   H     H_    0.425918 0.371357 0.981484 0.251978
O50   O     O_3   0.635605 0.430628 0.077926 -0.566946
C139  C     C_3   0.640753 0.390917 0.115020 0.079170
H78   H     H_    0.632422 0.395323 0.156077 0.135964
H79   H     H_    0.675017 0.378260 0.144406 0.131321
C140  C     C_3   0.609828 0.356566 0.057503 -0.737940
H80   H     H_    0.617622 0.350787 0.016234 0.250269
H81   H     H_    0.613600 0.325106 0.085895 0.183258
H82   H     H_    0.575203 0.368040 0.027629 0.253986
O51   O     O_3   0.865026 0.934411 0.927525 -0.577928
C141  C     C_3   0.859959 0.892853 0.893700 0.085596
H83   H     H_    0.867784 0.894252 0.851767 0.144870
H84   H     H_    0.825865 0.880473 0.866091 0.131930
C142  C     C_3   0.891474 0.860260 0.953802 -0.765586
H85   H     H_    0.884191 0.857468 0.996048 0.242449
H86   H     H_    0.887797 0.827365 0.928043 0.191129
H87   H     H_    0.925943 0.871491 0.982034 0.251971
O52   O     O_3   0.135613 0.930583 0.078039 -0.566914
C143  C     C_3   0.140740 0.890908 0.115202 0.079193
H88   H     H_    0.132368 0.895368 0.156196 0.135987
H89   H     H_    0.175009 0.878251 0.144674 0.131293
C144  C     C_3   0.109841 0.856525 0.057733 -0.738005
H90   H     H_    0.117680 0.850692 0.016534 0.250246
H91   H     H_    0.113593 0.825096 0.086181 0.183267
H92   H     H_    0.075212 0.868002 0.027769 0.253992

loop_
_geom_bond_atom_site_label_1
_geom_bond_atom_site_label_2
_ccdc_geom_bond_type
C28   H68   S    
Cu9   O10   S    
Cu10  O14   S    
C55   C59   A    
C6    F2    S    
Cu4   O27   S    
Cu5   O29   S    
C47   O27   A    
Cu9   Cu10  S    
C144  H90   S    
C77   C89   A    
C139  H78   S    
Cu7   O31   S    
C69   O45   A    
C86   C88   A    
Cu3   O17   S    
Cu7   Cu8   S    
C141  C142  S    
C96   C99   A    
Cu4   O20   S    
C1    O1    A    
C137  H73   S    
C31   C59   S    
C9    C13   A    
C79   C90   A    
C80   C86   A    
C11   C15   A    
C12   C16   A    
C61   O30   A    
Cu5   O38   S    
C3    C19   S    
C66   C132  S    
C13   O49   S    
Cu1   O21   S    
C62   O32   A    
C106  C118  A    
C71   O5    A    
C103  C117  A    
C41   C49   A    
C97   H35   S    
C78   C89   A    
C133  H53   S    
C115  C123  A    
C27   C31   A    
C28   C32   A    
C73   O7    A    
C135  H55   S    
Cu9   O5    S    
Cu1   O2    S    
C69   C119  S    
C17   C21   A    
C19   C23   A    
Cu8   O36   S    
C10   C30   A    
Cu2   O4    S    
C16   C20   A    
C42   C72   S    
Cu12  O11   S    
C44   C74   S    
C125  H1    S    
C105  C118  A    
C109  H51   S    
C143  H88   S    
C80   H24   S    
Cu3   O25   S    
C79   C85   A    
C134  H54   S    
C104  C117  A    
C144  H92   S    
Cu5   O41   S    
C131  H47   S    
C35   H71   S    
C70   O48   A    
C33   H69   S    
C76   C100  S    
C56   H16   S    
C108  C111  A    
C25   H65   S    
C55   H15   S    
C140  H81   S    
C113  H17   S    
C52   C56   A    
C49   C53   A    
C65   O35   A    
C95   C99   A    
C127  C131  D    
C4    C20   S    
C125  C129  D    
C94   C102  A    
C48   O28   A    
C34   C58   A    
C126  C130  D    
C116  H20   S    
C103  C107  A    
Cu2   O23   S    
C52   H12   S    
C105  H43   S    
Cu11  Cu12  S    
Cu12  O8    S    
C80   C90   A    
C106  H44   S    
C50   H10   S    
C5    C133  D    
C72   O10   A    
C65   O39   A    
C82   C115  A    
C66   O40   A    
C122  H38   S    
C22   H62   S    
C78   H22   S    
C25   C29   A    
C68   C112  S    
C74   O8    A    
C61   C87   S    
C127  H3    S    
C128  H4    S    
C70   C120  S    
C81   C114  A    
C51   C55   A    
C41   C71   S    
C44   C52   A    
Cu7   O35   S    
C138  H75   S    
C49   H9    S    
C11   H59   S    
C91   C101  A    
C67   O41   A    
C119  C121  A    
C14   O50   S    
C110  H52   S    
C46   O26   A    
C10   C14   A    
C124  H40   S    
Cu11  O7    S    
C95   H33   S    
C1    O17   A    
C39   H7    S    
C142  H85   S    
C75   C99   S    
O51   C141  S    
C71   O9    A    
C76   O16   A    
C126  C134  S    
C92   H30   S    
C42   C50   A    
C66   O36   A    
C26   C30   A    
C93   C97   A    
C68   O44   A    
C97   C100  A    
C85   C88   A    
C21   C25   A    
C3    O3    A    
C18   C22   A    
C107  C111  A    
C24   C28   A    
C64   C130  S    
C139  H79   S    
Cu6   O34   S    
C13   C17   A    
C138  H76   S    
C10   H58   S    
C8    F4    S    
C126  H2    S    
C137  H74   S    
C37   C41   A    
C110  C112  A    
C23   H63   S    
C91   C95   A    
C40   C44   A    
C113  C121  A    
C139  C140  S    
C61   O29   A    
C138  H77   S    
Cu9   O45   S    
Cu10  O9    S    
C83   C87   A    
C43   C73   S    
Cu9   O13   S    
C8    C136  D    
C137  C138  S    
C73   O11   A    
C48   O24   A    
C93   H31   S    
C15   C19   A    
Cu1   Cu3   S    
C50   C54   A    
C127  C135  S    
C142  H87   S    
C128  C136  S    
C54   C58   A    
C94   C98   A    
Cu1   O1    S    
C2    O2    A    
C75   O14   A    
C35   C59   A    
C141  H83   S    
C79   H23   S    
Cu8   O39   S    
C105  C109  A    
C103  H41   S    
C120  C123  A    
C72   O6    A    
Cu3   O18   S    
C27   H67   S    
C143  H89   S    
C84   H26   S    
C144  H91   S    
C37   H5    S    
C74   O12   A    
C45   O25   A    
C69   O46   A    
C107  H49   S    
C53   C57   A    
Cu10  O6    S    
C5    C45   S    
C81   C118  S    
C15   O51   S    
Cu4   O19   S    
C33   C37   A    
C56   C60   A    
Cu6   O37   S    
C7    C47   S    
C35   C39   A    
C8    C48   S    
C140  H80   S    
Cu11  O12   S    
C4    O20   A    
C92   C101  A    
Cu1   O22   S    
C67   C111  S    
C62   O31   A    
C29   C57   S    
C98   C100  A    
Cu7   O43   S    
C32   C60   S    
Cu8   O44   S    
C104  C108  A    
Cu2   O24   S    
C116  C124  A    
C1    C17   S    
C96   H34   S    
C130  H46   S    
C93   C102  A    
C34   H70   S    
C5    F1    S    
C26   H66   S    
Cu5   O33   S    
Cu12  O48   S    
C7    F3    S    
C82   C116  A    
C47   O23   A    
C43   C51   A    
C62   C88   S    
Cu2   O3    S    
C63   O37   A    
C21   H61   S    
C63   C129  S    
C108  H50   S    
C6    C134  D    
C22   C26   A    
C81   C113  A    
Cu6   O42   S    
C82   C117  S    
Cu3   O26   S    
C143  C144  S    
C3    O19   A    
Cu11  O15   S    
Cu6   O30   S    
C89   C102  S    
C2    C18   S    
O52   C143  S    
C14   C18   A    
C84   C87   A    
C92   C96   A    
C36   H72   S    
C24   H64   S    
C70   O47   A    
C12   H60   S    
C38   C42   A    
C140  H82   S    
C77   C83   A    
C91   H29   S    
Cu10  O46   S    
C20   C24   A    
C23   C27   A    
C141  H84   S    
C9    C29   A    
Cu8   O32   S    
C11   C31   A    
C12   C32   A    
C98   H36   S    
C128  C132  D    
C65   C131  S    
C64   O38   A    
C114  H18   S    
C64   O34   A    
C36   C40   A    
Cu11  O47   S    
C109  C112  A    
C2    O18   A    
C39   C43   A    
O50   C139  S    
C4    O4    A    
C16   O52   S    
Cu12  O16   S    
C90   C101  S    
C7    C135  D    
C104  H42   S    
O49   C137  S    
C94   H32   S    
C54   H14   S    
Cu2   Cu4   S    
C83   H25   S    
C38   H6    S    
C115  H19   S    
C45   O21   A    
C136  H56   S    
C67   O42   A    
C106  C110  A    
C119  C122  A    
C125  C133  S    
C33   C57   A    
C6    C46   S    
C34   C38   A    
Cu7   O40   S    
C36   C60   A    
C129  H45   S    
C142  H86   S    
C9    H57   S    
Cu5   Cu6   S    
C53   H13   S    
C63   O33   A    
C30   C58   S    
C51   H11   S    
C85   H27   S    
C75   O13   A    
C76   O15   A    
C86   H28   S    
Cu4   O28   S    
C123  H39   S    
C121  H37   S    
C114  C122  A    
C78   C84   A    
C77   H21   S    
C132  H48   S    
C46   O22   A    
C40   H8    S    
C68   O43   A    
C120  C124  A    
