data_mof_unit_14713.cif
_audit_creation_date              2012-12-10T17:58:54-0500
_audit_creation_method            fapswitch 2.2
_symmetry_space_group_name_H-M    P1
_symmetry_Int_Tables_number       1
_space_group_crystal_system       triclinic
_cell_length_a                    9.543767
_cell_length_b                    10.803441
_cell_length_c                    13.890113
_cell_angle_alpha                 90.444374
_cell_angle_beta                  84.156238
_cell_angle_gamma                 89.546645
_cell_volume                      1424.60747729

loop_
_atom_site_label
_atom_site_type_symbol
_atom_type_description
_atom_site_fract_x
_atom_site_fract_y
_atom_site_fract_z
_atom_type_partial_charge
C1    C     C_R   0.499593 0.737666 0.498987 0.805032
C2    C     C_R   0.936130 0.427136 0.435937 0.364298
C3    C     C_1   0.538667 0.503465 0.213904 -0.208990
C4    C     C_1   0.461398 0.497300 0.786065 -0.205051
C5    C     C_2   0.559121 0.511313 0.022559 0.210099
C6    C     C_2   0.441403 0.490512 0.977391 0.208557
C7    C     C_1   0.450795 0.494457 0.872885 -0.029368
C8    C     C_1   0.549468 0.506872 0.127080 -0.026411
C9    C     C_R   0.592156 0.933787 0.552638 -0.280931
C10   C     C_R   0.406178 0.066389 0.448417 -0.273769
C11   C     C_R   0.593114 0.062357 0.555586 0.150174
C12   C     C_R   0.500262 0.262347 0.501376 0.827015
C13   C     C_R   0.404233 0.937529 0.445848 0.166193
C14   C     C_3   0.092317 0.619656 0.731360 -0.706713
C15   C     C_3   0.895779 0.221863 0.374183 -0.692374
C16   C     C_3   0.189628 0.433748 0.979808 -0.677593
C17   C     C_3   0.808822 0.574455 0.020291 -0.676301
C18   C     C_R   0.500773 0.128507 0.501971 -0.044413
C19   C     C_R   0.498456 0.871536 0.498488 -0.054802
C20   C     C_R   0.476524 0.499770 0.682979 0.833623
C21   C     C_R   0.523482 0.500386 0.317009 0.819469
C22   C     C_R   0.914984 0.573149 0.563107 -0.134687
C23   C     C_R   0.085161 0.428594 0.435663 -0.136184
C24   C     C_R   0.063766 0.572420 0.564338 0.370863
Cu1   Cu    Cu3+1 0.359340 0.499980 0.500000 0.971197
Cu2   Cu    Cu3+1 0.640660 0.500020 0.500000 0.971984
H1    H     H_    0.850049 0.632475 0.612768 0.141649
H2    H     H_    0.007212 0.196518 0.350945 0.191751
H3    H     H_    0.827159 0.172715 0.326767 0.228390
H4    H     H_    0.868014 0.191246 0.449650 0.251812
H5    H     H_    0.312606 0.416868 0.095094 0.250389
H6    H     H_    0.094598 0.421561 0.031878 0.219605
H7    H     H_    0.211410 0.345750 0.938892 0.229574
H8    H     H_    0.167461 0.509134 0.929469 0.235919
H9    H     H_    0.688701 0.580294 0.903057 0.250147
H10   H     H_    0.904349 0.586228 0.968578 0.219278
H11   H     H_    0.832368 0.503019 0.073583 0.236933
H12   H     H_    0.150431 0.372487 0.383810 0.143415
H13   H     H_    0.783410 0.664208 0.057892 0.227794
H14   H     H_    0.786184 0.094418 0.597853 0.210556
H15   H     H_    0.653671 0.098607 0.687860 0.213944
H16   H     H_    0.371044 0.831158 0.330544 0.207300
H17   H     H_    0.242791 0.936292 0.358519 0.207434
H18   H     H_    0.662548 0.882488 0.594549 0.148222
H19   H     H_    0.335599 0.118499 0.407208 0.142807
H20   H     H_    0.109329 0.743064 0.617723 0.237065
H21   H     H_    0.979939 0.640916 0.755090 0.199081
H22   H     H_    0.158967 0.675068 0.776244 0.228020
H23   H     H_    0.113500 0.519952 0.743403 0.247558
H24   H     H_    0.898688 0.384793 0.296933 0.230152
N1    N     N_R   0.147930 0.499970 0.499980 -0.181831
N2    N     N_R   0.852070 0.500030 0.500020 -0.181968
N3    N     N_2   0.126016 0.650445 0.630417 -0.373157
N4    N     N_2   0.874057 0.353969 0.366647 -0.378216
N5    N     N_2   0.308412 0.465679 0.031934 -0.432441
N6    N     N_2   0.692386 0.535910 0.968207 -0.431559
N7    N     N_3   0.682777 0.125181 0.616444 -0.579771
N8    N     N_3   0.309893 0.873626 0.388494 -0.568541
O1    O     O_R   0.381260 0.680340 0.500000 -0.535690
O2    O     O_R   0.618740 0.319660 0.500000 -0.525276
O3    O     O_R   0.618830 0.680370 0.500010 -0.598331
O4    O     O_R   0.381170 0.319630 0.499990 -0.599111
O5    O     O_R   0.364420 0.499960 0.637840 -0.544760
O6    O     O_R   0.635580 0.500040 0.362160 -0.556872
O7    O     O_R   0.601990 0.499990 0.637850 -0.578675
O8    O     O_R   0.398010 0.500010 0.362150 -0.583512

loop_
_geom_bond_atom_site_label_1
_geom_bond_atom_site_label_2
_ccdc_geom_bond_type
C5    C8    S    
Cu1   N1    S    
C11   C18   A    
C6    C7    S    
C13   N8    S    
C17   H10   S    
Cu2   N2    S    
C21   O8    A    
C16   H6    S    
C23   H12   S    
C12   O4    A    
C5    N6    S    
C23   N1    A    
Cu1   O5    S    
C6    N5    S    
Cu1   O4    S    
C16   H8    S    
H16   N8    S    
C10   H19   S    
Cu1   Cu2   S    
C16   N5    S    
H15   N7    S    
C17   H11   S    
C9    C11   A    
C17   N6    S    
C15   H2    S    
H24   N4    S    
C2    N2    A    
C20   O5    A    
C4    C7    T    
H20   N3    S    
Cu2   O3    S    
C10   C18   A    
C15   H3    S    
C22   H1    S    
C1    O1    A    
C17   H13   S    
C5    C6    D    
C16   H7    S    
C14   H21   S    
C22   C24   A    
C3    C21   S    
C24   N1    A    
C1    C19   S    
C13   C19   A    
C4    C20   S    
C15   N4    S    
C20   O7    A    
C14   N3    S    
C14   H23   S    
C24   N3    S    
C15   H4    S    
C22   N2    A    
C3    C8    T    
C2    N4    S    
C12   C18   S    
C2    C23   A    
Cu2   O6    S    
C9    H18   S    
C14   H22   S    
H14   N7    S    
Cu1   O1    S    
H17   N8    S    
H5    N5    S    
H9    N6    S    
C11   N7    S    
Cu2   O7    S    
Cu2   O2    S    
C9    C19   A    
Cu1   O8    S    
C1    O3    A    
C21   O6    A    
C10   C13   A    
C12   O2    A    
