data_mof_unit_39584.cif
_audit_creation_date              2012-12-11T14:30:45-0500
_audit_creation_method            fapswitch 2.2
_symmetry_space_group_name_H-M    P1
_symmetry_Int_Tables_number       1
_space_group_crystal_system       triclinic
_cell_length_a                    8.306317
_cell_length_b                    14.93495
_cell_length_c                    15.064808
_cell_angle_alpha                 98.034444
_cell_angle_beta                  99.631407
_cell_angle_gamma                 97.359207
_cell_volume                      1802.33215843

loop_
_atom_site_label
_atom_site_type_symbol
_atom_type_description
_atom_site_fract_x
_atom_site_fract_y
_atom_site_fract_z
_atom_type_partial_charge
Ba1   Ba    Ba6+2 0.154730 0.543770 0.458180 1.705505
Ba2   Ba    Ba6+2 0.655430 0.456220 0.541750 1.689224
C1    C     C_3   0.299131 0.756543 0.125048 -0.324132
C2    C     C_3   0.350630 0.733344 0.219927 0.337272
C3    C     C_3   0.561111 0.754788 0.765695 0.107569
C4    C     C_3   0.543643 0.833991 0.841381 -0.291445
C5    C     C_3   0.892380 0.199962 0.725907 0.336301
C6    C     C_3   0.840763 0.103775 0.743356 -0.320350
C7    C     C_3   0.441917 0.252420 0.780305 0.342761
C8    C     C_3   0.485139 0.219933 0.871426 -0.286460
C9    C     C_R   0.173136 0.172208 0.558817 -0.016983
C10   C     C_R   0.099766 0.080867 0.557384 -0.034881
C11   C     C_R   0.951834 0.896897 0.554518 -0.033658
C12   C     C_3   0.848234 0.777391 0.247193 0.363254
C13   C     C_R   0.099527 0.936792 0.615895 -0.050583
C14   C     C_R   0.181193 0.022132 0.607579 -0.132228
C15   C     C_R   0.888535 0.800879 0.539011 0.047213
C16   C     C_R   0.730881 0.770594 0.485956 -0.208178
C17   C     C_R   0.914637 0.204535 0.474681 0.023757
C18   C     C_R   0.843271 0.110923 0.466972 -0.025209
C19   C     C_R   0.935044 0.049712 0.510560 0.012133
C20   C     C_R   0.684401 0.075947 0.415998 0.039602
C21   C     C_R   0.614247 0.985150 0.411598 -0.088330
C22   C     C_R   0.701693 0.923966 0.455326 -0.071298
C23   C     C_3   0.749076 0.832935 0.187130 -0.263770
C24   C     C_R   0.863422 0.956493 0.505982 0.008365
C25   C     C_R   0.633348 0.830934 0.448914 -0.005400
C26   C     C_R   0.077899 0.232973 0.520546 -0.314359
C27   C     C_R   0.236259 0.440594 0.760066 -0.262508
C28   C     C_R   0.140423 0.405722 0.819088 -0.049140
C29   C     C_R   0.213094 0.404715 0.910897 -0.099052
C30   C     C_R   0.370145 0.460442 0.949383 0.019084
C31   C     C_R   0.457531 0.500203 0.887552 -0.130248
C32   C     C_R   0.395308 0.486950 0.793557 0.037266
C33   C     C_R   0.606546 0.526097 0.085383 -0.156623
C34   C     C_3   0.714680 0.334709 0.260505 0.288947
C35   C     C_R   0.669478 0.550083 0.179222 0.024189
C36   C     C_R   0.410240 0.485124 0.212211 0.060201
C37   C     C_R   0.340562 0.470908 0.118770 -0.074114
C38   C     C_R   0.439061 0.485434 0.051967 0.014852
C39   C     C_R   0.571821 0.529068 0.242184 -0.296564
C40   C     C_3   0.660939 0.301356 0.158326 -0.341265
C41   C     C_3   0.083713 0.637617 0.728181 0.373683
C42   C     C_3   0.122428 0.653185 0.832353 -0.348885
C43   C     C_3   0.183949 0.258538 0.305950 0.243652
C44   C     C_3   0.136191 0.161541 0.251745 -0.235199
H1    H     H_    0.258402 0.676118 0.228258 0.096670
H2    H     H_    0.552458 0.246198 0.145042 0.165020
H3    H     H_    0.626326 0.357761 0.122815 0.067112
H4    H     H_    0.763787 0.274415 0.130098 0.122422
H5    H     H_    0.180220 0.605980 0.699680 -0.019334
H6    H     H_    0.966174 0.589624 0.706207 0.102348
H7    H     H_    0.231068 0.707008 0.859193 0.132371
H8    H     H_    0.015543 0.674647 0.860138 0.110580
H9    H     H_    0.258680 0.257426 0.374182 -0.004114
H10   H     H_    0.249952 0.133074 0.240827 0.093511
H11   H     H_    0.304213 0.697374 0.072506 0.048816
H12   H     H_    0.839054 0.203684 0.654049 0.062836
H13   H     H_    0.029437 0.212807 0.736661 -0.060592
H14   H     H_    0.704508 0.085103 0.724932 0.177321
H15   H     H_    0.882868 0.099689 0.816440 0.147745
H16   H     H_    0.309225 0.259698 0.769054 -0.065741
H17   H     H_    0.519076 0.319665 0.783713 0.083770
H18   H     H_    0.475179 0.274037 0.927810 0.098831
H19   H     H_    0.613638 0.204717 0.882114 0.165014
H20   H     H_    0.399019 0.157085 0.873040 0.156435
H21   H     H_    0.299403 0.046714 0.651502 0.114745
H22   H     H_    0.490832 0.963749 0.372304 0.127185
H23   H     H_    0.611870 0.117616 0.377698 0.109280
H24   H     H_    0.680804 0.698563 0.475333 0.102190
H25   H     H_    0.134085 0.303054 0.523402 0.074772
H26   H     H_    0.692911 0.537370 0.040622 0.083127
H27   H     H_    0.210133 0.446360 0.100431 0.098379
H28   H     H_    0.761572 0.744409 0.286362 -0.198659
H29   H     H_    0.570189 0.548041 0.911303 0.071416
H30   H     H_    0.624863 0.541956 0.314315 0.066593
H31   H     H_    0.181695 0.439530 0.689412 0.048389
H32   H     H_    0.831592 0.876665 0.154230 0.210868
H33   H     H_    0.658486 0.785520 0.133066 0.093608
H34   H     H_    0.610464 0.359748 0.288007 0.024129
H35   H     H_    0.821288 0.390810 0.272454 0.042041
O1    O     O_2   0.174080 0.723060 0.553930 -0.445442
O2    O     O_3   0.279357 0.307286 0.255545 -0.615608
O3    O     O_3   0.918072 0.714775 0.191625 -0.603117
O4    O     O_2   0.636200 0.276890 0.446040 -0.457969
O5    O     O_3   0.908720 0.390410 0.449080 -0.508621
O6    O     O_3   0.439930 0.334910 0.611650 -0.488283
O7    O     O_3   0.759303 0.260670 0.300703 -0.621777
O8    O     O_3   0.402060 0.547860 0.609750 -0.418185
O9    O     O_3   0.872630 0.381370 0.659060 -0.481272
O10   O     O_2   0.815476 0.437981 0.823163 -0.507668
O11   O     O_3   0.832720 0.262641 0.785974 -0.594920
O12   O     O_3   0.901570 0.609580 0.550840 -0.481303
O13   O     O_3   0.408220 0.452130 0.390170 -0.478824
O14   O     O_2   0.675490 0.547140 0.721820 -0.438168
O15   O     O_3   0.478820 0.673558 0.785922 -0.686823
O16   O     O_2   0.501469 0.173675 0.540664 -0.485363
O17   O     O_3   0.475161 0.188532 0.710899 -0.587728
O18   O     O_3   0.370350 0.665080 0.388270 -0.476196
O19   O     O_2   0.298613 0.826400 0.452185 -0.462541
O20   O     O_3   0.074004 0.722421 0.699126 -0.571942
O21   O     O_3   0.355297 0.810626 0.285816 -0.579511
O22   O     O_2   0.134790 0.452800 0.278150 -0.480123
O23   O     O_3   0.937650 0.618620 0.340860 -0.497680
O24   O     O_2   0.006040 0.552986 0.178171 -0.505966
P1    P     P_3+3 0.004200 0.709230 0.580350 1.083076
P2    P     P_3+3 0.305000 0.425570 0.290900 1.006374
P3    P     P_3+3 0.883122 0.605909 0.221936 0.948136
P4    P     P_3+3 0.806080 0.290760 0.419570 0.979445
P5    P     P_3+3 0.915886 0.372836 0.774206 0.924352
P6    P     P_3+3 0.415897 0.783528 0.394846 1.006518
P7    P     P_3+3 0.492447 0.564266 0.725825 1.034813
P8    P     P_3+3 0.395250 0.216465 0.604952 0.953692
H36   H     H_    0.147664 0.589593 0.857778 0.047690
H37   H     H_    0.070673 0.288432 0.313173 0.028515
H38   H     H_    0.171107 0.772466 0.116029 0.179164
H39   H     H_    0.062366 0.164318 0.183620 0.152289
C45   C     C_2   0.040462 0.098781 0.299476 0.479135
H40   H     H_    0.099173 0.081876 0.363454 0.009132
O25   O     O_2   0.898432 0.064135 0.265431 -0.562258
H41   H     H_    0.473823 0.711099 0.225065 -0.056101
C46   C     C_2   0.738920 0.749386 0.768640 0.465792
H42   H     H_    0.831938 0.775013 0.829561 0.035442
O26   O     O_2   0.778334 0.712627 0.700902 -0.571030
C47   C     C_2   0.482835 0.773931 0.673388 0.575672
H43   H     H_    0.422717 0.833495 0.667603 -0.092937
O27   O     O_2   0.490471 0.724131 0.603362 -0.534822
C48   C     C_2   0.606731 0.814266 0.935666 0.489837
H44   H     H_    0.538974 0.759594 0.961450 0.008110
O28   O     O_2   0.733872 0.857916 0.983043 -0.588007
C49   C     C_2   0.626869 0.926640 0.829339 0.454917
H45   H     H_    0.755139 0.936300 0.821692 0.058123
O29   O     O_2   0.551688 0.991702 0.830175 -0.596314
H46   H     H_    0.409904 0.837219 0.838047 0.096994
H47   H     H_    0.382654 0.817050 0.115217 0.121937
H48   H     H_    0.681754 0.877245 0.228498 0.086042
H49   H     H_    0.896724 0.054192 0.701096 0.074112
C50   C     C_2   0.984120 0.839572 0.314008 0.596366
H50   H     H_    0.001771 0.832450 0.385012 -0.051120
O30   O     O_2   0.079121 0.895703 0.288807 -0.563417
C51   C     C_2   0.139674 0.911393 0.706864 0.503278
H51   H     H_    0.266502 0.920102 0.741417 0.037644
O31   O     O_2   0.030014 0.891222 0.748528 -0.594427
C52   C     C_2   0.131138 0.337388 0.959109 0.442512
H52   H     H_    0.997728 0.325162 0.951451 0.032625
O32   O     O_2   0.212241 0.292212 0.005650 -0.589319

loop_
_geom_bond_atom_site_label_1
_geom_bond_atom_site_label_2
_ccdc_geom_bond_type
C16   H24   S    
C19   C24   A    
Ba2   P4    S    
C7    O17   S    
C32   P7    S    
C34   C40   S    
C17   C18   A    
C22   C25   A    
C12   O3    S    
O11   P5    S    
C48   H44   S    
Ba1   O18   S    
C5    C6    S    
C43   C44   S    
C34   O7    S    
O15   P7    S    
O8    P7    S    
C28   P5    S    
C12   H28   S    
O10   P5    D    
Ba2   O14   S    
C33   C35   A    
C22   C24   A    
O4    P4    D    
C1    H38   S    
C51   O31   D    
C28   C29   A    
C41   H6    S    
C13   C14   A    
C29   C52   S    
C44   C45   S    
Ba2   O4    S    
Ba1   Ba2   S    
C36   P2    S    
Ba2   O9    S    
C23   H48   S    
C45   H40   S    
C13   C51   S    
C42   H7    S    
C31   H29   S    
C12   C50   S    
Ba1   O13   S    
C2    O21   S    
C21   C22   A    
C7    C8    S    
Ba1   O22   S    
C20   H23   S    
C6    H15   S    
C30   C38   S    
C25   P6    S    
C7    H17   S    
O21   P6    S    
C43   O2    S    
C5    H13   S    
C15   C16   A    
C8    H20   S    
C36   C37   A    
O24   P3    D    
O13   P2    S    
C7    H16   S    
C10   C14   A    
Ba2   O13   S    
O5    P4    S    
C36   C39   A    
C52   O32   D    
C34   H34   S    
C37   C38   A    
C52   H52   S    
O17   P8    S    
Ba1   O1    S    
C27   C32   A    
C23   H32   S    
C44   H39   S    
C6    H49   S    
C21   H22   S    
Ba2   O8    S    
C41   C42   S    
C41   O20   S    
C27   C28   A    
O12   P1    S    
C43   H37   S    
C29   C30   A    
C34   H35   S    
O18   P6    S    
C31   C32   A    
Ba2   O6    S    
C14   H21   S    
C40   H2    S    
C17   C26   A    
Ba1   O23   S    
C50   O30   D    
C35   P3    S    
O7    P4    S    
C1    H11   S    
C37   H27   S    
C40   H4    S    
C33   H26   S    
C11   C13   A    
C47   H43   S    
C11   C24   A    
C26   H25   S    
O9    P5    S    
C46   O26   D    
C49   H45   S    
O23   P3    S    
C3    O15   S    
C8    H19   S    
O20   P1    S    
Ba1   O8    S    
C5    H12   S    
C23   H33   S    
Ba2   O12   S    
C8    H18   S    
C16   C25   A    
C18   C20   A    
C4    C49   S    
C49   O29   D    
C48   O28   D    
C9    C10   A    
Ba1   P1    S    
C44   H10   S    
C11   C15   A    
O14   P7    D    
C30   C31   A    
C33   C38   A    
C4    C48   S    
C4    H46   S    
C51   H51   S    
C6    H14   S    
C39   H30   S    
C41   H5    S    
C3    C4    S    
C17   P4    S    
C9    C26   A    
C5    O11   S    
C10   C19   A    
O3    P3    S    
O2    P2    S    
C2    H41   S    
Ba2   O5    S    
C1    H47   S    
O1    P1    D    
C12   C23   S    
C35   C39   A    
C9    P8    S    
C45   O25   D    
O6    P8    S    
C50   H50   S    
C40   H3    S    
C42   H36   S    
Ba1   P2    S    
C42   H8    S    
Ba1   O5    S    
C27   H31   S    
C18   C19   A    
C43   H9    S    
O19   P6    D    
Ba1   O12   S    
C3    C47   S    
C47   O27   D    
C20   C21   A    
O22   P2    D    
C46   H42   S    
C15   P1    S    
O16   P8    D    
C3    C46   S    
C1    C2    S    
C2    H1    S    
