data_mof_unit_27606.cif
_audit_creation_date              2012-12-10T19:06:27-0500
_audit_creation_method            fapswitch 2.2
_symmetry_space_group_name_H-M    P1
_symmetry_Int_Tables_number       1
_space_group_crystal_system       triclinic
_cell_length_a                    23.540978
_cell_length_b                    10.819226
_cell_length_c                    9.523962
_cell_angle_alpha                 89.96371
_cell_angle_beta                  89.783332
_cell_angle_gamma                 90.118713
_cell_volume                      2425.68398784

loop_
_atom_site_label
_atom_site_type_symbol
_atom_type_description
_atom_site_fract_x
_atom_site_fract_y
_atom_site_fract_z
_atom_type_partial_charge
C1    C     C_R   0.500965 0.262231 0.499979 0.798010
C2    C     C_R   0.972040 0.355917 0.307825 -0.019792
C3    C     C_R   0.031329 0.352336 0.317408 -0.140570
C4    C     C_R   0.060408 0.423756 0.416015 -0.077178
C5    C     C_R   0.029867 0.501578 0.507288 -0.011025
C6    C     C_R   0.059612 0.575884 0.603396 -0.058851
C7    C     C_R   0.029754 0.655606 0.692085 -0.146071
C8    C     C_R   0.970483 0.663859 0.687075 -0.029207
C9    C     C_R   0.119989 0.422163 0.422147 0.635336
C10   C     C_R   0.119203 0.572195 0.605294 0.562403
C11   C     C_R   0.236698 0.559841 0.397674 0.317086
C12   C     C_R   0.390973 0.504072 0.500207 0.897284
C13   C     C_R   0.296453 0.565341 0.392561 -0.122511
C14   C     C_R   0.328317 0.509658 0.501981 -0.161684
C15   C     C_R   0.299786 0.454317 0.615615 -0.386053
C16   C     C_R   0.240256 0.452437 0.622819 0.463416
C17   C     C_R   0.209021 0.501516 0.511055 0.204209
C18   C     C_R   0.761447 0.537407 0.382958 -0.105207
C19   C     C_R   0.702268 0.536854 0.381485 -0.213116
C20   C     C_R   0.671532 0.499110 0.500611 -0.038008
C21   C     C_R   0.701042 0.461247 0.621178 -0.224622
C22   C     C_R   0.760288 0.460610 0.622050 -0.083116
C23   C     C_R   0.501038 0.737734 0.499879 0.830028
C24   C     C_R   0.790768 0.499320 0.503131 0.358352
C25   C     C_R   0.508330 0.063428 0.625594 0.137402
C26   C     C_R   0.506621 0.129163 0.499541 -0.093257
C27   C     C_R   0.513134 0.064510 0.372440 -0.209853
C28   C     C_R   0.513180 0.935689 0.372370 -0.190752
C29   C     C_R   0.506721 0.870773 0.499406 -0.091956
C30   C     C_R   0.508375 0.936250 0.625504 0.108896
C31   C     C_3   0.470140 0.929170 0.750795 -0.444693
C32   C     C_3   0.470102 0.069536 0.750967 -0.476764
C33   C     C_R   0.521983 0.598006 0.073307 0.279642
C34   C     C_R   0.609051 0.499838 0.499920 0.795206
C35   C     C_R   0.472749 0.410131 0.074826 -0.075915
C36   C     C_R   0.472707 0.410181 0.925794 -0.084885
C37   C     C_R   0.521882 0.598090 0.925809 0.253406
C38   C     C_3   0.581231 0.645674 0.918397 -0.488693
C39   C     C_3   0.581593 0.644462 0.077725 -0.519039
C40   C     C_R   0.879472 0.578321 0.594148 0.526374
C41   C     C_R   0.880482 0.424600 0.414131 0.524731
C42   C     C_R   0.940370 0.428349 0.405743 -0.086100
C43   C     C_R   0.969802 0.504896 0.502638 0.001985
C44   C     C_R   0.939488 0.584378 0.595186 -0.084123
Cu1   Cu    Cu3+1 0.500000 0.499980 0.640670 0.943764
Cu2   Cu    Cu3+1 0.500000 0.500020 0.359330 0.971492
H1    H     H_    0.680722 0.567900 0.288080 0.148157
H2    H     H_    0.678363 0.431040 0.714255 0.154917
H3    H     H_    0.782553 0.430219 0.715130 0.153385
H4    H     H_    0.515367 0.112708 0.272845 0.163621
H5    H     H_    0.515407 0.887684 0.272743 0.163222
H6    H     H_    0.427989 0.888111 0.726150 0.208830
H7    H     H_    0.491840 0.888730 0.843508 0.193321
H8    H     H_    0.427920 0.110216 0.726566 0.197528
H9    H     H_    0.491835 0.109804 0.843776 0.195122
H10   H     H_    0.451572 0.336216 0.130927 0.138704
H11   H     H_    0.055120 0.296567 0.243244 0.213355
H12   H     H_    0.451383 0.336516 0.870183 0.136392
H13   H     H_    0.611361 0.578264 0.871477 0.220952
H14   H     H_    0.583331 0.740311 0.873149 0.196379
H15   H     H_    0.611326 0.574964 0.121007 0.214593
H16   H     H_    0.584615 0.738213 0.124779 0.193072
H17   H     H_    0.052918 0.715740 0.762776 0.215086
H18   H     H_    0.324019 0.409168 0.697207 0.168539
H19   H     H_    0.784635 0.568105 0.290866 0.147986
N1    N     N_R   0.851848 0.500780 0.503987 -0.449078
N2    N     N_R   0.148057 0.496881 0.514588 -0.419659
N3    N     N_R   0.500360 0.500930 0.147930 -0.180682
N4    N     N_R   0.500360 0.500890 0.852020 -0.184120
O1    O     O_R   0.500000 0.319640 0.618810 -0.585197
O2    O     O_2   0.850640 0.341904 0.338330 -0.555224
O3    O     O_2   0.149742 0.347084 0.336039 -0.543803
O4    O     O_2   0.148201 0.645198 0.694966 -0.570123
O5    O     O_R   0.500010 0.319680 0.381230 -0.594021
O6    O     O_R   0.417880 0.499940 0.618820 -0.593165
O7    O     O_R   0.417880 0.499980 0.381240 -0.547666
O8    O     O_R   0.499990 0.680320 0.618770 -0.586360
O9    O     O_R   0.500000 0.680360 0.381190 -0.563533
O10   O     O_R   0.582120 0.500020 0.618760 -0.585545
O11   O     O_R   0.582120 0.500060 0.381180 -0.585320
O12   O     O_2   0.848412 0.646600 0.684271 -0.566831
C45   C     C_2   0.945851 0.290325 0.187177 0.454233
H20   H     H_    0.908545 0.327290 0.135877 0.117344
O13   O     O_2   0.966933 0.195719 0.140568 -0.519356
C46   C     C_2   0.943814 0.762197 0.773669 0.451612
H21   H     H_    0.908233 0.815012 0.734147 0.129596
O14   O     O_2   0.962807 0.788350 0.889095 -0.524813
O15   O     O_3   0.204733 0.606192 0.287973 -0.595407
C47   C     C_3   0.191080 0.730765 0.316020 0.028121
H22   H     H_    0.229879 0.789623 0.312245 0.160666
H23   H     H_    0.170273 0.741716 0.420408 0.173506
C48   C     C_3   0.149957 0.776259 0.204737 -0.705575
H24   H     H_    0.110394 0.720132 0.207893 0.254126
H25   H     H_    0.139093 0.874552 0.224592 0.218919
H26   H     H_    0.169625 0.768235 0.098932 0.254384
C49   C     C_2   0.323317 0.633404 0.274144 0.392358
H27   H     H_    0.304363 0.629779 0.170492 0.092646
O16   O     O_2   0.364493 0.700135 0.292700 -0.546898
O17   O     O_3   0.211163 0.393441 0.730982 -0.558064
C50   C     C_3   0.230233 0.434881 0.863551 0.056345
H28   H     H_    0.239813 0.535976 0.864160 0.165473
H29   H     H_    0.268707 0.382568 0.895223 0.135131
C51   C     C_3   0.184014 0.410998 0.972317 -0.650728
H30   H     H_    0.173309 0.311009 0.975529 0.252036
H31   H     H_    0.199127 0.439878 0.077531 0.248158
H32   H     H_    0.145286 0.464492 0.945716 0.257374

loop_
_geom_bond_atom_site_label_1
_geom_bond_atom_site_label_2
_ccdc_geom_bond_type
C37   N4    A    
C41   C42   A    
C35   C36   A    
C9    O3    S    
C31   H6    S    
Cu2   O7    S    
C7    C8    A    
C10   N2    A    
C18   H19   S    
C26   C27   A    
C29   C30   A    
C18   C24   A    
C1    O5    A    
C23   C29   S    
C28   C29   A    
C18   C19   A    
C36   H12   S    
C30   C31   S    
C10   O4    S    
C19   H1    S    
C15   C16   A    
C8    C46   S    
C50   H28   S    
C34   O11   A    
C19   C20   A    
C16   C17   A    
C49   O16   D    
C15   H18   S    
C47   H23   S    
C32   H9    S    
C27   H4    S    
C24   N1    S    
C41   O2    S    
C21   H2    S    
C20   C34   S    
C25   C32   S    
C5    C43   A    
C40   N1    A    
C21   C22   A    
C32   H8    S    
C46   O14   D    
C38   C39   S    
C39   H15   S    
C17   N2    S    
C13   C49   S    
Cu1   N4    S    
Cu1   O10   S    
Cu2   O9    S    
C25   C26   A    
C46   H21   S    
C50   C51   S    
C23   O8    A    
C43   C44   A    
C9    N2    A    
Cu2   N3    S    
C37   C38   S    
C34   O10   A    
C31   C32   S    
C11   O15   S    
C49   H27   S    
C20   C21   A    
C50   H29   S    
C51   H31   S    
C33   C39   S    
C31   H7    S    
C47   C48   S    
C7    H17   S    
C41   N1    A    
C22   H3    S    
C38   H14   S    
C3    H11   S    
C12   C14   S    
C45   O13   D    
C12   O7    A    
C1    C26   S    
C22   C24   A    
C2    C45   S    
C42   C43   A    
C3    C4    A    
Cu2   O5    S    
C36   N4    A    
C25   C30   A    
C39   H16   S    
C11   C17   A    
Cu1   O1    S    
C40   O12   S    
C8    C44   A    
C4    C5    A    
C35   H10   S    
C16   O17   S    
C6    C7    A    
C1    O1    A    
O17   C50   S    
Cu1   O6    S    
C2    C3    A    
C4    C9    A    
Cu2   O11   S    
C11   C13   A    
C48   H25   S    
C5    C6    A    
C35   N3    A    
C2    C42   A    
C48   H24   S    
C28   H5    S    
C51   H32   S    
C48   H26   S    
C23   O9    A    
C33   C37   A    
C6    C10   A    
C38   H13   S    
Cu1   Cu2   S    
C40   C44   A    
O15   C47   S    
C45   H20   S    
C12   O6    A    
C51   H30   S    
C14   C15   A    
Cu1   O8    S    
C47   H22   S    
C13   C14   A    
C33   N3    A    
C27   C28   A    
