data_mof_unit_62635.cif
_audit_creation_date              2012-12-10T18:39:49-0500
_audit_creation_method            fapswitch 2.2
_symmetry_space_group_name_H-M    P1
_symmetry_Int_Tables_number       1
_space_group_crystal_system       triclinic
_cell_length_a                    30.189586
_cell_length_b                    30.18296
_cell_length_c                    24.614915
_cell_angle_alpha                 89.991662
_cell_angle_beta                  127.985974
_cell_angle_gamma                 90.002293
_cell_volume                      17677.9746306

loop_
_atom_site_label
_atom_site_type_symbol
_atom_type_description
_atom_site_fract_x
_atom_site_fract_y
_atom_site_fract_z
_atom_type_partial_charge
C1    C     C_R   0.810689 0.810751 0.500028 1.003698
C2    C     C_R   0.534834 0.750346 0.069717 0.372939
C3    C     C_3   0.886195 0.126037 0.561339 0.558101
C4    C     C_3   0.631139 0.587732 0.478091 0.351728
C5    C     C_3   0.387966 0.637957 0.460255 0.348247
C6    C     C_3   0.112502 0.137748 0.540290 0.346216
C7    C     C_3   0.862869 0.086531 0.512175 0.355523
C8    C     C_3   0.679909 0.612390 0.542713 -0.272221
C9    C     C_3   0.404876 0.663553 0.524493 -0.286733
C10   C     C_3   0.095344 0.163685 0.476192 -0.288181
C11   C     C_3   0.819810 0.115819 0.449847 -0.269628
C12   C     C_3   0.655805 0.655638 0.500620 -0.228377
C13   C     C_R   0.965114 0.250339 0.930285 0.372575
C14   C     C_3   0.344735 0.655633 0.500456 -0.223964
C15   C     C_3   0.155260 0.155637 0.499545 -0.223225
C16   C     C_3   0.844330 0.155699 0.499511 -0.229629
C17   C     C_R   0.439317 0.560856 0.500038 0.968776
C18   C     C_R   0.560745 0.560856 0.500090 0.977651
C19   C     C_R   0.939344 0.060933 0.499926 0.977799
C20   C     C_R   0.060676 0.060858 0.499955 0.963912
C21   C     C_R   0.939095 0.939341 0.499981 1.010110
C22   C     C_R   0.060808 0.939177 0.500135 0.990235
C23   C     C_R   0.439156 0.439217 0.499872 0.992791
C24   C     C_R   0.034872 0.250351 0.069705 0.369338
C25   C     C_R   0.560936 0.439356 0.500054 1.004633
C26   C     C_R   0.817957 0.750525 0.634604 0.932744
C27   C     C_R   0.182066 0.750511 0.365397 0.969769
C28   C     C_R   0.317941 0.250511 0.634604 0.969528
C29   C     C_R   0.682044 0.250532 0.365397 0.935261
C30   C     C_R   0.604688 0.783752 0.253471 -0.253214
C31   C     C_R   0.395401 0.783679 0.746539 -0.265753
C32   C     C_R   0.104585 0.283687 0.253453 -0.265601
C33   C     C_R   0.895306 0.283736 0.746524 -0.259745
C34   C     C_R   0.568954 0.784044 0.181737 0.622815
C35   C     C_3   0.907891 0.848428 0.553100 0.374225
C36   C     C_R   0.431112 0.783973 0.818275 0.616699
C37   C     C_R   0.068860 0.283979 0.181717 0.616678
C38   C     C_R   0.931026 0.284027 0.818258 0.622239
C39   C     C_R   0.572654 0.750316 0.145284 -0.213135
C40   C     C_R   0.427264 0.750335 0.854729 -0.211487
C41   C     C_R   0.072691 0.250331 0.145272 -0.211457
C42   C     C_R   0.927307 0.250308 0.854718 -0.213544
C43   C     C_R   0.612830 0.716517 0.181781 0.620294
C44   C     C_R   0.386958 0.716626 0.818233 0.617161
C45   C     C_R   0.112996 0.216617 0.181777 0.617269
C46   C     C_3   0.104825 0.866128 0.436553 0.378250
C47   C     C_R   0.887127 0.216516 0.818227 0.619585
C48   C     C_R   0.648788 0.716636 0.253505 -0.220695
C49   C     C_R   0.351027 0.716740 0.746509 -0.257085
C50   C     C_R   0.148942 0.216735 0.253501 -0.255944
C51   C     C_R   0.851183 0.216634 0.746502 -0.218192
C52   C     C_3   0.397537 0.363804 0.563531 0.379071
C53   C     C_3   0.593329 0.351605 0.442963 0.374899
C54   C     C_3   0.902318 0.898539 0.559989 -0.291951
C55   C     C_3   0.126605 0.912173 0.470341 -0.289352
C56   C     C_3   0.376885 0.411014 0.534356 -0.292543
C57   C     C_R   0.189501 0.810701 0.500415 0.990137
C58   C     C_3   0.603209 0.401900 0.444281 -0.289822
C59   C     C_3   0.905470 0.905928 0.500178 -0.166028
C60   C     C_3   0.094749 0.905757 0.500549 -0.168617
C61   C     C_3   0.405204 0.405818 0.499484 -0.167978
C62   C     C_3   0.594684 0.405984 0.500009 -0.166538
C63   C     C_3   0.911552 0.856097 0.494614 0.284267
C64   C     C_3   0.073047 0.860341 0.466014 0.292334
C65   C     C_3   0.425846 0.359216 0.529505 0.293429
C66   C     C_3   0.584401 0.356066 0.497424 0.288355
C67   C     C_3   0.847719 0.852488 0.441408 0.272766
C68   C     C_R   0.310494 0.310710 0.499596 0.993179
C69   C     C_3   0.124482 0.838728 0.530810 0.272446
C70   C     C_3   0.371997 0.339981 0.464669 0.271438
C71   C     C_3   0.647185 0.349273 0.554902 0.274586
C72   C     C_3   0.841509 0.902142 0.447143 0.392566
C73   C     C_3   0.146488 0.883918 0.565289 0.389578
C74   C     C_3   0.351079 0.386355 0.434738 0.390880
C75   C     C_3   0.657612 0.398992 0.557320 0.387774
C76   C     C_3   0.837113 0.894833 0.505675 -0.295364
C77   C     C_3   0.179266 0.889986 0.536495 -0.295884
C78   C     C_3   0.321799 0.391267 0.468209 -0.296107
C79   C     C_R   0.689372 0.310749 0.500091 1.003216
C80   C     C_3   0.667319 0.394914 0.502906 -0.300646
C81   C     C_3   0.843978 0.844565 0.499930 -0.177328
C82   C     C_3   0.156374 0.844284 0.501231 -0.178800
C83   C     C_3   0.343597 0.344340 0.498830 -0.178844
C84   C     C_3   0.656167 0.344561 0.500352 -0.175867
C85   C     C_R   0.682655 0.750042 0.365341 0.970800
C86   C     C_R   0.317338 0.750044 0.634663 0.925570
C87   C     C_R   0.182659 0.250047 0.365338 0.927581
C88   C     C_R   0.817343 0.250038 0.634660 0.965058
C89   C     C_R   0.838665 0.768291 0.746008 -0.268764
C90   C     C_R   0.644888 0.750144 0.289819 -0.210208
C91   C     C_R   0.161519 0.768119 0.254034 -0.235707
C92   C     C_R   0.338543 0.268220 0.745964 -0.237497
C93   C     C_R   0.661378 0.268234 0.253994 -0.268836
C94   C     C_R   0.874991 0.770733 0.817286 -0.227654
C95   C     C_R   0.125241 0.770549 0.182752 -0.219507
C96   C     C_R   0.374826 0.270654 0.817243 -0.219923
C97   C     C_R   0.625056 0.270684 0.182716 -0.227523
C98   C     C_R   0.930530 0.755794 0.854592 0.001611
C99   C     C_R   0.069652 0.755735 0.145416 -0.002086
C100  C     C_R   0.430371 0.255728 0.854594 -0.001839
C101  C     C_R   0.355080 0.750154 0.710190 -0.219441
C102  C     C_R   0.569482 0.255840 0.145417 0.001630
C103  C     C_R   0.949883 0.738164 0.819472 0.357022
C104  C     C_R   0.050212 0.738213 0.180498 0.363104
C105  C     C_R   0.449765 0.238088 0.819526 0.362560
C106  C     C_R   0.550085 0.238303 0.180543 0.356845
C107  C     C_R   0.913716 0.738289 0.746403 0.339516
C108  C     C_R   0.086338 0.738341 0.253565 0.347326
C109  C     C_R   0.413646 0.238221 0.746458 0.348218
C110  C     C_R   0.586257 0.238417 0.253613 0.342187
C111  C     C_R   0.857342 0.751880 0.710136 -0.115733
C112  C     C_R   0.144905 0.250157 0.289811 -0.219107
C113  C     C_R   0.142744 0.751837 0.289867 -0.104573
C114  C     C_R   0.357274 0.251831 0.710139 -0.105003
C115  C     C_R   0.642664 0.251905 0.289869 -0.114957
C116  C     C_R   0.033316 0.757163 0.069715 0.346725
C117  C     C_R   0.966891 0.757197 0.930301 0.342885
C118  C     C_R   0.533130 0.257233 0.069710 0.343054
C119  C     C_R   0.466712 0.257169 0.930295 0.346617
C120  C     C_3   0.619250 0.663703 0.523862 -0.291455
C121  C     C_3   0.362272 0.612122 0.541836 -0.282890
C122  C     C_3   0.137217 0.112351 0.457581 -0.282330
C123  C     C_R   0.855101 0.250135 0.710183 -0.214140
C124  C     C_3   0.887298 0.165154 0.486411 -0.287143
C125  C     C_3   0.642558 0.619765 0.565527 -0.219016
C126  C     C_3   0.422778 0.619359 0.565447 -0.222678
C127  C     C_3   0.076937 0.119712 0.434654 -0.223236
C128  C     C_3   0.863532 0.124541 0.437145 -0.220096
C129  C     C_3   0.594579 0.594607 0.500626 -0.115337
C130  C     C_3   0.405923 0.594603 0.500389 -0.113559
C131  C     C_3   0.094056 0.094611 0.499590 -0.112192
C132  C     C_3   0.905644 0.094764 0.499492 -0.116252
C133  C     C_R   0.689317 0.689230 0.500202 0.958353
C134  C     C_R   0.465073 0.750356 0.930297 0.369276
C135  C     C_R   0.310847 0.689229 0.500121 0.957630
C136  C     C_R   0.189154 0.189230 0.499884 0.957276
C137  C     C_R   0.810722 0.189237 0.499855 0.955928
C138  C     C_3   0.572152 0.637710 0.459798 0.348486
C139  C     C_3   0.346492 0.587867 0.477078 0.347859
C140  C     C_3   0.153265 0.087749 0.522236 0.348273
C141  C     C_3   0.928483 0.134618 0.547713 0.348066
C142  C     C_3   0.608133 0.630568 0.436262 0.562850
C143  C     C_3   0.328107 0.630971 0.435935 0.565340
C144  C     C_3   0.172148 0.130629 0.563946 0.567148
F1    F     F_    0.591188 0.636746 0.370269 -0.629546
F2    F     F_    0.381332 0.684124 0.851738 -0.616782
F3    F     F_    0.118607 0.184107 0.148281 -0.616695
F4    F     F_    0.881632 0.183928 0.851738 -0.614636
F5    F     F_    0.279125 0.637570 0.369832 -0.631081
F6    F     F_    0.221404 0.136876 0.629930 -0.631181
F7    F     F_    0.897152 0.127461 0.624752 -0.628828
F8    F     F_    0.529962 0.816716 0.148171 -0.615735
F9    F     F_    0.470229 0.816556 0.851840 -0.619613
F10   F     F_    0.029746 0.316568 0.148142 -0.619775
F11   F     F_    0.970024 0.316692 0.851817 -0.616536
F12   F     F_    0.618308 0.683922 0.148276 -0.615471
H1    H     H_    0.600973 0.809964 0.280501 0.205763
H2    H     H_    0.204522 0.779119 0.281263 0.196418
H3    H     H_    0.295572 0.279309 0.718729 0.196276
H4    H     H_    0.704371 0.279248 0.281188 0.193817
H5    H     H_    0.859298 0.784105 0.843354 0.191249
H6    H     H_    0.140999 0.783825 0.156702 0.193292
H7    H     H_    0.359101 0.284023 0.843278 0.193142
H8    H     H_    0.640780 0.283986 0.156640 0.191165
H9    H     H_    0.655928 0.614676 0.618385 0.196399
H10   H     H_    0.462209 0.613949 0.618398 0.195212
H11   H     H_    0.037284 0.114579 0.381806 0.194838
H12   H     H_    0.399237 0.809819 0.719510 0.206509
H13   H     H_    0.855043 0.123224 0.386413 0.193645
H14   H     H_    0.614516 0.695715 0.542017 0.192662
H15   H     H_    0.350499 0.602008 0.574795 0.188278
H16   H     H_    0.148608 0.102408 0.424179 0.188026
H17   H     H_    0.897243 0.198185 0.476561 0.194910
H18   H     H_    0.724847 0.602495 0.576220 0.190773
H19   H     H_    0.428085 0.695440 0.543353 0.193198
H20   H     H_    0.072329 0.195673 0.457911 0.192803
H21   H     H_    0.774399 0.108602 0.410152 0.188049
H22   H     H_    0.679539 0.690359 0.280553 0.208715
H23   H     H_    0.100763 0.309834 0.280475 0.206400
H24   H     H_    0.320175 0.690534 0.719466 0.207608
H25   H     H_    0.179792 0.190524 0.280551 0.207571
H26   H     H_    0.820429 0.190363 0.719459 0.210859
H27   H     H_    0.925837 0.917609 0.608887 0.210593
H28   H     H_    0.126090 0.942698 0.444789 0.198631
H29   H     H_    0.380269 0.440518 0.563638 0.197263
H30   H     H_    0.583974 0.423716 0.398567 0.212070
H31   H     H_    0.003416 0.696320 0.829348 0.353824
H32   H     H_    0.996545 0.696504 0.170573 0.354676
H33   H     H_    0.503301 0.196213 0.829481 0.354679
H34   H     H_    0.899035 0.309942 0.719490 0.205935
H35   H     H_    0.496436 0.196599 0.170683 0.353703
H36   H     H_    0.973425 0.733355 0.737896 0.357932
H37   H     H_    0.026579 0.733563 0.261997 0.352859
H38   H     H_    0.473413 0.233238 0.738064 0.353522
H39   H     H_    0.526548 0.233660 0.262141 0.357984
H40   H     H_    0.513851 0.679121 0.398324 0.357436
H41   H     H_    0.280844 0.553195 0.442351 0.358314
H42   H     H_    0.218543 0.052881 0.555881 0.358262
H43   H     H_    0.987428 0.171172 0.620584 0.356942
H44   H     H_    0.662717 0.552843 0.444549 0.356849
H45   H     H_    0.805576 0.910241 0.509213 0.207171
H46   H     H_    0.385434 0.679733 0.399812 0.355011
H47   H     H_    0.115855 0.179161 0.601681 0.354828
H48   H     H_    0.821882 0.049620 0.530611 0.356936
H49   H     H_    0.980283 0.830080 0.633192 0.355630
H50   H     H_    0.051049 0.874745 0.339067 0.355963
H51   H     H_    0.454914 0.368825 0.661045 0.355967
H52   H     H_    0.522566 0.338007 0.356458 0.356607
H53   H     H_    0.944540 0.804828 0.486573 0.370279
H54   H     H_    0.016880 0.815552 0.414258 0.368524
H55   H     H_    0.480401 0.312659 0.574366 0.368889
H56   H     H_    0.223536 0.901199 0.566241 0.202738
H57   H     H_    0.545282 0.304690 0.493496 0.370146
H58   H     H_    0.829626 0.840885 0.353308 0.373103
H59   H     H_    0.099590 0.807037 0.575000 0.370947
H60   H     H_    0.391639 0.309977 0.413623 0.372276
H61   H     H_    0.657223 0.332760 0.636964 0.373205
H62   H     H_    0.768956 0.920316 0.367174 0.351728
H63   H     H_    0.200809 0.874580 0.662569 0.351511
H64   H     H_    0.293128 0.380627 0.337432 0.351652
H65   H     H_    0.728672 0.412247 0.643681 0.351106
H66   H     H_    0.278363 0.403528 0.442146 0.203771
H67   H     H_    0.702297 0.410312 0.506191 0.206121
H68   H     H_    0.795699 0.779381 0.718812 0.193760
N1    N     N_R   0.517045 0.711632 0.034258 -0.073009
N2    N     N_R   0.976570 0.757783 0.031843 -0.075457
N3    N     N_R   0.523459 0.257639 0.968172 -0.075522
N4    N     N_R   0.476382 0.257728 0.031831 -0.070493
N5    N     N_R   0.056245 0.757500 0.036588 -0.165484
N6    N     N_R   0.943965 0.757773 0.963433 -0.173460
N7    N     N_R   0.556061 0.257644 0.036582 -0.173512
N8    N     N_R   0.443779 0.257671 0.963420 -0.165666
N9    N     N_R   0.482697 0.711637 0.965762 -0.077991
N10   N     N_R   0.017234 0.211632 0.034260 -0.078013
N11   N     N_R   0.982888 0.211626 0.965764 -0.073128
N12   N     N_R   0.482937 0.789075 0.965752 -0.074822
N13   N     N_R   0.517136 0.789070 0.034256 -0.076470
N14   N     N_R   0.982824 0.289064 0.965726 -0.076688
N15   N     N_R   0.017021 0.289069 0.034230 -0.074898
N16   N     N_R   0.023640 0.757542 0.968176 -0.070458
O1    O     O_R   0.822760 0.770240 0.499990 -0.575066
O2    O     O_R   0.075230 0.953450 0.557500 -0.574734
O3    O     O_R   0.424770 0.453450 0.442500 -0.573291
O4    O     O_R   0.575230 0.453450 0.557500 -0.578142
O5    O     O_R   0.982280 0.953430 0.557510 -0.641053
O6    O     O_R   0.017720 0.953430 0.442490 -0.621992
O7    O     O_R   0.482280 0.453430 0.557510 -0.626528
O8    O     O_R   0.517720 0.453430 0.442490 -0.637118
O9    O     O_R   0.770230 0.822760 0.499990 -0.645571
O10   O     O_R   0.229770 0.822760 0.500010 -0.630024
O11   O     O_R   0.270230 0.322760 0.499990 -0.633433
O12   O     O_R   0.177240 0.770240 0.500010 -0.572316
O13   O     O_R   0.729770 0.322760 0.500010 -0.644599
O14   O     O_R   0.725330 0.723740 0.398130 -0.616757
O15   O     O_R   0.274670 0.723740 0.601870 -0.621799
O16   O     O_R   0.225330 0.223740 0.398130 -0.621141
O17   O     O_R   0.774670 0.223740 0.601870 -0.613079
O18   O     O_R   0.672800 0.776260 0.398130 -0.626655
O19   O     O_R   0.327200 0.776260 0.601870 -0.631060
O20   O     O_R   0.172800 0.276260 0.398130 -0.631096
O21   O     O_R   0.827200 0.276260 0.601870 -0.629338
O22   O     O_R   0.729750 0.677220 0.500010 -0.624487
O23   O     O_R   0.322760 0.270240 0.499990 -0.572916
O24   O     O_R   0.270250 0.677220 0.499990 -0.623645
O25   O     O_R   0.229750 0.177220 0.500010 -0.623441
O26   O     O_R   0.770250 0.177220 0.499990 -0.618902
O27   O     O_R   0.677220 0.729740 0.500010 -0.628316
O28   O     O_R   0.322780 0.729740 0.499990 -0.629592
O29   O     O_R   0.177220 0.229740 0.500010 -0.629668
O30   O     O_R   0.822780 0.229740 0.499990 -0.630470
O31   O     O_R   0.827180 0.723730 0.601860 -0.554587
O32   O     O_R   0.172820 0.723730 0.398140 -0.550673
O33   O     O_R   0.327180 0.223730 0.601860 -0.549877
O34   O     O_R   0.677240 0.270240 0.500010 -0.575547
O35   O     O_R   0.672820 0.223730 0.398140 -0.556285
O36   O     O_R   0.774660 0.776250 0.601860 -0.644841
O37   O     O_R   0.225340 0.776250 0.398140 -0.639830
O38   O     O_R   0.274660 0.276250 0.601860 -0.641010
O39   O     O_R   0.725340 0.276250 0.398140 -0.643476
O40   O     O_R   0.424770 0.546480 0.442520 -0.567743
O41   O     O_R   0.575230 0.546480 0.557480 -0.645549
O42   O     O_R   0.924770 0.046480 0.442520 -0.641685
O43   O     O_R   0.075230 0.046480 0.557480 -0.567974
O44   O     O_3   0.002958 0.719667 0.857270 -0.737184
O45   O     O_R   0.482280 0.546460 0.557530 -0.658953
O46   O     O_3   0.997085 0.719814 0.142662 -0.739892
O47   O     O_3   0.502834 0.219577 0.857375 -0.739833
O48   O     O_3   0.496961 0.219901 0.142748 -0.737133
O49   O     O_3   0.932716 0.726792 0.709594 -0.720602
O50   O     O_3   0.067277 0.726941 0.290338 -0.730201
O51   O     O_3   0.432690 0.226716 0.709703 -0.728423
O52   O     O_3   0.567237 0.227012 0.290433 -0.721037
O53   O     O_3   0.515335 0.649507 0.416795 -0.678157
O54   O     O_3   0.317574 0.547624 0.452362 -0.725374
O55   O     O_3   0.181937 0.047371 0.546232 -0.728178
O56   O     O_R   0.517720 0.546460 0.442470 -0.576620
O57   O     O_3   0.985722 0.143124 0.598413 -0.677115
O58   O     O_3   0.635821 0.547334 0.454236 -0.728631
O59   O     O_3   0.402229 0.650014 0.417950 -0.678937
O60   O     O_3   0.098727 0.149581 0.583154 -0.685952
O61   O     O_3   0.851734 0.044726 0.525718 -0.723696
O62   O     O_3   0.941323 0.818983 0.607951 -0.714013
O63   O     O_3   0.084062 0.855232 0.369471 -0.735210
O64   O     O_3   0.420756 0.350429 0.630579 -0.734469
O65   O     O_3   0.560984 0.325400 0.383701 -0.718223
O66   O     O_3   0.951093 0.837207 0.489431 -0.708259
O67   O     O_R   0.982280 0.046460 0.557530 -0.576285
O68   O     O_3   0.017414 0.846125 0.429332 -0.691631
O69   O     O_3   0.480404 0.343773 0.561500 -0.695097
O70   O     O_3   0.540536 0.337131 0.494101 -0.708247
O71   O     O_3   0.818419 0.828024 0.380278 -0.733845
O72   O     O_3   0.124402 0.800297 0.562458 -0.713108
O73   O     O_3   0.368414 0.302772 0.428331 -0.715040
O74   O     O_3   0.671005 0.321440 0.612000 -0.730523
O75   O     O_3   0.807966 0.931038 0.391523 -0.706160
O76   O     O_3   0.167240 0.893670 0.632722 -0.694997
O77   O     O_3   0.327759 0.398629 0.367221 -0.692565
O78   O     O_R   0.017720 0.046460 0.442470 -0.659738
O79   O     O_3   0.690138 0.424520 0.617315 -0.709089
O80   O     O_R   0.924770 0.953450 0.442500 -0.578500
Zn1   Zn    Zn3+2 0.785070 0.714920 0.500000 1.073108
Zn2   Zn    Zn3+2 0.038370 0.999960 0.576800 1.127653
Zn3   Zn    Zn3+2 0.461630 0.499960 0.423200 1.129891
Zn4   Zn    Zn3+2 0.538370 0.499960 0.576800 1.038585
Zn5   Zn    Zn3+2 0.214930 0.714920 0.500000 1.075205
Zn6   Zn    Zn3+2 0.285070 0.214920 0.500000 1.075562
Zn7   Zn    Zn3+2 0.714930 0.214920 0.500000 1.077454
Zn8   Zn    Zn3+2 0.714920 0.785060 0.500000 0.992630
Zn9   Zn    Zn3+2 0.285080 0.785060 0.500000 0.998178
Zn10  Zn    Zn3+2 0.214920 0.285060 0.500000 0.995830
Zn11  Zn    Zn3+2 0.785080 0.285060 0.500000 0.990222
Zn12  Zn    Zn3+2 0.961630 0.999960 0.423200 1.041594

loop_
_geom_bond_atom_site_label_1
_geom_bond_atom_site_label_2
_ccdc_geom_bond_type
C29   O35   A    
C58   H30   S    
C51   C123  A    
H61   O74   S    
C135  O24   A    
N4    N8    A    
C89   H68   S    
C27   O37   A    
C31   C101  A    
H53   O66   S    
C21   C59   S    
C31   C36   A    
C4    C142  S    
H50   O63   S    
C95   C99   A    
C5    C143  S    
C117  N6    A    
C89   C94   A    
O5    Zn2   S    
H41   O54   S    
C46   C55   S    
C70   C74   S    
C74   O77   S    
O20   Zn10  S    
C30   C90   A    
H40   O53   S    
C14   C121  S    
C24   C41   S    
O41   Zn4   S    
C4    O58   S    
O18   Zn8   S    
C13   C42   S    
C36   F9    S    
C85   C90   S    
O16   Zn6   S    
C99   C116  S    
C126  C130  S    
C30   C34   A    
C120  C125  S    
C87   C112  S    
C118  N4    A    
C35   O62   S    
C108  C113  A    
H37   O50   S    
H31   O44   S    
C97   H8    S    
O80   Zn12  S    
C7    C132  S    
C4    C129  S    
C88   O17   A    
C68   O11   A    
C87   O16   A    
C79   O34   A    
C62   C75   S    
C120  C138  S    
C69   O72   S    
C23   O3    A    
C43   F12   S    
H55   O69   S    
C25   O4    A    
O2    Zn2   S    
C68   C83   S    
C37   F10   S    
C21   O5    A    
C53   C58   S    
C72   O75   S    
C61   C74   S    
C29   O39   A    
C59   C63   S    
C33   C38   A    
C60   C64   S    
H52   O65   S    
C16   C124  S    
C65   O69   S    
C80   H67   S    
C22   C60   S    
C28   O33   A    
C77   C82   S    
O15   Zn5   S    
C25   C62   S    
C64   O68   S    
C127  C131  S    
O8    Zn3   S    
C24   N10   A    
C61   C65   S    
C143  F5    S    
C56   H29   S    
C73   C77   S    
C46   C64   S    
C134  N12   A    
C54   H27   S    
C103  C107  A    
C70   O73   S    
C26   C111  S    
C52   C65   S    
C104  O46   S    
N3    N7    A    
C3    C141  S    
C48   H22   S    
H46   O59   S    
O17   Zn7   S    
C53   C84   S    
C45   C50   A    
O10   Zn9   S    
H48   O61   S    
C79   C84   S    
C1    O9    A    
C14   C135  S    
C65   C70   S    
C92   C96   A    
C56   C78   S    
N12   N13   A    
C67   C72   S    
C122  C127  S    
C46   O63   S    
C91   H2    S    
C144  F6    S    
C69   C82   S    
C46   C82   S    
C108  O50   S    
H39   O52   S    
H36   O49   S    
O42   Zn12  S    
C55   H28   S    
C85   O14   A    
C11   H21   S    
C20   O43   A    
C4    C8    S    
C141  O57   S    
C29   C115  S    
C128  H13   S    
C48   C90   A    
O28   Zn9   S    
C63   O66   S    
C38   F11   S    
C133  O27   A    
C54   C59   S    
C20   O78   A    
C62   C66   S    
C34   C39   A    
O4    Zn4   S    
C19   O67   A    
C22   O6    A    
C34   F8    S    
C76   H45   S    
C15   C136  S    
C64   C69   S    
C40   C134  S    
C57   O12   A    
C53   O65   S    
C125  H9    S    
C5    C9    S    
C125  C129  S    
O45   Zn4   S    
C137  O26   A    
C118  N7    A    
C8    C12   S    
C100  C119  S    
C32   C37   A    
C94   H5    S    
C1    O1    A    
C109  C114  A    
C78   H66   S    
C27   C113  S    
H60   O73   S    
H32   O46   S    
C67   C81   S    
H33   O47   S    
C135  O28   A    
C124  C141  S    
H62   O75   S    
C6    C144  S    
C93   C97   A    
C103  O44   S    
H64   O77   S    
O7    Zn4   S    
C132  C141  S    
C105  C109  A    
C41   C45   A    
C17   C130  S    
C131  C140  S    
C107  C111  A    
H51   O64   S    
O6    Zn12  S    
O32   Zn5   S    
C139  O54   S    
C35   C63   S    
C2    N13   A    
C7    O61   S    
C13   N11   A    
C121  C139  S    
C122  C140  S    
O14   Zn1   S    
C18   O41   A    
C96   C100  A    
N14   N15   A    
C9    H19   S    
C37   C41   A    
C91   C95   A    
C25   O8    A    
C40   C44   A    
C57   C82   S    
C3    C16   S    
C58   C62   S    
C30   H1    S    
C15   C122  S    
C80   C84   S    
C140  O55   S    
C66   O70   S    
O24   Zn5   S    
C105  O47   S    
C106  O48   S    
C3    C7    S    
C49   C101  A    
C94   C98   A    
C1    C81   S    
C98   C103  A    
O37   Zn9   S    
C60   C73   S    
C19   C132  S    
O3    Zn3   S    
C18   O56   A    
C77   H56   S    
C78   C83   S    
O13   Zn11  S    
O56   Zn3   S    
H43   O57   S    
C69   C73   S    
C136  O29   A    
C97   C102  A    
C58   C80   S    
C59   C72   S    
C124  C128  S    
O26   Zn7   S    
C99   C104  A    
C45   F3    S    
C55   C60   S    
C35   C54   S    
C142  F1    S    
C138  O53   S    
C130  C139  S    
C73   O76   S    
O25   Zn6   S    
C138  C142  S    
O27   Zn8   S    
C47   C51   A    
C33   H34   S    
O67   Zn2   S    
C93   H4    S    
C9    C14   S    
O9    Zn8   S    
H57   O70   S    
C11   C16   S    
C66   C71   S    
C70   C83   S    
C24   N15   A    
C119  N8    A    
N10   N11   A    
O38   Zn10  S    
C20   C131  S    
C104  C108  A    
C15   C144  S    
C109  O51   S    
O34   Zn7   S    
C110  O52   S    
C14   C143  S    
C32   C112  A    
O1    Zn1   S    
C22   O2    A    
C140  C144  S    
C6    C131  S    
C126  H10   S    
C87   O20   A    
C6    C10   S    
C137  O30   A    
C13   N14   A    
N1    N9    A    
C5    O59   S    
O43   Zn2   S    
C6    O60   S    
C26   O36   A    
C120  H14   S    
C88   O21   A    
C12   C142  S    
C8    H18   S    
C71   O74   S    
C8    C125  S    
C23   C61   S    
C31   H12   S    
C74   C78   S    
H47   O60   S    
C56   C61   S    
O36   Zn8   S    
C18   C129  S    
C57   O10   A    
C110  C115  A    
C2    N1    A    
C44   C49   A    
C116  N5    A    
C52   C83   S    
C52   O64   S    
O35   Zn7   S    
C16   C137  S    
C72   C76   S    
C51   H26   S    
O23   Zn6   S    
C35   C81   S    
C119  N3    A    
C7    C11   S    
C79   O13   A    
C100  C105  A    
C92   H3    S    
C38   C42   A    
C10   C15   S    
H58   O71   S    
C55   C77   S    
O31   Zn1   S    
C93   C115  A    
O11   Zn10  S    
C12   C120  S    
C2    C39   S    
O22   Zn1   S    
C129  C138  S    
C117  N16   A    
C44   F2    S    
C32   H23   S    
C85   O18   A    
C75   C80   S    
O40   Zn3   S    
C49   H24   S    
C27   O32   A    
H42   O55   S    
C23   O7    A    
O78   Zn12  S    
C139  C143  S    
H35   O48   S    
C88   C123  S    
C17   O40   A    
C128  C132  S    
H38   O51   S    
H65   O79   S    
C10   H20   S    
C133  O22   A    
C63   C67   S    
C36   C40   A    
C95   H6    S    
H54   O68   S    
H59   O72   S    
C39   C43   A    
C124  H17   S    
C86   O15   A    
C91   C113  A    
C116  N2    A    
C136  O25   A    
H44   O58   S    
O21   Zn11  S    
H63   O76   S    
H49   O62   S    
C17   O45   A    
C50   C112  A    
N5    N16   A    
C53   C66   S    
C28   C114  S    
C54   C76   S    
C127  H11   S    
C121  H15   S    
C122  H16   S    
C12   C133  S    
C50   H25   S    
C10   C127  S    
C98   C117  S    
C71   C84   S    
C43   C48   A    
C19   O42   A    
C47   F4    S    
C5    C130  S    
C21   O80   A    
O39   Zn11  S    
C102  C118  S    
C76   C81   S    
C75   O79   S    
C28   O38   A    
C89   C111  A    
C3    F7    S    
C9    C126  S    
C96   H7    S    
O30   Zn11  S    
C11   C128  S    
C121  C126  S    
C71   C75   S    
C67   O71   S    
C134  N9    A    
C102  C106  A    
C42   C47   A    
O19   Zn9   S    
C86   O19   A    
C26   O31   A    
C52   C56   S    
O33   Zn6   S    
N2    N6    A    
O29   Zn10  S    
C106  C110  A    
C33   C123  A    
C86   C101  S    
C92   C114  A    
O12   Zn5   S    
C68   O23   A    
C107  O49   S    
