data_mof_unit_56883.cif
_audit_creation_date              2012-12-10T19:05:18-0500
_audit_creation_method            fapswitch 2.2
_symmetry_space_group_name_H-M    P1
_symmetry_Int_Tables_number       1
_space_group_crystal_system       triclinic
_cell_length_a                    9.549683
_cell_length_b                    10.831904
_cell_length_c                    17.259745
_cell_angle_alpha                 90.738736
_cell_angle_beta                  86.14058
_cell_angle_gamma                 89.59843
_cell_volume                      1781.11715576

loop_
_atom_site_label
_atom_site_type_symbol
_atom_type_description
_atom_site_fract_x
_atom_site_fract_y
_atom_site_fract_z
_atom_type_partial_charge
C1    C     C_R   0.499591 0.737465 0.499386 0.795631
C2    C     C_R   0.349934 0.501107 0.779105 -0.186639
C3    C     C_R   0.407758 0.513979 0.145319 -0.130201
C4    C     C_R   0.402019 0.510191 0.225748 -0.144348
C5    C     C_R   0.656394 0.508110 0.222063 -0.156695
C6    C     C_R   0.662097 0.511128 0.141255 -0.098118
C7    C     C_R   0.537927 0.515498 0.102636 0.148239
C8    C     C_2   0.452043 0.579762 0.978486 -0.143789
C9    C     C_2   0.546444 0.518790 0.017681 -0.130916
C10   C     C_R   0.526139 0.506382 0.264857 -0.040815
C11   C     C_R   0.374769 0.936822 0.512131 0.148986
C12   C     C_R   0.481937 0.504738 0.649939 0.809785
C13   C     C_R   0.498566 0.870310 0.494263 -0.100572
C14   C     C_R   0.620880 0.933654 0.469768 -0.191790
C15   C     C_R   0.621279 0.062120 0.471065 -0.176841
C16   C     C_R   0.499650 0.128552 0.496405 -0.097523
C17   C     C_R   0.375211 0.064306 0.513437 0.150033
C18   C     C_3   0.279481 0.070005 0.585747 -0.471820
C19   C     C_3   0.278045 0.930137 0.583510 -0.464093
C20   C     C_R   0.933796 0.434682 0.444516 0.201058
C21   C     C_R   0.918923 0.573456 0.549834 -0.069314
C22   C     C_R   0.067777 0.573604 0.549759 -0.073027
C23   C     C_R   0.500178 0.262224 0.500222 0.831947
C24   C     C_R   0.081360 0.434231 0.444800 0.193578
C25   C     C_3   0.090032 0.297914 0.432030 -0.064070
C26   C     C_3   0.930517 0.298600 0.430304 -0.099945
C27   C     C_R   0.518001 0.501623 0.349846 0.832698
C28   C     C_R   0.473436 0.525812 0.733893 -0.091690
C29   C     C_R   0.587723 0.579251 0.768360 -0.264729
C30   C     C_R   0.581161 0.605897 0.847708 0.435588
C31   C     C_R   0.459263 0.573195 0.893696 0.037141
C32   C     C_R   0.343279 0.524271 0.858705 -0.183336
Cu1   Cu    Cu3+1 0.359330 0.500020 0.500000 0.966603
Cu2   Cu    Cu3+1 0.640670 0.499980 0.500000 0.966425
H1    H     H_    0.681376 0.602955 0.732963 0.166021
H2    H     H_    0.763306 0.511909 0.108871 0.163884
H3    H     H_    0.717174 0.884374 0.452236 0.174479
H4    H     H_    0.717620 0.108468 0.454447 0.180228
H5    H     H_    0.331301 0.108870 0.636376 0.202669
H6    H     H_    0.175370 0.111067 0.576308 0.196997
H7    H     H_    0.328085 0.887432 0.633111 0.202080
H8    H     H_    0.174283 0.891446 0.571035 0.202030
H9    H     H_    0.857614 0.631075 0.591244 0.140256
H10   H     H_    0.118112 0.631406 0.591068 0.140417
H11   H     H_    0.299974 0.509952 0.257144 0.178215
H12   H     H_    0.124753 0.250618 0.483994 0.132005
H13   H     H_    0.880310 0.250090 0.481014 0.130443
H14   H     H_    0.753633 0.507421 0.250843 0.178881
H15   H     H_    0.633718 0.471012 0.986415 0.188350
H16   H     H_    0.248913 0.500398 0.893536 0.174608
H17   H     H_    0.310250 0.513607 0.116779 0.140605
H18   H     H_    0.259771 0.461914 0.753207 0.166096
H19   H     H_    0.362609 0.626435 0.008337 0.160094
N1    N     N_R   0.852130 0.499070 0.499500 -0.197981
N2    N     N_R   0.148040 0.499110 0.499500 -0.199787
O1    O     O_R   0.381190 0.680360 0.500000 -0.579442
O2    O     O_R   0.618770 0.680320 0.499990 -0.588578
O3    O     O_R   0.367430 0.500040 0.613600 -0.591751
O4    O     O_R   0.605020 0.500000 0.613590 -0.586771
O5    O     O_R   0.381230 0.319680 0.500010 -0.574098
O6    O     O_R   0.618810 0.319640 0.500000 -0.581305
O7    O     O_R   0.394980 0.500000 0.386410 -0.569783
O8    O     O_R   0.632570 0.499960 0.386400 -0.567256
I1    I     I_    0.215972 0.245888 0.328541 -0.287367
I2    I     I_    0.841884 0.255462 0.321758 -0.310994
S1    S     S_3+6 0.724125 0.685132 0.885456 0.005817
O9    O     O_2   0.674727 0.765111 0.953832 -0.225979
O10   O     O_2   0.829664 0.593057 0.910912 -0.332373
O11   O     O_3   0.801690 0.775271 0.816643 -0.510930
H20   H     H_    0.874766 0.722568 0.789108 0.342778

loop_
_geom_bond_atom_site_label_1
_geom_bond_atom_site_label_2
_ccdc_geom_bond_type
C8    H19   S    
Cu1   N2    S    
Cu2   O2    S    
S1    O10   D    
C18   H5    S    
C19   H8    S    
C15   H4    S    
C22   N2    A    
C2    H18   S    
C27   O7    A    
C1    O2    A    
Cu1   O5    S    
C2    C28   A    
C29   H1    S    
C21   N1    A    
C31   C32   A    
C10   C27   S    
Cu1   O3    S    
C12   O3    A    
Cu1   O1    S    
C19   H7    S    
Cu1   Cu2   S    
C9    H15   S    
C5    C10   A    
C30   S1    S    
C21   C22   A    
C24   N2    A    
C11   C13   A    
C30   C31   A    
C32   H16   S    
C29   C30   A    
C20   C26   S    
C26   H13   S    
C12   C28   S    
C5    C6    A    
C2    C32   A    
C28   C29   A    
C8    C31   S    
C1    O1    A    
C6    H2    S    
C22   H10   S    
Cu2   N1    S    
C16   C23   S    
C3    C7    A    
C4    H11   S    
C12   O4    A    
C17   C18   S    
C23   O5    A    
C5    H14   S    
O11   H20   S    
Cu2   O8    S    
S1    O11   S    
C1    C13   S    
C4    C10   A    
C15   C16   A    
C20   C24   A    
C23   O6    A    
Cu2   O4    S    
C24   C25   S    
C20   N1    A    
C18   C19   S    
S1    O9    D    
C7    C9    S    
C18   H6    S    
C14   C15   A    
C11   C19   S    
C21   H9    S    
C3    H17   S    
C27   O8    A    
C25   C26   S    
C13   C14   A    
C26   I2    S    
Cu1   O7    S    
C25   H12   S    
Cu2   O6    S    
C11   C17   A    
C6    C7    A    
C3    C4    A    
C16   C17   A    
C8    C9    D    
C14   H3    S    
C25   I1    S    
