data_mof_unit_41003.cif
_audit_creation_date              2012-12-10T19:44:25-0500
_audit_creation_method            fapswitch 2.2
_symmetry_space_group_name_H-M    P1
_symmetry_Int_Tables_number       1
_space_group_crystal_system       triclinic
_cell_length_a                    10.863413
_cell_length_b                    12.325703
_cell_length_c                    13.25463
_cell_angle_alpha                 116.519056
_cell_angle_beta                  77.082762
_cell_angle_gamma                 101.244257
_cell_volume                      1538.61936272

loop_
_atom_site_label
_atom_site_type_symbol
_atom_type_description
_atom_site_fract_x
_atom_site_fract_y
_atom_site_fract_z
_atom_type_partial_charge
C1    C     C_R   0.515216 0.854961 0.286755 0.754324
C2    C     C_R   0.649550 0.747959 0.734729 0.411304
C3    C     C_R   0.039662 0.934750 0.546685 -0.215801
C4    C     C_R   0.129863 0.996265 0.491548 -0.099127
C5    C     C_R   0.090296 0.057919 0.438219 0.001694
C6    C     C_R   0.960969 0.060056 0.446153 -0.238099
C7    C     C_R   0.870783 0.000363 0.503551 -0.084951
C8    C     C_R   0.910721 0.937066 0.555130 0.026888
C9    C     C_R   0.180226 0.242557 0.401374 -0.163813
C10   C     C_R   0.267826 0.299830 0.340622 -0.167756
C11   C     C_R   0.356333 0.233297 0.249953 -0.116600
C12   C     C_R   0.737101 0.000828 0.502284 0.776964
C13   C     C_R   0.355006 0.108648 0.217759 -0.077714
C14   C     C_R   0.265966 0.050397 0.276647 -0.092205
C15   C     C_R   0.179874 0.117636 0.370862 0.122848
C16   C     C_R   0.326612 0.282722 0.018494 -0.214532
C17   C     C_R   0.459453 0.228796 0.834468 -0.048770
C18   C     C_R   0.636085 0.810016 0.094818 -0.178368
C19   C     C_R   0.683474 0.726203 0.987673 -0.101042
C20   C     C_R   0.633755 0.604171 0.948640 -0.128301
C21   C     C_R   0.529809 0.563909 0.014469 0.072077
C22   C     C_R   0.478850 0.651033 0.122698 0.081059
C23   C     C_R   0.482406 0.145205 0.713325 0.820547
C24   C     C_R   0.476171 0.439836 0.977626 0.083636
C25   C     C_R   0.376349 0.405097 0.050804 0.153878
C26   C     C_R   0.323520 0.493116 0.153487 -0.244896
C27   C     C_R   0.370713 0.614688 0.186818 -0.194359
C28   C     C_R   0.515422 0.349420 0.868948 -0.249868
C29   C     C_R   0.369346 0.194917 0.911601 -0.105267
C30   C     C_R   0.537844 0.772675 0.164944 -0.106930
C31   C     C_R   0.701657 0.344520 0.325271 -0.304078
C32   C     C_R   0.325878 0.754670 0.645174 0.470535
C33   C     C_R   0.288785 0.655187 0.672116 -0.259565
C34   C     C_R   0.263173 0.998080 0.496056 0.805641
C35   C     C_R   0.353269 0.553257 0.615463 -0.207074
C36   C     C_R   0.457962 0.548812 0.530256 0.014528
C37   C     C_R   0.493058 0.652115 0.502861 0.223365
C38   C     C_R   0.528873 0.445410 0.471876 -0.018487
C39   C     C_R   0.631125 0.444755 0.384312 0.145699
C40   C     C_R   0.663052 0.544449 0.356961 -0.284648
C41   C     C_R   0.596647 0.646234 0.415728 -0.147684
C42   C     C_R   0.503172 0.341927 0.496991 0.060677
C43   C     C_R   0.671163 0.245604 0.353643 0.070874
C44   C     C_R   0.651234 0.875589 0.774111 0.204298
C45   C     C_R   0.738320 0.937187 0.716860 -0.149552
C46   C     C_R   0.822664 0.873289 0.619600 0.082604
C47   C     C_R   0.824924 0.748136 0.584608 -0.240195
C48   C     C_R   0.739466 0.686496 0.642144 -0.172540
Cu1   Cu    Cu3+1 0.529370 0.098270 0.475420 0.943535
Cu2   Cu    Cu3+1 0.470630 0.901730 0.524580 0.970284
H1    H     H_    0.426228 0.278441 0.204948 0.159144
H2    H     H_    0.423746 0.057264 0.147975 0.183241
H3    H     H_    0.266342 0.953774 0.251009 0.103922
H4    H     H_    0.326351 0.102269 0.887568 0.222811
H5    H     H_    0.243289 0.468192 0.207260 0.140615
H6    H     H_    0.251518 0.255477 0.074520 0.152438
H7    H     H_    0.585065 0.370928 0.806866 0.151051
H8    H     H_    0.681921 0.902787 0.125613 0.158416
H9    H     H_    0.679709 0.544190 0.866793 0.139116
H10   H     H_    0.762248 0.755263 0.935683 0.157022
H11   H     H_    0.320585 0.679807 0.263517 0.163684
H12   H     H_    0.724956 0.167757 0.308027 0.123291
H13   H     H_    0.741971 0.544830 0.290489 0.153176
H14   H     H_    0.779979 0.342784 0.257774 0.145151
H15   H     H_    0.427780 0.334455 0.562439 0.129433
H16   H     H_    0.318328 0.479539 0.640537 0.150442
H17   H     H_    0.208504 0.656697 0.737928 0.176313
H18   H     H_    0.631311 0.718932 0.390670 0.205300
H19   H     H_    0.738534 0.034613 0.746599 0.150260
H20   H     H_    0.890859 0.697573 0.510899 0.155902
H21   H     H_    0.740614 0.589313 0.612418 0.166248
H22   H     H_    0.069220 0.886563 0.586630 0.204691
H23   H     H_    0.930777 0.105774 0.403824 0.156837
H24   H     H_    0.114255 0.295878 0.473297 0.130360
H25   H     H_    0.268641 0.396292 0.365155 0.140635
N1    N     N_R   0.573890 0.246290 0.438210 -0.186921
N2    N     N_R   0.426890 0.754320 0.561170 -0.227698
O1    O     O_R   0.536940 0.972510 0.318130 -0.582857
O2    O     O_R   0.487330 0.806530 0.359650 -0.606133
O3    O     O_R   0.705160 0.082990 0.479250 -0.590191
O4    O     O_R   0.655550 0.917010 0.520760 -0.594279
O5    O     O_R   0.512670 0.193470 0.640350 -0.595210
O6    O     O_R   0.463060 0.027490 0.681870 -0.523965
O7    O     O_R   0.344450 0.082990 0.479240 -0.579024
O8    O     O_R   0.294840 0.917010 0.520750 -0.559105
O9    O     O_3   0.561880 0.679475 0.781920 -0.742776
H26   H     H_    0.498861 0.731402 0.841056 0.366644
Br1   Br    Br    0.538927 0.970570 0.905114 -0.613506
Br2   Br    Br    0.224279 0.886317 0.732163 -0.569517

loop_
_geom_bond_atom_site_label_1
_geom_bond_atom_site_label_2
_ccdc_geom_bond_type
C23   O5    A    
C17   C29   A    
C35   C36   A    
Cu2   O2    S    
C7    C8    A    
C28   H7    S    
C26   C27   A    
C17   C23   S    
C40   H13   S    
C31   C43   A    
Cu1   O7    S    
C36   C37   A    
C38   C42   A    
C5    C6    A    
C29   H4    S    
C16   C25   A    
Cu1   O1    S    
C18   C19   A    
C27   H11   S    
Cu2   O8    S    
C32   N2    A    
C18   H8    S    
C47   C48   A    
C2    C44   A    
C42   H15   S    
C18   C30   A    
C9    C10   A    
C13   C14   A    
C26   H5    S    
C1    O1    A    
C34   O7    A    
Cu2   O6    S    
C41   H18   S    
C7    C12   S    
C4    C34   S    
C45   H19   S    
C24   C25   A    
C3    C8    A    
C39   C40   A    
O9    H26   S    
C35   H16   S    
C2    C48   A    
C25   C26   A    
C45   C46   A    
C37   N2    A    
C34   O8    A    
Cu1   O5    S    
C16   H6    S    
C47   H20   S    
C13   H2    S    
C10   H25   S    
C32   Br2   S    
Cu1   N1    S    
C20   H9    S    
C23   O6    A    
C40   C41   A    
C22   C27   A    
C1    O2    A    
C9    H24   S    
C48   H21   S    
C3    C4    A    
Cu2   N2    S    
C44   C45   A    
C33   H17   S    
C6    H23   S    
C43   N1    A    
C46   C47   A    
C22   C30   A    
C17   C28   A    
C31   H14   S    
C24   C28   A    
C4    C5    A    
C43   H12   S    
C6    C7    A    
C19   H10   S    
C42   N1    A    
Cu1   O3    S    
C32   C33   A    
C19   C20   A    
C36   C38   A    
C3    H22   S    
C9    C15   A    
C44   Br1   S    
C11   C13   A    
C38   C39   A    
C12   O3    A    
C1    C30   S    
C33   C35   A    
C31   C39   A    
C12   O4    A    
C2    O9    S    
C37   C41   A    
C8    C46   S    
C5    C15   S    
C11   H1    S    
C10   C11   A    
C14   H3    S    
C20   C21   A    
C16   C29   A    
Cu1   Cu2   S    
C21   C24   A    
C14   C15   A    
C21   C22   A    
Cu2   O4    S    
