data_mof_unit_65624.cif
_audit_creation_date              2012-12-10T18:24:12-0500
_audit_creation_method            fapswitch 2.2
_symmetry_space_group_name_H-M    P1
_symmetry_Int_Tables_number       1
_space_group_crystal_system       triclinic
_cell_length_a                    16.09007
_cell_length_b                    16.090159
_cell_length_c                    16.090107
_cell_angle_alpha                 95.861212
_cell_angle_beta                  84.427817
_cell_angle_gamma                 90.132218
_cell_volume                      4124.11678681

loop_
_atom_site_label
_atom_site_type_symbol
_atom_type_description
_atom_site_fract_x
_atom_site_fract_y
_atom_site_fract_z
_atom_type_partial_charge
C1    C     C_R   0.510680 0.724327 0.510721 0.506825
C2    C     C_1   0.485052 0.186249 0.484992 0.018366
C3    C     C_1   0.515045 0.483418 0.184667 0.018378
C4    C     C_R   0.489313 0.275667 0.489269 0.507853
C5    C     C_2   0.523156 0.474477 0.018874 -0.118253
C6    C     C_2   0.476921 0.525421 0.981116 -0.118989
C7    C     C_1   0.481371 0.520517 0.890842 -0.040152
C8    C     C_1   0.518698 0.479390 0.109149 -0.040259
C9    C     C_1   0.485001 0.516518 0.815327 0.018394
C10   C     C_R   0.510726 0.488179 0.274540 0.507016
C11   C     C_R   0.489272 0.511814 0.725460 0.507684
C12   C     C_1   0.111124 0.520604 0.520525 -0.040163
C13   C     C_R   0.724329 0.488146 0.488192 0.507186
C14   C     C_R   0.275677 0.511856 0.511818 0.507512
C15   C     C_1   0.813747 0.483368 0.483450 0.018370
C16   C     C_2   0.978688 0.474392 0.474534 -0.118266
C17   C     C_2   0.021317 0.525528 0.525423 -0.119013
C18   C     C_1   0.888881 0.479326 0.479436 -0.040266
C19   C     C_1   0.186258 0.516586 0.516527 0.018402
C20   C     C_1   0.514985 0.813745 0.515030 0.018362
C21   C     C_2   0.523074 0.978685 0.523131 -0.118196
C22   C     C_2   0.476996 0.021309 0.476909 -0.118933
C23   C     C_1   0.481433 0.111116 0.481360 -0.040178
C24   C     C_1   0.518628 0.888878 0.518677 -0.040283
H1    H     H_    0.988931 0.571598 0.571264 0.138882
H2    H     H_    0.435486 0.988920 0.435271 0.138738
H3    H     H_    0.564584 0.011073 0.564770 0.140165
H4    H     H_    0.564807 0.428583 0.982102 0.140200
H5    H     H_    0.011073 0.428323 0.428692 0.140306
H6    H     H_    0.435270 0.571314 0.017889 0.138791
O1    O     O_3   0.500000 0.500000 0.500000 -0.439068
O2    O     O_R   0.689040 0.536050 0.444000 -0.533968
O3    O     O_R   0.315570 0.560650 0.560630 -0.534373
O4    O     O_R   0.679800 0.444450 0.536560 -0.534708
O5    O     O_R   0.315590 0.458850 0.458810 -0.535150
O6    O     O_R   0.458170 0.444480 0.314880 -0.534556
O7    O     O_R   0.445130 0.560630 0.690220 -0.534187
O8    O     O_R   0.559450 0.679320 0.457680 -0.534375
O9    O     O_R   0.537250 0.315570 0.537220 -0.535102
O10   O     O_R   0.458120 0.689530 0.559970 -0.534403
O11   O     O_R   0.445170 0.315580 0.445130 -0.534347
O12   O     O_R   0.559480 0.536070 0.314410 -0.534165
O13   O     O_R   0.537220 0.458810 0.680490 -0.535306
Zn1   Zn    Zn3+2 0.430930 0.430930 0.430910 0.953644
Zn2   Zn    Zn3+2 0.575680 0.561790 0.430230 0.954301
Zn3   Zn    Zn3+2 0.562480 0.430910 0.562480 0.953166
Zn4   Zn    Zn3+2 0.430910 0.576380 0.576380 0.954121

loop_
_geom_bond_atom_site_label_1
_geom_bond_atom_site_label_2
_ccdc_geom_bond_type
C12   C17   S    
O10   Zn4   S    
C2    C4    S    
C11   O13   A    
C6    C7    S    
O4    Zn3   S    
C15   C18   T    
C5    H4    S    
O2    Zn2   S    
C13   O2    A    
C4    O9    A    
C1    C20   S    
C17   H1    S    
O1    Zn1   S    
C14   O3    A    
C21   H3    S    
C13   O4    A    
C3    C10   S    
O1    Zn4   S    
C21   C22   D    
O5    Zn1   S    
C9    C11   S    
C1    O8    A    
O9    Zn3   S    
C12   C19   T    
O13   Zn3   S    
C13   C15   S    
C22   H2    S    
C5    C6    D    
O3    Zn4   S    
O11   Zn1   S    
O6    Zn1   S    
C5    C8    S    
O7    Zn4   S    
C4    O11   A    
C7    C9    T    
C2    C23   T    
C16   C18   S    
C3    C8    T    
O1    Zn2   S    
C21   C24   S    
C14   O5    A    
C11   O7    A    
C22   C23   S    
C10   O12   A    
C10   O6    A    
C1    O10   A    
C6    H6    S    
C16   H5    S    
C14   C19   S    
O12   Zn2   S    
C20   C24   T    
C16   C17   D    
O8    Zn2   S    
O1    Zn3   S    
