data_mof_unit_9992.cif
_audit_creation_date              2012-10-26T20:58:20-0400
_audit_creation_method            fapswitch 2.2
_symmetry_space_group_name_H-M    P1
_symmetry_Int_Tables_number       1
_space_group_crystal_system       triclinic
_cell_length_a                    10.608041
_cell_length_b                    14.688127
_cell_length_c                    14.74212
_cell_angle_alpha                 64.913263
_cell_angle_beta                  103.498971
_cell_angle_gamma                 103.117642
_cell_volume                      2001.37435539

loop_
_atom_site_label
_atom_site_type_symbol
_atom_type_description
_atom_site_fract_x
_atom_site_fract_y
_atom_site_fract_z
_atom_type_partial_charge
C1    C     C_R   0.476350 0.119846 0.312198 0.550350
C2    C     C_R   0.449242 0.532970 0.946590 0.036637
C3    C     C_R   0.410264 0.490972 0.872159 -0.153686
C4    C     C_R   0.470016 0.508010 0.123412 -0.153232
C5    C     C_R   0.387997 0.386761 0.898753 -0.102382
C6    C     C_R   0.489819 0.612252 0.096624 -0.102091
C7    C     C_R   0.737374 0.294108 0.652284 -0.155696
C8    C     C_R   0.263386 0.706639 0.346607 -0.152561
C9    C     C_R   0.692196 0.207172 0.631750 0.043183
C10   C     C_R   0.307991 0.793109 0.368014 0.045041
C11   C     C_R   0.516189 0.284107 0.512358 0.042433
C12   C     C_R   0.519995 0.880169 0.687788 0.549908
C13   C     C_R   0.484297 0.716136 0.486948 0.042748
C14   C     C_R   0.549705 0.371364 0.536898 -0.041219
C15   C     C_R   0.451165 0.629330 0.461664 -0.041747
C16   C     C_R   0.259364 0.000121 0.499942 0.555817
C17   C     C_R   0.740644 0.999871 0.500071 0.557252
C18   C     C_R   0.669544 0.378817 0.602283 -0.001856
C19   C     C_R   0.331494 0.622075 0.396076 -0.002562
C20   C     C_R   0.472440 0.452893 0.494844 -0.065630
C21   C     C_R   0.528635 0.547975 0.503254 -0.064596
C22   C     C_R   0.660752 0.558301 0.552527 0.253868
C23   C     C_R   0.469316 0.291906 0.178098 -0.148807
C24   C     C_R   0.340487 0.442761 0.445182 0.249455
C25   C     C_R   0.724149 0.472799 0.609963 0.192175
C26   C     C_R   0.277276 0.528349 0.387721 0.188136
C27   C     C_3   0.009213 0.923356 0.476069 -0.104130
C28   C     C_3   0.990825 0.076626 0.523964 -0.104198
C29   C     C_3   0.932017 0.012578 0.407369 -0.129646
C30   C     C_3   0.068023 0.987402 0.592663 -0.129184
C31   C     C_3   0.877621 0.000093 0.500108 0.038216
C32   C     C_3   0.122408 0.999889 0.499923 0.038418
C33   C     C_3   0.952566 0.910984 0.568837 -0.116144
C34   C     C_R   0.496598 0.707923 0.821672 -0.147837
C35   C     C_3   0.047472 0.088998 0.431194 -0.116664
C36   C     C_R   0.453927 0.187355 0.204484 -0.037390
C37   C     C_R   0.519717 0.812674 0.795121 -0.037363
C38   C     C_R   0.391026 0.214328 0.026293 0.237617
C39   C     C_R   0.524747 0.785163 0.970701 0.237313
C40   C     C_R   0.413795 0.148582 0.128805 -0.130577
C41   C     C_R   0.533916 0.851272 0.869491 -0.130485
C42   C     C_3   0.959756 0.511047 0.615804 -0.277342
C43   C     C_3   0.041618 0.489858 0.381225 -0.276069
C44   C     C_R   0.442360 0.359692 0.077030 -0.007942
C45   C     C_R   0.480035 0.639670 0.920673 -0.008208
C46   C     C_R   0.406757 0.320044 0.000372 0.092043
C47   C     C_R   0.498331 0.679233 0.996345 0.090588
C48   C     C_R   0.454767 0.466213 0.050222 0.035060
Cu1   Cu    Cu3+1 0.465750 0.918270 0.475680 0.935928
Cu2   Cu    Cu3+1 0.534250 0.081730 0.524320 0.935009
H1    H     H_    0.873106 0.022793 0.331705 0.120362
H2    H     H_    0.980781 0.139505 0.543559 0.132702
H3    H     H_    0.910384 0.838198 0.624920 0.144255
H4    H     H_    0.089679 0.161775 0.375111 0.144283
H5    H     H_    0.358155 0.358811 0.838590 0.170185
H6    H     H_    0.500394 0.640063 0.155739 0.172583
H7    H     H_    0.494420 0.681070 0.763701 0.136114
H8    H     H_    0.506330 0.319241 0.237859 0.134930
H9    H     H_    0.551363 0.932663 0.848891 0.121723
H10   H     H_    0.401118 0.067353 0.149237 0.121435
H11   H     H_    0.391549 0.536714 0.792128 0.105496
H12   H     H_    0.126961 0.977177 0.668324 0.121222
H13   H     H_    0.462498 0.461976 0.202083 0.114085
H14   H     H_    0.713394 0.698333 0.469443 0.314242
H15   H     H_    0.286789 0.302964 0.528158 0.314836
H16   H     H_    0.348017 0.101979 0.981778 0.323572
H17   H     H_    0.557929 0.897590 0.014392 0.323144
H18   H     H_    0.862245 0.431150 0.740970 0.238831
H19   H     H_    0.967289 0.447058 0.596928 0.113352
H20   H     H_    0.051534 0.526166 0.665055 0.143302
H21   H     H_    0.949522 0.580349 0.544990 0.181903
H22   H     H_    0.139743 0.570532 0.256448 0.238596
H23   H     H_    0.562432 0.720314 0.547297 0.177761
H24   H     H_    0.033627 0.553580 0.400337 0.112797
H25   H     H_    0.051746 0.420400 0.451893 0.182432
H26   H     H_    0.950122 0.474800 0.331704 0.145345
H27   H     H_    0.438273 0.279762 0.451948 0.176962
H28   H     H_    0.254244 0.857142 0.330801 0.124323
H29   H     H_    0.745797 0.143066 0.669283 0.126155
H30   H     H_    0.827318 0.294803 0.704812 0.100640
H31   H     H_    0.173633 0.706146 0.293846 0.099696
H32   H     H_    0.019266 0.860476 0.456477 0.132367
N1    N     N_R   0.585750 0.204560 0.560800 -0.238778
N2    N     N_R   0.414250 0.795440 0.439200 -0.238751
N3    N     N_2   0.849337 0.485960 0.668430 -0.464403
N4    N     N_2   0.152380 0.515404 0.328834 -0.465685
O1    O     O_R   0.454850 0.022100 0.338110 -0.504281
O2    O     O_3   0.265762 0.349736 0.456410 -0.710935
O3    O     O_3   0.354040 0.177069 0.950667 -0.721986
O4    O     O_3   0.540241 0.822318 0.045139 -0.721420
O5    O     O_R   0.545150 0.977900 0.661890 -0.505029
O6    O     O_R   0.512700 0.160150 0.379180 -0.509468
O7    O     O_R   0.487300 0.839850 0.620820 -0.509222
O8    O     O_R   0.287930 0.931000 0.479440 -0.511840
O9    O     O_R   0.712070 0.069000 0.520560 -0.510564
O10   O     O_R   0.345780 0.069050 0.520520 -0.498117
O11   O     O_R   0.654220 0.930950 0.479480 -0.496985
O12   O     O_3   0.735355 0.651441 0.541009 -0.710114

loop_
_geom_bond_atom_site_label_1
_geom_bond_atom_site_label_2
_ccdc_geom_bond_type
C1    O1    A    
C23   H8    S    
C30   C32   S    
C40   H10   S    
C27   C29   S    
C34   C37   A    
Cu1   O1    S    
C12   O5    A    
C10   H28   S    
C39   C41   A    
C27   C33   S    
C15   C19   A    
C38   O3    S    
C22   O12   S    
Cu1   N2    S    
C24   C26   A    
C4    C48   A    
C11   C14   A    
Cu2   O9    S    
C3    H11   S    
C42   H20   S    
C9    H29   S    
C10   N2    A    
C12   C37   S    
C19   C26   A    
C14   C18   A    
C11   H27   S    
C20   C24   A    
C28   C35   S    
C22   C25   A    
C34   H7    S    
C31   C33   S    
C17   O9    A    
Cu1   O8    S    
C39   O4    S    
C43   H24   S    
H14   O12   S    
C21   C22   A    
C35   H4    S    
C43   H25   S    
H18   N3    S    
C18   C25   A    
C44   C46   A    
Cu2   N1    S    
H16   O3    S    
C45   C47   A    
C2    C45   A    
C33   H3    S    
C16   O10   A    
C8    C19   A    
C6    C47   A    
C8    H31   S    
C32   C35   S    
C14   C20   A    
C36   C40   A    
C41   H9    S    
C4    C6    A    
C42   N3    S    
C11   N1    A    
C42   H19   S    
C23   C44   A    
C28   C31   S    
C13   N2    A    
C26   N4    S    
C7    C18   A    
C25   N3    S    
C34   C45   A    
C24   O2    S    
C9    N1    A    
Cu2   O6    S    
C13   H23   S    
C23   C36   A    
C1    O6    A    
C13   C15   A    
C17   C31   S    
C12   O7    A    
H15   O2    S    
C39   C47   A    
C29   H1    S    
C43   H26   S    
C7    C9    A    
C30   C33   S    
C27   C32   S    
C43   N4    S    
C5    H5    S    
C27   H32   S    
C6    H6    S    
C3    C5    A    
H22   N4    S    
C16   C32   S    
C5    C46   A    
C29   C35   S    
C16   O8    A    
C2    C48   A    
C30   H12   S    
C2    C3    A    
C29   C31   S    
C38   C40   A    
C28   H2    S    
Cu2   O10   S    
C4    H13   S    
C28   C30   S    
C42   H21   S    
H17   O4    S    
C37   C41   A    
C38   C46   A    
Cu1   O11   S    
Cu2   O5    S    
C15   C21   A    
C20   C21   A    
C8    C10   A    
Cu1   Cu2   S    
Cu1   O7    S    
C17   O11   A    
C44   C48   A    
C1    C36   S    
C7    H30   S    
