data_mof_unit_11774.cif
_audit_creation_date              2012-12-10T18:00:47-0500
_audit_creation_method            fapswitch 2.2
_symmetry_space_group_name_H-M    P1
_symmetry_Int_Tables_number       1
_space_group_crystal_system       triclinic
_cell_length_a                    15.875268
_cell_length_b                    10.829934
_cell_length_c                    9.520716
_cell_angle_alpha                 90.005035
_cell_angle_beta                  89.98896
_cell_angle_gamma                 90.240522
_cell_volume                      1636.86419759

loop_
_atom_site_label
_atom_site_type_symbol
_atom_type_description
_atom_site_fract_x
_atom_site_fract_y
_atom_site_fract_z
_atom_type_partial_charge
C1    C     C_R   0.499923 0.262073 0.499959 0.797500
C2    C     C_R   0.500077 0.737927 0.500041 0.797500
C3    C     C_R   0.499937 0.936114 0.372362 -0.159509
C4    C     C_R   0.500063 0.063886 0.627638 -0.159509
C5    C     C_R   0.500089 0.871776 0.500022 -0.017824
C6    C     C_R   0.499911 0.128224 0.499978 -0.017824
C7    C     C_R   0.447192 0.423715 0.074383 -0.010377
C8    C     C_R   0.552808 0.576285 0.925617 -0.010378
C9    C     C_R   0.447213 0.423747 0.925570 -0.011591
C10   C     C_R   0.552787 0.576253 0.074430 -0.011591
C11   C     C_R   0.339792 0.499823 0.499992 0.829802
C12   C     C_R   0.660208 0.500177 0.500008 0.829803
C13   C     C_3   0.971382 0.420841 0.598902 -0.259223
C14   C     C_3   0.028618 0.579160 0.401098 -0.259225
C15   C     C_3   0.027107 0.387489 0.471920 0.517515
C16   C     C_3   0.972893 0.612512 0.528080 0.517521
C17   C     C_1   0.250140 0.499813 0.500060 -0.129562
C18   C     C_1   0.749860 0.500187 0.499940 -0.129560
C19   C     C_3   0.028316 0.535395 0.627656 -0.258303
C20   C     C_3   0.971684 0.464606 0.372343 -0.258302
C21   C     C_3   0.083024 0.500123 0.500187 -0.014665
C22   C     C_3   0.916976 0.499879 0.499813 -0.014662
C23   C     C_1   0.174642 0.499919 0.500155 0.081350
C24   C     C_1   0.825357 0.500081 0.499845 0.081355
C25   C     C_R   0.499822 0.063835 0.372340 -0.157115
C26   C     C_R   0.500178 0.936165 0.627660 -0.157115
Cu1   Cu    Cu3+1 0.500000 0.500020 0.640660 0.968772
Cu2   Cu    Cu3+1 0.500000 0.499980 0.359340 0.968771
H1    H     H_    0.947289 0.354854 0.678731 0.195664
H2    H     H_    0.052711 0.645147 0.321269 0.195665
H3    H     H_    0.947833 0.434159 0.268301 0.194184
H4    H     H_    0.052166 0.565842 0.731699 0.194182
H5    H     H_    0.499672 0.111854 0.272533 0.153456
H6    H     H_    0.500328 0.888146 0.727467 0.153456
H7    H     H_    0.499890 0.888055 0.272569 0.153280
H8    H     H_    0.500110 0.111945 0.727431 0.153280
H9    H     H_    0.404949 0.362500 0.130430 0.135563
H10   H     H_    0.595051 0.637500 0.869570 0.135564
H11   H     H_    0.404985 0.362553 0.869479 0.132707
H12   H     H_    0.595015 0.637447 0.130521 0.132707
N1    N     N_R   0.500020 0.500030 0.852070 -0.165096
N2    N     N_R   0.499980 0.499970 0.147930 -0.165096
O1    O     O_R   0.500000 0.319660 0.618740 -0.589925
O2    O     O_R   0.500000 0.680340 0.381260 -0.589925
O3    O     O_R   0.499990 0.319630 0.381170 -0.588986
O4    O     O_R   0.500010 0.680370 0.618830 -0.588986
O5    O     O_R   0.379080 0.500000 0.618760 -0.574985
O6    O     O_R   0.620920 0.500000 0.381240 -0.574985
O7    O     O_R   0.379080 0.499970 0.381190 -0.571730
O8    O     O_R   0.620920 0.500030 0.618810 -0.571730
S1    S     S_3+6 0.063724 0.235911 0.434056 0.018487
O9    O     O_2   0.118507 0.239781 0.305378 -0.283944
O10   O     O_2   0.113708 0.188573 0.556617 -0.276835
O11   O     O_3   0.980542 0.142741 0.405291 -0.509287
H13   H     H_    0.005171 0.062467 0.377539 0.400709
S2    S     S_3+6 0.936274 0.764088 0.565946 0.018471
O12   O     O_2   0.886301 0.811434 0.443377 -0.276818
O13   O     O_2   0.881478 0.760210 0.694612 -0.283977
O14   O     O_3   0.019452 0.857258 0.594738 -0.509304
H14   H     H_    0.994818 0.937508 0.622568 0.400684

loop_
_geom_bond_atom_site_label_1
_geom_bond_atom_site_label_2
_ccdc_geom_bond_type
C12   O8    A    
C16   S2    S    
C11   O7    A    
C15   S1    S    
S2    O13   D    
C10   N2    A    
C1    O1    A    
Cu2   O7    S    
Cu1   N1    S    
C11   O5    A    
Cu1   O5    S    
S2    O14   S    
Cu1   O8    S    
C9    H11   S    
C12   O6    A    
S1    O11   S    
C4    H8    S    
C7    H9    S    
O14   H14   S    
C2    O4    A    
C8    N1    A    
C1    O3    A    
C17   C23   T    
C8    H10   S    
C14   H2    S    
C16   C19   S    
C18   C24   T    
C19   H4    S    
C14   C21   S    
Cu2   N2    S    
C19   C21   S    
C20   C22   S    
C13   C22   S    
C14   C16   S    
C21   C23   S    
C13   C15   S    
C15   C20   S    
Cu2   O3    S    
C22   C24   S    
C4    C26   A    
C6    C25   A    
C25   H5    S    
C13   C19   S    
C3    H7    S    
C5    C26   A    
C2    C5    S    
C14   C20   S    
C15   C21   S    
C3    C25   A    
S1    O9    D    
S2    O12   D    
Cu1   O4    S    
Cu2   O2    S    
C8    C10   A    
C4    C6    A    
C7    N2    A    
C12   C18   S    
Cu1   Cu2   S    
C7    C9    A    
Cu1   O1    S    
O11   H13   S    
C11   C17   S    
C10   H12   S    
C16   C22   S    
C3    C5    A    
C9    N1    A    
C26   H6    S    
Cu2   O6    S    
C1    C6    S    
C13   H1    S    
C2    O2    A    
S1    O10   D    
C20   H3    S    
