data_mof_unit_15099.cif
_audit_creation_date              2012-12-11T16:13:45-0500
_audit_creation_method            fapswitch 2.2
_symmetry_space_group_name_H-M    P1
_symmetry_Int_Tables_number       1
_space_group_crystal_system       monoclinic
_cell_length_a                    26.205036
_cell_length_b                    7.269962
_cell_length_c                    23.723507
_cell_angle_alpha                 90.0
_cell_angle_beta                  101.22501
_cell_angle_gamma                 90.0
_cell_volume                      4433.09834996

loop_
_atom_site_label
_atom_site_type_symbol
_atom_type_description
_atom_site_fract_x
_atom_site_fract_y
_atom_site_fract_z
_atom_type_partial_charge
O1    O     O_R   0.192370 0.384760 0.193350 -0.536069
O2    O     O_R   0.807630 0.615240 0.806650 -0.525545
O3    O     O_R   0.307630 0.884760 0.306650 -0.536069
O4    O     O_R   0.692370 0.115240 0.693350 -0.525545
O5    O     O_R   0.296630 0.711620 0.196480 -0.507339
O6    O     O_R   0.703370 0.288380 0.803520 -0.525975
O7    O     O_R   0.203370 0.211620 0.303520 -0.507340
O8    O     O_R   0.796630 0.788380 0.696480 -0.525974
C1    C     C_R   0.312570 0.545904 0.184028 0.734334
C2    C     C_R   0.687298 0.453909 0.815265 0.764170
C3    C     C_R   0.187430 0.045904 0.315972 0.734334
C4    C     C_R   0.812702 0.953909 0.684735 0.764169
O9    O     O_R   0.192080 0.714290 0.186600 -0.536872
O10   O     O_R   0.807920 0.285710 0.813400 -0.538076
O11   O     O_R   0.307920 0.214290 0.313400 -0.536872
O12   O     O_R   0.692080 0.785710 0.686600 -0.538075
O13   O     O_R   0.202340 0.887460 0.296690 -0.543608
O14   O     O_R   0.797660 0.112540 0.703310 -0.545639
O15   O     O_R   0.297660 0.387460 0.203310 -0.543608
O16   O     O_R   0.702340 0.612540 0.796690 -0.545639
C5    C     C_R   0.173849 0.546156 0.171467 0.707161
C6    C     C_R   0.826200 0.453802 0.828475 0.705056
C7    C     C_R   0.326151 0.046156 0.328532 0.707161
C8    C     C_R   0.673800 0.953802 0.671525 0.705056
O17   O     O_3   0.253490 0.552180 0.286130 -0.375834
O18   O     O_3   0.746510 0.447820 0.713870 -0.382044
O19   O     O_3   0.246510 0.052180 0.213870 -0.375834
O20   O     O_3   0.753490 0.947820 0.786130 -0.382043
V1    V     V_3+5 0.249350 0.825920 0.243300 1.437161
V2    V     V_3+5 0.750650 0.174080 0.756700 1.433740
V3    V     V_3+5 0.250650 0.325920 0.256700 1.437161
V4    V     V_3+5 0.749350 0.674080 0.743300 1.433740
C9    C     C_3   0.538844 0.917676 0.478160 0.288516
C10   C     C_3   0.461967 0.071151 0.520869 0.314408
C11   C     C_3   0.961156 0.417676 0.021840 0.288517
C12   C     C_3   0.038033 0.571151 0.979131 0.314409
C13   C     C_3   0.510626 0.100247 0.456361 0.304976
C14   C     C_3   0.490172 0.890010 0.542431 0.323002
C15   C     C_3   0.989374 0.600248 0.043639 0.304977
C16   C     C_3   0.009828 0.390010 0.957569 0.323001
C17   C     C_1   0.371731 0.037943 0.374181 -0.206286
C18   C     C_1   0.628267 0.961357 0.625789 -0.174212
C19   C     C_1   0.128269 0.537943 0.125819 -0.206285
C20   C     C_1   0.871733 0.461357 0.874211 -0.174212
C21   C     C_3   0.485996 0.824734 0.479727 0.277122
C22   C     C_3   0.514654 0.164062 0.519195 0.305240
C23   C     C_3   0.014004 0.324734 0.020273 0.277122
C24   C     C_3   0.985346 0.664062 0.980805 0.305240
C25   C     C_3   0.457374 0.007356 0.457563 -0.223964
C26   C     C_3   0.543177 0.982677 0.541398 -0.221536
C27   C     C_3   0.042626 0.507356 0.042437 -0.223964
C28   C     C_3   0.956823 0.482677 0.958602 -0.221536
C29   C     C_1   0.410195 0.027517 0.411962 0.087504
C30   C     C_1   0.589970 0.968780 0.587709 0.115018
C31   C     C_1   0.089805 0.527517 0.088038 0.087504
C32   C     C_1   0.910030 0.468780 0.912291 0.115018
C33   C     C_R   0.844720 0.089725 0.601283 -0.341607
C34   C     C_R   0.127258 0.864256 0.365381 -0.321793
C35   C     C_R   0.655280 0.589725 0.898717 -0.341606
C36   C     C_R   0.372741 0.364256 0.134619 -0.321793
H1    H     H_    0.811115 0.179621 0.594223 0.147786
H2    H     H_    0.138803 0.740800 0.345665 0.196947
H3    H     H_    0.688885 0.679621 0.905777 0.147787
H4    H     H_    0.361197 0.240800 0.154335 0.196947
C37   C     C_R   0.880286 0.098790 0.563773 0.488819
C38   C     C_R   0.089797 0.848378 0.400311 0.491088
C39   C     C_R   0.619714 0.598790 0.936227 0.488819
C40   C     C_R   0.410203 0.348378 0.099689 0.491089
C41   C     C_R   0.922770 0.975280 0.571002 -0.123953
C42   C     C_R   0.073932 0.005909 0.427171 -0.142313
C43   C     C_R   0.577230 0.475280 0.928998 -0.123953
C44   C     C_R   0.426068 0.505909 0.072829 -0.142313
C45   C     C_R   0.928973 0.847245 0.616332 -0.312506
C46   C     C_R   0.095583 0.176852 0.417224 -0.298905
C47   C     C_R   0.571027 0.347245 0.883668 -0.312506
C48   C     C_R   0.404417 0.676852 0.082776 -0.298904
H5    H     H_    0.962553 0.757325 0.623889 0.168424
H6    H     H_    0.083709 0.299720 0.437011 0.206075
H7    H     H_    0.537447 0.257325 0.876111 0.168424
H8    H     H_    0.416291 0.799720 0.062989 0.206075
C49   C     C_R   0.893270 0.838010 0.653634 0.462764
C50   C     C_R   0.133264 0.192930 0.382602 0.470631
C51   C     C_R   0.606730 0.338010 0.846366 0.462765
C52   C     C_R   0.366736 0.692930 0.117398 0.470631
C53   C     C_R   0.851037 0.961497 0.646325 -0.183217
C54   C     C_R   0.148957 0.035485 0.355148 -0.214119
C55   C     C_R   0.648963 0.461497 0.853675 -0.183217
C56   C     C_R   0.351043 0.535485 0.144852 -0.214119
N1    N     N_R   0.990204 0.830955 0.525155 -0.300318
N2    N     N_R   0.006121 0.147538 0.472642 -0.292581
N3    N     N_R   0.509796 0.330955 0.974846 -0.300318
N4    N     N_R   0.493879 0.647538 0.027358 -0.292581
N5    N     N_R   0.025535 0.837775 0.491592 -0.222710
N6    N     N_R   0.970671 0.140515 0.505970 -0.237886
N7    N     N_R   0.474465 0.337775 0.008408 -0.222711
N8    N     N_R   0.529329 0.640515 0.994030 -0.237886
C57   C     C_R   0.034256 0.996203 0.464494 0.549983
C58   C     C_R   0.961772 0.982077 0.532867 0.558432
C59   C     C_R   0.465744 0.496204 0.035506 0.549983
C60   C     C_R   0.538228 0.482077 0.967133 0.558432
O21   O     O_3   0.517398 0.216962 0.410599 -0.539273
C61   C     C_3   0.569479 0.214897 0.402836 -0.186799
H9    H     H_    0.598525 0.196174 0.443383 0.137383
H10   H     H_    0.578182 0.347400 0.383841 0.123547
H11   H     H_    0.574750 0.108483 0.371147 0.153184
O22   O     O_3   0.482447 0.784835 0.590116 -0.535043
C62   C     C_3   0.434237 0.692952 0.577182 -0.158046
H12   H     H_    0.437605 0.566706 0.551949 0.221227
H13   H     H_    0.402241 0.781882 0.554240 0.122773
H14   H     H_    0.423423 0.649338 0.618092 0.133773
O23   O     O_3   0.982602 0.716963 0.089401 -0.539272
C63   C     C_3   0.930521 0.714897 0.097164 -0.186801
H15   H     H_    0.901475 0.696175 0.056617 0.137383
H16   H     H_    0.921818 0.847400 0.116159 0.123548
H17   H     H_    0.925250 0.608483 0.128853 0.153184
O24   O     O_3   0.017553 0.284835 0.909884 -0.535042
C64   C     C_3   0.065763 0.192952 0.922818 -0.158048
H18   H     H_    0.062395 0.066706 0.948051 0.221226
H19   H     H_    0.097759 0.281882 0.945760 0.122774
H20   H     H_    0.076577 0.149338 0.881908 0.133774
O25   O     O_3   0.580967 0.838629 0.457659 -0.549575
C65   C     C_3   0.562993 0.757146 0.403396 -0.220513
H21   H     H_    0.532393 0.839032 0.375074 0.137197
H22   H     H_    0.547301 0.618636 0.408500 0.197841
H23   H     H_    0.596307 0.741924 0.381221 0.139456
O26   O     O_3   0.419604 0.154977 0.539683 -0.546534
C66   C     C_3   0.431579 0.182537 0.599626 -0.179525
H24   H     H_    0.469932 0.249903 0.614234 0.183528
H25   H     H_    0.429971 0.051080 0.622893 0.163874
H26   H     H_    0.401674 0.274600 0.611624 0.131867
O27   O     O_3   0.919033 0.338629 0.042341 -0.549576
C67   C     C_3   0.937007 0.257147 0.096604 -0.220514
H27   H     H_    0.967607 0.339031 0.124926 0.137197
H28   H     H_    0.952699 0.118636 0.091500 0.197841
H29   H     H_    0.903693 0.241924 0.118779 0.139456
O28   O     O_3   0.080396 0.654976 0.960317 -0.546534
C68   C     C_3   0.068421 0.682538 0.900374 -0.179529
H30   H     H_    0.030069 0.749907 0.885767 0.183529
H31   H     H_    0.070027 0.551080 0.877106 0.163875
H32   H     H_    0.098327 0.774597 0.888376 0.131868
O29   O     O_3   0.524754 0.341833 0.542867 -0.523127
C69   C     C_3   0.574170 0.404463 0.536736 -0.046411
H33   H     H_    0.572810 0.455528 0.492645 0.173661
H34   H     H_    0.605123 0.299175 0.548003 0.073474
H35   H     H_    0.585033 0.522738 0.566169 0.164974
O30   O     O_3   0.477167 0.637783 0.464284 -0.523305
C70   C     C_3   0.428685 0.613535 0.427634 -0.145066
H36   H     H_    0.429049 0.673792 0.384677 0.123870
H37   H     H_    0.396462 0.670419 0.446691 0.107049
H38   H     H_    0.421511 0.463833 0.421466 0.188838
O31   O     O_3   0.975246 0.841833 0.957133 -0.523127
C71   C     C_3   0.925830 0.904463 0.963264 -0.046409
H39   H     H_    0.927190 0.955528 0.007355 0.173661
H40   H     H_    0.894877 0.799175 0.951997 0.073474
H41   H     H_    0.914967 0.022738 0.933831 0.164974
O32   O     O_3   0.022833 0.137783 0.035716 -0.523305
C72   C     C_3   0.071315 0.113535 0.072366 -0.145062
H42   H     H_    0.070951 0.173792 0.115323 0.123869
H43   H     H_    0.103538 0.170419 0.053309 0.107048
H44   H     H_    0.078489 0.963833 0.078534 0.188837
O33   O     O_3   0.870288 0.212341 0.515990 -0.540212
C73   C     C_3   0.876012 0.397766 0.533562 -0.170566
H45   H     H_    0.874734 0.484824 0.494914 0.180521
H46   H     H_    0.914254 0.422836 0.562428 0.132787
H47   H     H_    0.843482 0.442255 0.554184 0.106559
O34   O     O_3   0.070049 0.677066 0.409578 -0.536861
C74   C     C_3   0.032850 0.627117 0.360654 -0.177715
H48   H     H_    0.001702 0.732907 0.350017 0.119694
H49   H     H_    0.014003 0.497027 0.370017 0.173336
H50   H     H_    0.051459 0.601615 0.323056 0.135945
O35   O     O_3   0.629712 0.712341 0.984010 -0.540212
C75   C     C_3   0.623988 0.897766 0.966438 -0.170565
H51   H     H_    0.625267 0.984824 0.005086 0.180521
H52   H     H_    0.585746 0.922837 0.937572 0.132788
H53   H     H_    0.656517 0.942254 0.945816 0.106558
O36   O     O_3   0.429951 0.177066 0.090422 -0.536861
C76   C     C_3   0.467151 0.127117 0.139347 -0.177715
H54   H     H_    0.498298 0.232907 0.149984 0.119694
H55   H     H_    0.485997 0.997027 0.129983 0.173337
H56   H     H_    0.448541 0.101615 0.176944 0.135945
O37   O     O_3   0.903030 0.725837 0.701769 -0.549545
C77   C     C_3   0.897103 0.539978 0.684796 -0.185918
H57   H     H_    0.858829 0.514616 0.656036 0.119094
H58   H     H_    0.898310 0.454335 0.723742 0.160425
H59   H     H_    0.929572 0.494211 0.664274 0.120281
O38   O     O_3   0.152367 0.365219 0.373327 -0.543648
C78   C     C_3   0.190275 0.414449 0.421718 -0.176986
H60   H     H_    0.208508 0.545793 0.412370 0.150579
H61   H     H_    0.221787 0.309575 0.431184 0.108629
H62   H     H_    0.172448 0.437197 0.460034 0.145852
O39   O     O_3   0.596970 0.225837 0.798231 -0.549545
C79   C     C_3   0.602897 0.039978 0.815204 -0.185919
H63   H     H_    0.641171 0.014616 0.843963 0.119095
H64   H     H_    0.601690 0.954335 0.776259 0.160426
H65   H     H_    0.570428 0.994211 0.835727 0.120280
O40   O     O_3   0.347633 0.865219 0.126673 -0.543648
C80   C     C_3   0.309725 0.914449 0.078282 -0.176989
H66   H     H_    0.291492 0.045793 0.087630 0.150579
H67   H     H_    0.278213 0.809575 0.068816 0.108629
H68   H     H_    0.327552 0.937197 0.039966 0.145852

loop_
_geom_bond_atom_site_label_1
_geom_bond_atom_site_label_2
_ccdc_geom_bond_type
O17   V3    S    
C16   C23   S    
C15   C27   S    
O35   C75   S    
C25   C29   S    
C34   H2    S    
O21   C61   S    
C11   O27   S    
O19   V1    S    
C9    C21   S    
O12   C8    A    
O3    C7    A    
O23   C63   S    
C49   O37   S    
C44   C48   A    
C11   C23   S    
C48   C52   A    
C63   H16   S    
O33   C73   S    
C40   O36   S    
O4    V2    S    
C74   H49   S    
C38   C42   A    
O37   C77   S    
O1    C5    A    
C68   H31   S    
O5    C1    A    
C72   H42   S    
C4    C53   S    
C50   O38   S    
C51   O39   S    
O32   C72   S    
C70   H37   S    
C46   C50   A    
C73   H45   S    
C64   H19   S    
C1    C56   S    
C11   C15   S    
O4    C8    A    
N7    C59   A    
O22   C62   S    
N6    C58   A    
C3    C54   S    
C12   O28   S    
O1    V3    S    
O13   V1    S    
O24   C64   S    
C61   H11   S    
O2    V4    S    
O3    V1    S    
C77   H57   S    
C14   C21   S    
C35   C39   A    
C5    C19   S    
C37   O33   S    
C1    O15   A    
C6    C20   S    
C70   H36   S    
C2    O16   A    
C67   H27   S    
C76   H55   S    
O2    C6    A    
O31   C71   S    
C41   C45   A    
C10   C22   S    
N3    C60   A    
C74   H50   S    
N2    C57   A    
O5    V1    S    
C42   C57   S    
C40   C44   A    
C41   C58   S    
O11   C7    A    
C68   H30   S    
O15   V3    S    
C72   H43   S    
C9    O25   S    
C62   H13   S    
C69   H35   S    
C61   H9    S    
O10   V2    S    
C34   C54   A    
C45   C49   A    
C63   H15   S    
C34   C38   A    
N2    N6    A    
C22   O29   S    
C73   H46   S    
N4    N8    A    
C36   C56   A    
C68   H32   S    
C2    C55   S    
C43   C47   A    
O7    V3    S    
C38   O34   S    
C21   O30   S    
C78   H62   S    
C79   H65   S    
C52   C56   A    
C12   C16   S    
C70   H38   S    
C64   H20   S    
C74   H48   S    
O18   V4    S    
O28   C68   S    
C23   C27   S    
C27   C31   S    
C39   O35   S    
C9    C26   S    
C16   C28   S    
O11   V3    S    
C9    C13   S    
O39   C79   S    
C77   H59   S    
O8    V4    S    
C14   O22   S    
C80   H68   S    
O7    C3    A    
C66   H25   S    
C42   C46   A    
C73   H47   S    
C13   C25   S    
C20   C32   T    
C71   H41   S    
C21   C25   S    
O8    C4    A    
C76   H56   S    
O9    C5    A    
C26   C30   S    
C61   H10   S    
C8    C18   S    
C17   C29   T    
O25   C65   S    
C12   C27   S    
O14   V2    S    
C19   C31   T    
O36   C76   S    
O6    V2    S    
C71   H40   S    
C72   H44   S    
C46   H6    S    
O34   C74   S    
C62   H14   S    
C69   H34   S    
C62   H12   S    
C65   H22   S    
C66   H24   S    
N5    C57   A    
C75   H51   S    
O30   C70   S    
O16   V4    S    
O9    V1    S    
C3    O13   A    
C10   C25   S    
C77   H58   S    
C10   C14   S    
C48   H8    S    
C33   C37   A    
O40   C80   S    
O27   C67   S    
C51   C55   A    
O6    C2    A    
C75   H53   S    
C33   H1    S    
C14   C26   S    
O12   V4    S    
C43   C60   S    
C22   C26   S    
C35   H3    S    
C7    C17   S    
N1    C58   A    
C36   H4    S    
C79   H63   S    
O10   C6    A    
C65   H23   S    
C80   H67   S    
C13   C22   S    
C66   H26   S    
C78   H60   S    
C50   C54   A    
O29   C69   S    
C18   C30   T    
C13   O21   S    
C15   O23   S    
C47   C51   A    
C16   O24   S    
C52   O40   S    
O26   C66   S    
C37   C41   A    
N8    C60   A    
C10   O26   S    
O20   V2    S    
C67   H29   S    
C75   H52   S    
C33   C53   A    
C12   C24   S    
C39   C43   A    
N1    N5    A    
C80   H66   S    
C35   C55   A    
C78   H61   S    
N3    N7    A    
C24   C28   S    
C71   H39   S    
C36   C40   A    
C67   H28   S    
C76   H54   S    
C23   O32   S    
C24   O31   S    
C4    O14   A    
C11   C28   S    
C65   H21   S    
C45   H5    S    
C69   H33   S    
O38   C78   S    
C64   H18   S    
C47   H7    S    
C63   H17   S    
C49   C53   A    
C28   C32   S    
N4    C59   A    
C79   H64   S    
C15   C24   S    
C44   C59   S    
