data_mof_unit_14680.cif
_audit_creation_date              2012-10-26T20:40:17-0400
_audit_creation_method            fapswitch 2.2
_symmetry_space_group_name_H-M    P1
_symmetry_Int_Tables_number       1
_space_group_crystal_system       triclinic
_cell_length_a                    15.062704
_cell_length_b                    10.88572
_cell_length_c                    9.66871
_cell_angle_alpha                 89.957168
_cell_angle_beta                  89.814448
_cell_angle_gamma                 94.545905
_cell_volume                      1580.36629987

loop_
_atom_site_label
_atom_site_type_symbol
_atom_type_description
_atom_site_fract_x
_atom_site_fract_y
_atom_site_fract_z
_atom_type_partial_charge
C1    C     C_R   0.503773 0.262537 0.500107 0.609475
C2    C     C_R   0.180693 0.400059 0.556900 0.217485
C3    C     C_R   0.233060 0.501688 0.500922 -0.010783
C4    C     C_R   0.329477 0.500115 0.500186 0.483987
C5    C     C_R   0.193382 0.605158 0.447630 0.241025
C6    C     C_R   0.549307 0.109757 0.748716 0.432290
C7    C     C_R   0.532169 0.048623 0.875549 0.253546
C8    C     C_R   0.476396 0.940150 0.877465 -0.035730
C9    C     C_R   0.447394 0.883690 0.754689 0.238598
C10   C     C_R   0.477617 0.935753 0.626258 -0.087369
C11   C     C_R   0.511723 0.059770 0.624716 -0.069833
C12   C     C_R   0.912442 0.606203 0.446938 0.001638
C13   C     C_R   0.505418 0.127210 0.499564 0.026661
C14   C     C_R   0.485718 0.062614 0.375058 0.235148
C15   C     C_R   0.482592 0.933750 0.374381 0.222004
C16   C     C_R   0.492165 0.736198 0.500158 0.557022
C17   C     C_R   0.479302 0.869080 0.500542 -0.000728
C18   C     C_R   0.611987 0.673379 0.146789 -0.100042
C19   C     C_R   0.660869 0.770760 0.081454 0.170715
C20   C     C_R   0.663251 0.773753 0.937983 0.316423
C21   C     C_R   0.615873 0.681250 0.862544 0.420344
C22   C     C_R   0.556056 0.587684 0.926080 0.066813
C23   C     C_R   0.941330 0.308926 0.626192 -0.037466
C24   C     C_R   0.555467 0.585915 0.075031 0.008128
C25   C     C_R   0.446152 0.418542 0.076822 0.448720
C26   C     C_R   0.446739 0.416773 0.928547 0.353593
C27   C     C_R   0.670590 0.500283 0.499915 0.600772
C28   C     C_R   0.819248 0.608532 0.452538 0.239642
C29   C     C_R   0.767239 0.503620 0.500773 0.044773
C30   C     C_R   0.806773 0.399667 0.548631 0.210245
C31   C     C_R   0.900242 0.402685 0.557848 -0.025665
C32   C     C_R   0.953257 0.504521 0.503337 -0.099596
C33   C     C_R   0.033364 0.311462 0.636520 0.299781
C34   C     C_R   0.087832 0.405500 0.568471 0.066157
C35   C     C_R   0.047225 0.504957 0.506031 -0.125652
C36   C     C_R   0.100065 0.604869 0.446197 -0.007608
C37   C     C_R   0.058166 0.704029 0.388067 0.463880
C38   C     C_R   0.966089 0.705072 0.389421 0.466393
Cu1   Cu    Cu3+1 0.499990 0.499990 0.640660 1.114536
Cu2   Cu    Cu3+1 0.500010 0.500010 0.359340 1.085074
F1    F     F_    0.609182 0.209668 0.745553 -0.578356
F2    F     F_    0.636452 0.688100 0.728244 -0.584128
F3    F     F_    0.105623 0.801771 0.328941 -0.491457
F4    F     F_    0.930170 0.803462 0.331533 -0.487311
H1    H     H_    0.455704 0.898020 0.974668 0.175408
H2    H     H_    0.742124 0.925855 0.929922 0.393512
H3    H     H_    0.781412 0.222426 0.558699 0.344041
H4    H     H_    0.385737 0.345053 0.768542 0.382884
H5    H     H_    0.114042 0.264509 0.776941 0.373668
H6    H     H_    0.276845 0.287792 0.550522 0.334461
H7    H     H_    0.305672 0.709066 0.428262 0.321715
H8    H     H_    0.431341 0.072716 0.193210 0.367506
H9    H     H_    0.620775 0.669793 0.254856 0.199931
H10   H     H_    0.902460 0.235587 0.679741 0.181208
H11   H     H_    0.721140 0.716265 0.453679 0.327418
H12   H     H_    0.601749 0.173192 0.982803 0.393087
H13   H     H_    0.353439 0.774603 0.674589 0.333260
H14   H     H_    0.520606 0.919431 0.185350 0.356280
H15   H     H_    0.350794 0.285632 0.091780 0.364049
H16   H     H_    0.690700 0.855455 0.254674 0.360814
N1    N     N_R   0.500860 0.501210 0.147910 -0.228823
N2    N     N_R   0.500890 0.501290 0.852040 -0.240533
O1    O     O_R   0.499990 0.319640 0.618810 -0.483070
O2    O     O_3   0.566623 0.093681 0.999151 -0.666344
O3    O     O_3   0.384484 0.784707 0.764586 -0.644631
O4    O     O_3   0.481271 0.870685 0.250780 -0.682420
O5    O     O_3   0.389650 0.338528 0.153318 -0.606171
O6    O     O_3   0.708501 0.861919 0.156022 -0.621613
O7    O     O_3   0.713542 0.864392 0.865336 -0.595382
O8    O     O_3   0.751899 0.297030 0.585358 -0.616147
O9    O     O_3   0.392061 0.325814 0.866309 -0.708702
O10   O     O_3   0.067008 0.222606 0.718333 -0.596992
O11   O     O_3   0.217696 0.292206 0.594113 -0.646566
O12   O     O_R   0.500000 0.319660 0.381240 -0.403098
O13   O     O_3   0.243592 0.707100 0.395417 -0.575491
O14   O     O_3   0.470502 0.125841 0.254568 -0.609780
O15   O     O_R   0.370250 0.499960 0.618800 -0.536953
O16   O     O_R   0.370260 0.499980 0.381230 -0.451992
O17   O     O_R   0.500000 0.680340 0.618760 -0.425765
O18   O     O_R   0.500010 0.680360 0.381190 -0.492028
O19   O     O_R   0.629740 0.500020 0.618770 -0.378225
O20   O     O_R   0.629750 0.500040 0.381200 -0.551491
O21   O     O_3   0.781196 0.714452 0.412382 -0.600172

loop_
_geom_bond_atom_site_label_1
_geom_bond_atom_site_label_2
_ccdc_geom_bond_type
C37   F3    S    
C24   N1    A    
C27   C29   S    
C35   C36   A    
C25   O5    S    
C7    C8    A    
C4    O16   A    
C37   C38   A    
C12   C28   A    
C18   C24   A    
C1    O12   A    
Cu1   O15   S    
C28   C29   A    
H7    O13   S    
C18   C19   A    
C30   C31   A    
C10   C17   A    
C5    C36   A    
C34   C35   A    
C8    H1    S    
H2    O7    S    
C18   H9    S    
H15   O5    S    
H14   O4    S    
C19   C20   A    
C8    C9    A    
C23   C33   A    
C6    F1    S    
Cu2   O18   S    
C9    C10   A    
C33   O10   S    
C2    C34   A    
C13   C14   A    
C12   C32   A    
C28   O21   S    
C26   O9    S    
C1    O1    A    
C30   O8    S    
C32   C35   A    
Cu2   O20   S    
C27   O19   A    
Cu1   O19   S    
H6    O11   S    
C6    C11   A    
C16   C17   S    
H8    O14   S    
C25   C26   A    
C15   O4    S    
H5    O10   S    
Cu2   N1    S    
C16   O18   A    
C23   C31   A    
C5    O13   S    
H3    O8    S    
C38   F4    S    
C29   C30   A    
C22   N2    A    
C31   C32   A    
H12   O2    S    
C33   C34   A    
C19   O6    S    
C25   N1    A    
C2    O11   S    
C22   C24   A    
C20   O7    S    
C1    C13   S    
H4    O9    S    
H11   O21   S    
C3    C4    S    
Cu1   Cu2   S    
C23   H10   S    
C15   C17   A    
Cu1   N2    S    
C36   C37   A    
C14   O14   S    
C27   O20   A    
H13   O3    S    
C3    C5    A    
C6    C7    A    
Cu1   O1    S    
C16   O17   A    
C2    C3    A    
C26   N2    A    
C4    O15   A    
C11   C13   A    
Cu2   O12   S    
Cu2   O16   S    
C12   C38   A    
C9    O3    S    
C7    O2    S    
C10   C11   A    
C21   F2    S    
C20   C21   A    
H16   O6    S    
C14   C15   A    
C21   C22   A    
Cu1   O17   S    
