data_mof_unit_5277.cif
_audit_creation_date              2012-12-10T16:44:43-0500
_audit_creation_method            fapswitch 2.2
_symmetry_space_group_name_H-M    P1
_symmetry_Int_Tables_number       1
_space_group_crystal_system       triclinic
_cell_length_a                    14.975138
_cell_length_b                    8.665166
_cell_length_c                    7.541207
_cell_angle_alpha                 103.251068
_cell_angle_beta                  94.401805
_cell_angle_gamma                 93.324511
_cell_volume                      946.814158454

loop_
_atom_site_label
_atom_site_type_symbol
_atom_type_description
_atom_site_fract_x
_atom_site_fract_y
_atom_site_fract_z
_atom_type_partial_charge
C1    C     C_R   0.497013 0.199938 0.453133 0.852760
C2    C     C_R   0.502987 0.800062 0.546867 0.852760
C3    C     C_R   0.026779 0.208117 0.373223 0.194560
C4    C     C_R   0.973221 0.791884 0.626776 0.194557
C5    C     C_2   0.494451 0.031380 0.427596 -0.322437
C6    C     C_2   0.505549 0.968620 0.572404 -0.322438
C7    C     C_R   0.329504 0.499126 0.501723 0.767762
C8    C     C_R   0.670496 0.500874 0.498277 0.767764
C9    C     C_R   0.819394 0.652550 0.540672 -0.043672
C10   C     C_R   0.180606 0.347450 0.459329 -0.043673
C11   C     C_R   0.766991 0.506476 0.495783 -0.108150
C12   C     C_R   0.233009 0.493524 0.504217 -0.108151
C13   C     C_R   0.805458 0.363088 0.444623 -0.176066
C14   C     C_R   0.194543 0.636912 0.555376 -0.176066
C15   C     C_R   0.897700 0.360856 0.440567 0.080645
C16   C     C_R   0.102300 0.639144 0.559433 0.080644
C17   C     C_R   0.953053 0.503527 0.498934 0.019288
C18   C     C_R   0.046947 0.496473 0.501065 0.019288
C19   C     C_R   0.914524 0.652372 0.555083 0.047592
C20   C     C_R   0.085476 0.347629 0.444916 0.047594
C21   C     C_R   0.934481 0.216722 0.376374 -0.161840
C22   C     C_R   0.065519 0.783278 0.623625 -0.161838
Cu1   Cu    Cu3+1 0.510010 0.517380 0.684380 1.044486
Cu2   Cu    Cu3+1 0.489990 0.482620 0.315620 1.044487
H1    H     H_    0.762785 0.252807 0.405243 0.163455
H2    H     H_    0.237215 0.747194 0.594755 0.163455
H3    H     H_    0.890521 0.109497 0.323402 0.216850
H4    H     H_    0.109479 0.890503 0.676597 0.216851
H5    H     H_    0.483028 0.958715 0.288620 0.194712
H6    H     H_    0.516972 0.041285 0.711380 0.194712
N1    N     N_2   0.474890 0.456420 0.038520 0.000849
N2    N     N_2   0.525110 0.543580 0.961480 0.000849
O1    O     O_R   0.506510 0.286130 0.619770 -0.568113
O2    O     O_R   0.493490 0.713870 0.380230 -0.568112
O3    O     O_R   0.489600 0.256770 0.308360 -0.580490
O4    O     O_R   0.510400 0.743230 0.691640 -0.580490
O5    O     O_R   0.378710 0.514640 0.655720 -0.560038
O6    O     O_R   0.621290 0.485360 0.344280 -0.560037
O7    O     O_R   0.361800 0.485290 0.344300 -0.569754
O8    O     O_R   0.638200 0.514710 0.655700 -0.569754
C23   C     C_2   0.771867 0.798787 0.548493 0.426171
H7    H     H_    0.716843 0.823111 0.633938 0.067834
O9    O     O_2   0.790054 0.887513 0.449665 -0.528723
C24   C     C_2   0.228133 0.201213 0.451511 0.426175
H8    H     H_    0.283159 0.176890 0.366071 0.067831
O10   O     O_2   0.209943 0.112485 0.550335 -0.528725
I1    I     I_    0.062016 0.980536 0.228448 -0.288885
I2    I     I_    0.937984 0.019465 0.771548 -0.288886
I3    I     I_    0.373931 0.286898 0.901748 -0.168797
I4    I     I_    0.626069 0.713101 0.098252 -0.168794

loop_
_geom_bond_atom_site_label_1
_geom_bond_atom_site_label_2
_ccdc_geom_bond_type
Cu2   O6    S    
Cu1   Cu2   S    
C11   C13   A    
C23   H7    S    
C23   O9    D    
C9    C23   S    
N1    N2    D    
C13   H1    S    
Cu1   N2    S    
C2    O2    A    
C13   C15   A    
C17   C18   A    
C7    O5    A    
Cu2   N1    S    
C1    O1    A    
C3    C20   A    
C22   H4    S    
C14   H2    S    
C9    C11   A    
N2    I4    S    
C2    C6    S    
C10   C12   A    
N1    I3    S    
C8    C11   S    
C1    C5    S    
C3    I1    S    
C17   C19   A    
C12   C14   A    
C18   C20   A    
C8    O6    A    
C21   H3    S    
C5    C6    D    
C14   C16   A    
C7    C12   S    
C3    C21   A    
Cu2   O3    S    
C10   C24   S    
Cu1   O8    S    
C5    H5    S    
C15   C21   A    
Cu2   O7    S    
C4    C22   A    
C24   H8    S    
C1    O3    A    
C16   C18   A    
Cu1   O4    S    
C4    I2    S    
C2    O4    A    
C15   C17   A    
C7    O7    A    
C16   C22   A    
C8    O8    A    
C6    H6    S    
Cu1   O5    S    
C4    C19   A    
C9    C19   A    
C24   O10   D    
Cu2   O2    S    
C10   C20   A    
Cu1   O1    S    
