data_mof_unit_61357.cif
_audit_creation_date              2012-12-10T19:09:45-0500
_audit_creation_method            fapswitch 2.2
_symmetry_space_group_name_H-M    P1
_symmetry_Int_Tables_number       1
_space_group_crystal_system       triclinic
_cell_length_a                    34.526683
_cell_length_b                    34.591976
_cell_length_c                    24.959069
_cell_angle_alpha                 89.991523
_cell_angle_beta                  46.179333
_cell_angle_gamma                 89.965224
_cell_volume                      21508.0564125

loop_
_atom_site_label
_atom_site_type_symbol
_atom_type_description
_atom_site_fract_x
_atom_site_fract_y
_atom_site_fract_z
_atom_type_partial_charge
C1    C     C_R   0.400252 0.750017 0.699517 0.845066
C2    C     C_3   0.299168 0.247494 0.975141 -0.232922
C3    C     C_R   0.270975 0.250260 0.501067 -0.027378
C4    C     C_R   0.770066 0.249143 0.502470 -0.021989
C5    C     C_R   0.230277 0.751307 0.496961 -0.022056
C6    C     C_R   0.229112 0.249985 0.499743 -0.024731
C7    C     C_R   0.769571 0.751194 0.503500 -0.023492
C8    C     C_R   0.486919 0.541798 0.559282 -0.148953
C9    C     C_R   0.481906 0.458157 0.472344 -0.144781
C10   C     C_R   0.513546 0.541816 0.440336 -0.150511
C11   C     C_R   0.518614 0.458093 0.527164 -0.153828
C12   C     C_R   0.017061 0.041826 0.529149 -0.146147
C13   C     C_3   0.297934 0.759688 0.975164 -0.230155
C14   C     C_R   0.014531 0.958161 0.439722 -0.144067
C15   C     C_R   0.982899 0.041855 0.470904 -0.143300
C16   C     C_R   0.985441 0.958162 0.560297 -0.143894
C17   C     C_R   0.487213 0.582038 0.559088 -0.152316
C18   C     C_R   0.482233 0.417919 0.471881 -0.135300
C19   C     C_R   0.513071 0.582054 0.440685 -0.151390
C20   C     C_R   0.518170 0.417852 0.527724 -0.148672
C21   C     C_R   0.016666 0.082063 0.529660 -0.152425
C22   C     C_R   0.014135 0.917924 0.439987 -0.146741
C23   C     C_R   0.983289 0.082092 0.470400 -0.148031
C24   C     C_3   0.702159 0.239920 0.024839 -0.231447
C25   C     C_R   0.985844 0.917925 0.560019 -0.148431
C26   C     C_R   0.500088 0.602426 0.499932 -0.014715
C27   C     C_R   0.500144 0.397527 0.499860 -0.017866
C28   C     C_R   0.999982 0.102448 0.500025 -0.011139
C29   C     C_R   0.999992 0.897555 0.499999 -0.012772
C30   C     C_R   0.500266 0.521293 0.499777 0.100586
C31   C     C_R   0.500276 0.478639 0.499746 0.100088
C32   C     C_R   0.999982 0.021327 0.500022 0.100669
C33   C     C_R   0.999985 0.978675 0.500012 0.099570
C34   C     C_R   0.500009 0.644782 0.499996 0.829943
C35   C     C_3   0.200738 0.252559 0.024890 -0.246742
C36   C     C_R   0.500035 0.355202 0.499965 0.824655
C37   C     C_R   0.999995 0.144789 0.500008 0.801146
C38   C     C_R   0.999999 0.855212 0.499997 0.804109
C39   C     C_R   0.499973 0.855149 0.500043 0.920830
C40   C     C_R   0.500046 0.145010 0.499872 0.951360
C41   C     C_R   0.999985 0.354994 0.500011 0.934294
C42   C     C_R   0.000015 0.644854 0.499992 0.911396
C43   C     C_R   0.466926 0.958539 0.567574 -0.163599
C44   C     C_R   0.499913 0.041996 0.451503 -0.162333
C45   C     C_R   0.531912 0.958653 0.433376 -0.161430
C46   C     C_3   0.799327 0.748705 0.975117 -0.245033
C47   C     C_R   0.498713 0.041983 0.549503 -0.153014
C48   C     C_R   0.002036 0.458026 0.546455 -0.161983
C49   C     C_R   0.031223 0.541388 0.433004 -0.172157
C50   C     C_R   0.997943 0.458045 0.453574 -0.165814
C51   C     C_R   0.968833 0.541414 0.566974 -0.173443
C52   C     C_R   0.467802 0.918146 0.568439 -0.045019
C53   C     C_R   0.501326 0.082439 0.449133 -0.072656
C54   C     C_R   0.531644 0.918257 0.432128 -0.045132
C55   C     C_R   0.498926 0.082436 0.550338 -0.072761
C56   C     C_R   0.001979 0.417571 0.547503 -0.066052
C57   C     C_3   0.797908 0.260088 0.975134 -0.247696
C58   C     C_R   0.030758 0.581801 0.431985 -0.052461
C59   C     C_R   0.997974 0.417589 0.452540 -0.063654
C60   C     C_R   0.969311 0.581826 0.567991 -0.052183
C61   C     C_R   0.499856 0.897608 0.500187 -0.154556
C62   C     C_R   0.500381 0.102839 0.499512 -0.159964
C63   C     C_R   0.999961 0.397171 0.500032 -0.158367
C64   C     C_R   0.000039 0.602400 0.499986 -0.166554
C65   C     C_R   0.499237 0.978956 0.500575 0.071017
C66   C     C_R   0.499086 0.021668 0.500711 0.067932
C67   C     C_R   0.000005 0.478355 0.500005 0.069085
C68   C     C_3   0.201978 0.740262 0.024867 -0.245696
C69   C     C_R   0.000022 0.521053 0.499992 0.067417
C70   C     C_3   0.246308 0.282493 0.975458 0.469852
C71   C     C_3   0.754794 0.718076 0.024551 0.469194
C72   C     C_3   0.746524 0.285060 0.024584 0.469660
C73   C     C_3   0.253100 0.715014 0.975412 0.468669
C74   C     C_3   0.745299 0.781872 0.975418 0.473151
C75   C     C_3   0.253600 0.217560 0.024570 0.473539
C76   C     C_3   0.246813 0.784935 0.024616 0.472631
C77   C     C_3   0.753543 0.214949 0.975390 0.472935
C78   C     C_2   0.436247 0.898838 0.641662 0.955107
C79   C     C_1   0.639411 0.750084 0.221101 -0.083759
C80   C     C_2   0.504010 0.101876 0.392999 0.932165
C81   C     C_2   0.563543 0.899068 0.358715 0.954172
C82   C     C_2   0.497782 0.101876 0.605018 0.952404
C83   C     C_2   0.003903 0.398089 0.599136 0.924642
C84   C     C_2   0.061344 0.601082 0.358959 0.940550
C85   C     C_2   0.996058 0.398131 0.400882 0.917695
C86   C     C_2   0.938719 0.601122 0.641023 0.941451
C87   C     C_2   0.338719 0.677146 0.522404 0.969707
C88   C     C_2   0.658572 0.323295 0.482581 0.965832
C89   C     C_2   0.660476 0.676999 0.479397 0.970252
C90   C     C_1   0.360581 0.249930 0.778899 -0.085651
C91   C     C_2   0.378183 0.180940 0.445713 0.970172
C92   C     C_2   0.920035 0.264064 0.360465 0.967647
C93   C     C_2   0.080090 0.737765 0.639809 0.970470
C94   C     C_2   0.078146 0.256417 0.642193 0.985197
C95   C     C_2   0.918935 0.732774 0.361822 0.967601
C96   C     C_1   0.360560 0.750085 0.778907 -0.084179
C97   C     C_R   0.599747 0.249983 0.300484 0.847584
C98   C     C_1   0.639434 0.249913 0.221094 -0.084322
C99   C     C_1   0.139376 0.250099 0.221116 -0.076448
C100  C     C_1   0.860633 0.749888 0.778883 -0.075646
C101  C     C_1   0.860592 0.250094 0.778893 -0.076563
C102  C     C_1   0.139399 0.749888 0.221108 -0.075332
C103  C     C_3   0.757186 0.781192 0.024731 -0.246853
C104  C     C_3   0.241749 0.219500 0.975262 -0.246066
C105  C     C_3   0.236091 0.775847 0.975285 -0.246590
C106  C     C_3   0.764167 0.224409 0.024720 -0.245912
C107  C     C_3   0.258158 0.280552 0.024767 -0.234047
C108  C     C_R   0.599734 0.750014 0.300495 0.845227
C109  C     C_3   0.742906 0.718758 0.975238 -0.236264
C110  C     C_3   0.735900 0.275599 0.975255 -0.231630
C111  C     C_3   0.263822 0.724103 0.024743 -0.233094
C112  C     C_3   0.713348 0.750148 0.073218 0.019703
C113  C     C_3   0.286644 0.249858 0.926783 0.019195
C114  C     C_3   0.286621 0.750144 0.926782 0.019147
C115  C     C_3   0.713371 0.249838 0.073219 0.018950
C116  C     C_3   0.213265 0.250195 0.073243 0.019376
C117  C     C_3   0.786743 0.749801 0.926754 0.019455
C118  C     C_3   0.786694 0.250171 0.926758 0.018974
C119  C     C_R   0.400261 0.249991 0.699505 0.840440
C120  C     C_3   0.213294 0.749805 0.073244 0.019351
C121  C     C_1   0.672783 0.750135 0.154337 0.061248
C122  C     C_1   0.327207 0.249878 0.845664 0.061327
C123  C     C_1   0.327182 0.750133 0.845669 0.061227
C124  C     C_1   0.672810 0.249859 0.154331 0.062964
C125  C     C_1   0.172724 0.250165 0.154356 0.064517
C126  C     C_1   0.827287 0.749823 0.845642 0.063472
C127  C     C_1   0.827237 0.250150 0.845652 0.065121
C128  C     C_1   0.172753 0.749825 0.154350 0.064629
C129  C     C_R   0.296314 0.786320 0.491148 0.418366
C130  C     C_R   0.900258 0.250018 0.699512 0.859360
C131  C     C_R   0.705409 0.213846 0.505824 0.413621
C132  C     C_R   0.704005 0.786339 0.508246 0.418886
C133  C     C_R   0.280405 0.283392 0.523171 0.396810
C134  C     C_R   0.757376 0.244733 0.569041 0.422868
C135  C     C_R   0.242955 0.754831 0.430274 0.421812
C136  C     C_R   0.242615 0.249306 0.432198 0.390502
C137  C     C_R   0.757380 0.756822 0.569502 0.423924
C138  C     C_R   0.336474 0.785658 0.491999 0.308362
C139  C     C_R   0.665109 0.214361 0.505244 0.310754
C140  C     C_R   0.663884 0.785697 0.507310 0.308385
C141  C     C_R   0.099737 0.749975 0.300488 0.866487
C142  C     C_R   0.321330 0.283001 0.522473 0.307600
C143  C     C_R   0.798528 0.245110 0.567890 0.302226
C144  C     C_R   0.201729 0.754348 0.431566 0.305116
C145  C     C_R   0.201856 0.249186 0.432526 0.313806
C146  C     C_R   0.798766 0.756405 0.567884 0.302753
C147  C     C_R   0.352005 0.750180 0.500668 -0.245340
C148  C     C_R   0.648148 0.249913 0.499116 -0.249633
C149  C     C_R   0.647939 0.750169 0.499492 -0.245639
C150  C     C_R   0.353113 0.249611 0.498970 -0.239938
C151  C     C_R   0.852365 0.250539 0.500078 -0.243866
C152  C     C_R   0.099728 0.250016 0.300500 0.855318
C153  C     C_R   0.147805 0.749624 0.499667 -0.243295
C154  C     C_R   0.147402 0.250690 0.500655 -0.247639
C155  C     C_R   0.852281 0.749604 0.500302 -0.242402
C156  C     C_R   0.326951 0.715246 0.508523 -0.091377
C157  C     C_R   0.671899 0.285040 0.493634 -0.086782
C158  C     C_R   0.672537 0.715167 0.492615 -0.089479
C159  C     C_R   0.343983 0.216324 0.475788 -0.108900
C160  C     C_R   0.864818 0.255792 0.433154 -0.090459
C161  C     C_R   0.135379 0.745279 0.566726 -0.092642
C162  C     C_R   0.134089 0.252055 0.568667 -0.095003
C163  C     C_R   0.900277 0.749978 0.699499 0.868000
C164  C     C_R   0.864214 0.742881 0.434059 -0.094993
C165  C     C_R   0.287847 0.716523 0.505843 -0.221603
C166  C     C_R   0.711145 0.283881 0.496038 -0.221930
C167  C     C_R   0.711477 0.716422 0.495600 -0.224960
C168  C     C_R   0.302184 0.217091 0.478411 -0.174390
C169  C     C_R   0.823207 0.254544 0.435457 -0.223084
C170  C     C_R   0.177061 0.746678 0.564252 -0.222936
C171  C     C_R   0.175336 0.250846 0.567063 -0.181880
C172  C     C_R   0.822390 0.744295 0.436773 -0.224766
C173  C     C_R   0.605213 0.750028 0.499934 0.943153
C174  C     C_3   0.700767 0.751245 0.024850 -0.230771
C175  C     C_R   0.394995 0.249936 0.499866 0.962654
C176  C     C_R   0.394771 0.750027 0.500114 0.944935
C177  C     C_R   0.605245 0.249967 0.499887 0.946880
C178  C     C_R   0.105153 0.250095 0.500080 0.942876
C179  C     C_R   0.894878 0.749914 0.499970 0.950418
C180  C     C_R   0.894851 0.250093 0.499996 0.955341
C181  C     C_R   0.105192 0.749939 0.499946 0.944246
C182  C     C_R   0.272475 0.751581 0.497471 -0.021939
C183  C     C_R   0.727942 0.248758 0.501829 -0.021029
C184  C     C_R   0.727273 0.751520 0.503127 -0.021836
Cl1   Cl    Cl    0.241717 0.325982 0.941978 -0.530385
Cl2   Cl    Cl    0.728007 0.169421 0.511065 -0.433111
Cl3   Cl    Cl    0.725733 0.830845 0.514708 -0.425732
Cl4   Cl    Cl    0.241920 0.325732 0.549936 -0.462971
Cl5   Cl    Cl    0.689810 0.238969 0.653936 -0.426836
Cl6   Cl    Cl    0.310611 0.759517 0.345035 -0.424408
Cl7   Cl    Cl    0.310726 0.249434 0.346907 -0.453734
Cl8   Cl    Cl    0.690126 0.763835 0.654413 -0.420879
Cl9   Cl    Cl    0.368613 0.829437 0.479087 -0.460533
Cl10  Cl    Cl    0.634578 0.170236 0.515482 -0.442277
Cl11  Cl    Cl    0.632334 0.829603 0.519042 -0.455435
Cl12  Cl    Cl    0.760861 0.675346 0.058046 -0.541338
Cl13  Cl    Cl    0.332002 0.324382 0.552591 -0.506820
Cl14  Cl    Cl    0.782290 0.237274 0.651639 -0.476216
Cl15  Cl    Cl    0.218040 0.761186 0.347558 -0.473799
Cl16  Cl    Cl    0.219711 0.245577 0.346923 -0.471633
Cl17  Cl    Cl    0.783293 0.765743 0.650719 -0.470801
Cl18  Cl    Cl    0.741540 0.332022 0.058098 -0.535673
Cl19  Cl    Cl    0.257591 0.668178 0.941901 -0.539923
Cl20  Cl    Cl    0.739240 0.824598 0.941903 -0.508778
Cl21  Cl    Cl    0.258183 0.174075 0.058066 -0.514691
Cl22  Cl    Cl    0.242315 0.831768 0.058143 -0.519767
Cl23  Cl    Cl    0.758535 0.167990 0.941859 -0.517708
Cl24  Cl    Cl    0.275466 0.830722 0.482806 -0.433431
H1    H     H_    0.441580 0.974294 0.619581 0.184632
H2    H     H_    0.466617 0.473199 0.452135 0.152155
H3    H     H_    0.524954 0.526801 0.393090 0.150027
H4    H     H_    0.533935 0.473088 0.547346 0.145869
H5    H     H_    0.031379 0.026798 0.550707 0.148512
H6    H     H_    0.026879 0.973178 0.391888 0.150340
H7    H     H_    0.968583 0.026850 0.449343 0.151513
H8    H     H_    0.973090 0.973183 0.608134 0.150025
H9    H     H_    0.476658 0.597185 0.605692 0.174735
H10   H     H_    0.467722 0.402765 0.450680 0.186601
H11   H     H_    0.523566 0.597212 0.394131 0.173826
H12   H     H_    0.499463 0.025980 0.414653 0.193840
H13   H     H_    0.532659 0.402644 0.548935 0.173522
H14   H     H_    0.030138 0.097216 0.552265 0.171074
H15   H     H_    0.025628 0.902758 0.392782 0.174940
H16   H     H_    0.969812 0.097266 0.447800 0.174749
H17   H     H_    0.974353 0.902763 0.607224 0.173798
H18   H     H_    0.660060 0.752649 0.045846 0.203901
H19   H     H_    0.339814 0.245056 0.954142 0.203224
H20   H     H_    0.337485 0.768002 0.954194 0.204565
H21   H     H_    0.662697 0.231303 0.045809 0.203490
H22   H     H_    0.160088 0.254997 0.045901 0.194732
H23   H     H_    0.557128 0.974491 0.381491 0.183200
H24   H     H_    0.840038 0.747300 0.954109 0.194907
H25   H     H_    0.837375 0.268704 0.954153 0.195338
H26   H     H_    0.162422 0.731948 0.045848 0.195172
H27   H     H_    0.235603 0.194262 0.954399 0.196368
H28   H     H_    0.762451 0.806990 0.045598 0.196649
H29   H     H_    0.775210 0.203158 0.045603 0.197209
H30   H     H_    0.225274 0.797323 0.954402 0.196630
H31   H     H_    0.737644 0.692961 0.954367 0.199632
H32   H     H_    0.264302 0.305790 0.045634 0.201606
H33   H     H_    0.274637 0.702627 0.045630 0.202218
H34   H     H_    0.499314 0.025983 0.586208 0.193835
H35   H     H_    0.724858 0.296849 0.954368 0.202487
H36   H     H_    0.268140 0.690140 0.511946 0.211853
H37   H     H_    0.729814 0.310442 0.491755 0.209522
H38   H     H_    0.730817 0.689977 0.490244 0.210720
H39   H     H_    0.294433 0.192088 0.460817 0.223023
H40   H     H_    0.831837 0.258560 0.384966 0.211486
H41   H     H_    0.168418 0.743311 0.614863 0.211374
H42   H     H_    0.165816 0.251813 0.618554 0.215735
H43   H     H_    0.830530 0.739219 0.386880 0.214438
H44   H     H_    0.370953 0.900236 0.752048 0.365990
H45   H     H_    0.004822 0.474005 0.581012 0.188603
H46   H     H_    0.499993 0.096314 0.316352 0.369738
H47   H     H_    0.628968 0.900749 0.248400 0.364761
H48   H     H_    0.486212 0.096441 0.695868 0.378466
H49   H     H_    0.993993 0.402961 0.688692 0.372325
H50   H     H_    0.125065 0.599323 0.248030 0.365481
H51   H     H_    0.005815 0.403059 0.311454 0.368749
H52   H     H_    0.875015 0.599391 0.751961 0.364367
H53   H     H_    0.340593 0.619125 0.512291 0.358164
H54   H     H_    0.652395 0.380935 0.499424 0.350525
H55   H     H_    0.657557 0.619053 0.491282 0.355458
H56   H     H_    0.055421 0.525542 0.381188 0.187006
H57   H     H_    0.387037 0.124613 0.417909 0.366643
H58   H     H_    0.972512 0.261303 0.248687 0.356369
H59   H     H_    0.027629 0.742212 0.751388 0.357604
H60   H     H_    0.024809 0.245407 0.752204 0.356487
H61   H     H_    0.969793 0.730330 0.250219 0.358608
H62   H     H_    0.995179 0.474046 0.419009 0.187293
H63   H     H_    0.944625 0.525587 0.618793 0.186687
H64   H     H_    0.475567 0.526769 0.606478 0.150441
O1    O     O_3   0.500000 0.749990 0.500000 -0.526543
O2    O     O_R   0.104930 0.727270 0.335600 -0.607139
O3    O     O_R   0.104930 0.272730 0.335600 -0.615015
O4    O     O_R   0.895070 0.727270 0.664400 -0.607223
O5    O     O_R   0.565180 0.727260 0.543110 -0.623954
O6    O     O_R   0.434820 0.272740 0.456890 -0.599258
O7    O     O_R   0.434820 0.727260 0.456890 -0.623250
O8    O     O_R   0.565180 0.272740 0.543110 -0.625787
O9    O     O_R   0.065180 0.227260 0.543110 -0.638583
O10   O     O_R   0.934820 0.772740 0.456890 -0.623018
O11   O     O_R   0.934820 0.227260 0.456890 -0.629556
O12   O     O_3   0.500000 0.250010 0.500000 -0.525516
O13   O     O_R   0.065180 0.772740 0.543110 -0.626119
O14   O     O_R   0.501190 0.663260 0.543120 -0.633434
O15   O     O_R   0.498810 0.336740 0.456880 -0.633414
O16   O     O_R   0.498810 0.663260 0.456880 -0.633649
O17   O     O_R   0.501190 0.336740 0.543120 -0.633072
O18   O     O_R   0.001190 0.163260 0.543120 -0.643873
O19   O     O_R   0.998810 0.836740 0.456880 -0.641813
O20   O     O_R   0.998810 0.163260 0.456880 -0.642826
O21   O     O_R   0.001190 0.836740 0.543120 -0.642882
O22   O     O_R   0.455720 0.836720 0.543090 -0.609207
O23   O     O_3   0.000000 0.249990 0.500000 -0.526597
O24   O     O_R   0.544280 0.163280 0.456910 -0.584792
O25   O     O_R   0.544280 0.836720 0.456910 -0.607681
O26   O     O_R   0.455720 0.163280 0.543090 -0.627338
O27   O     O_R   0.955720 0.336720 0.543090 -0.614107
O28   O     O_R   0.044280 0.663280 0.456910 -0.617985
O29   O     O_R   0.044280 0.336720 0.456910 -0.609839
O30   O     O_R   0.955720 0.663280 0.543090 -0.619176
O31   O     O_R   0.608280 0.772740 0.456900 -0.601011
O32   O     O_R   0.391720 0.227260 0.543100 -0.629138
O33   O     O_R   0.391720 0.772740 0.543100 -0.602235
O34   O     O_3   0.000000 0.750010 0.500000 -0.526691
O35   O     O_R   0.608280 0.227260 0.456900 -0.598573
O36   O     O_R   0.108280 0.272740 0.456900 -0.581996
O37   O     O_R   0.891720 0.727260 0.543100 -0.602907
O38   O     O_R   0.891720 0.272740 0.543100 -0.591977
O39   O     O_R   0.108280 0.727260 0.456900 -0.600235
O40   O     O_R   0.440550 0.727250 0.664400 -0.629892
O41   O     O_R   0.559450 0.272750 0.335600 -0.623558
O42   O     O_R   0.559450 0.727250 0.335600 -0.632029
O43   O     O_R   0.440550 0.272750 0.664400 -0.626769
O44   O     O_R   0.940550 0.227250 0.664400 -0.620220
O45   O     O_R   0.395070 0.772730 0.664400 -0.622022
O46   O     O_R   0.059450 0.772750 0.335600 -0.625407
O47   O     O_R   0.059450 0.227250 0.335600 -0.623607
O48   O     O_R   0.940550 0.772750 0.664400 -0.626994
O49   O     O_2   0.452553 0.869063 0.646891 -0.610377
O50   O     O_R   0.388554 0.915708 0.705495 -0.771243
O51   O     O_2   0.513369 0.136439 0.380227 -0.603532
O52   O     O_R   0.496708 0.080167 0.353253 -0.781739
O53   O     O_2   0.547620 0.869210 0.353104 -0.610598
O54   O     O_R   0.611105 0.916150 0.295130 -0.770975
O55   O     O_2   0.507709 0.136322 0.600119 -0.608369
O56   O     O_R   0.604930 0.227270 0.335600 -0.625253
O57   O     O_R   0.485647 0.080306 0.662504 -0.767233
O58   O     O_2   0.016893 0.364131 0.590869 -0.615221
O59   O     O_R   0.991262 0.419090 0.657485 -0.775107
O60   O     O_2   0.045101 0.631224 0.354658 -0.616858
O61   O     O_R   0.108042 0.583806 0.294317 -0.772014
O62   O     O_2   0.983241 0.364153 0.408987 -0.616839
O63   O     O_R   0.008520 0.419174 0.342695 -0.778823
O64   O     O_2   0.954943 0.631253 0.645333 -0.616607
O65   O     O_R   0.892039 0.583875 0.705661 -0.774126
O66   O     O_2   0.352771 0.675111 0.555813 -0.637841
O67   O     O_R   0.604930 0.772730 0.335600 -0.620437
O68   O     O_R   0.331888 0.643235 0.499217 -0.773887
O69   O     O_2   0.645974 0.325978 0.447426 -0.642696
O70   O     O_R   0.662152 0.356640 0.510626 -0.777428
O71   O     O_2   0.647012 0.674774 0.445281 -0.637181
O72   O     O_R   0.666395 0.643231 0.504006 -0.777434
O73   O     O_2   0.422782 0.181969 0.423308 -0.608381
O74   O     O_R   0.359910 0.146362 0.440613 -0.774621
O75   O     O_2   0.952657 0.280625 0.357721 -0.612526
O76   O     O_R   0.934200 0.253925 0.294513 -0.779314
O77   O     O_2   0.047320 0.720721 0.643419 -0.621248
O78   O     O_R   0.395070 0.227270 0.664400 -0.632006
O79   O     O_R   0.066020 0.749172 0.705190 -0.777456
O80   O     O_2   0.045092 0.274982 0.648308 -0.604657
O81   O     O_R   0.063739 0.240312 0.705346 -0.783785
O82   O     O_2   0.952099 0.718069 0.359893 -0.623970
O83   O     O_R   0.931959 0.738944 0.295491 -0.778991
O84   O     O_R   0.895070 0.272730 0.664400 -0.617942
Zn1   Zn    Zn3+2 0.563280 0.782480 0.438420 1.090462
Zn2   Zn    Zn3+2 0.498300 0.282490 0.438410 1.068511
Zn3   Zn    Zn3+2 0.498300 0.717510 0.438410 1.048590
Zn4   Zn    Zn3+2 0.501700 0.282490 0.561590 1.049069
Zn5   Zn    Zn3+2 0.001700 0.217510 0.561590 1.039528
Zn6   Zn    Zn3+2 0.998300 0.782490 0.438410 1.046820
Zn7   Zn    Zn3+2 0.998300 0.217510 0.438410 1.043470
Zn8   Zn    Zn3+2 0.001700 0.782490 0.561590 1.043544
Zn9   Zn    Zn3+2 0.436720 0.217520 0.561580 1.068579
Zn10  Zn    Zn3+2 0.436720 0.782480 0.561580 1.088549
Zn11  Zn    Zn3+2 0.563280 0.217520 0.438420 1.104671
Zn12  Zn    Zn3+2 0.063280 0.282480 0.438420 1.105024
Zn13  Zn    Zn3+2 0.936720 0.717520 0.561580 1.094637
Zn14  Zn    Zn3+2 0.936720 0.282480 0.561580 1.099009
Zn15  Zn    Zn3+2 0.063280 0.717520 0.438420 1.095659
Zn16  Zn    Zn3+2 0.501700 0.717510 0.561590 1.049527

loop_
_geom_bond_atom_site_label_1
_geom_bond_atom_site_label_2
_ccdc_geom_bond_type
C103  H28   S    
O31   Zn1   S    
C22   C29   A    
O10   Zn6   S    
C14   C33   A    
C15   C32   A    
O23   Zn7   S    
C79   C121  T    
C148  C177  S    
C50   C59   A    
C85   O62   D    
C146  Cl17  S    
C70   C107  S    
O27   Zn14  S    
C55   C62   A    
C83   O59   S    
O34   Zn15  S    
C133  Cl4   S    
C134  C143  A    
C44   C53   A    
C119  O78   A    
C113  C122  S    
C50   H62   S    
C37   O18   A    
C1    O45   A    
C38   O21   A    
C102  C141  S    
C117  C126  S    
C101  C130  S    
C143  C151  A    
O32   Zn9   S    
H58   O76   S    
C49   C69   A    
C7    C172  A    
O34   Zn8   S    
C110  C118  S    
C76   Cl22  S    
C158  C167  A    
O24   Zn11  S    
C163  O4    A    
C109  H31   S    
C25   C29   A    
C39   C61   S    
C11   C20   A    
C150  C159  A    
O9    Zn5   S    
C137  C146  A    
C24   C110  S    
C15   H7    S    
C24   H21   S    
C176  O7    A    
H44   O50   S    
C7    C137  A    
C60   C86   S    
C147  C176  S    
C73   C114  S    
C46   C117  S    
C153  C161  A    
C103  C112  S    
C177  O35   A    
H57   O74   S    
C82   O57   S    
C178  O36   A    
C10   C30   A    
O11   Zn7   S    
O23   Zn14  S    
C53   C80   S    
C91   O74   S    
C95   O82   D    
C180  O11   A    
C21   C28   A    
C88   O69   D    
O43   Zn4   S    
O47   Zn7   S    
C42   C64   S    
C5    C182  S    
C56   C83   S    
C107  H32   S    
C138  Cl9   S    
C16   C25   A    
O23   Zn5   S    
O18   Zn5   S    
C54   C61   A    
C46   C103  S    
C59   C63   A    
C8    C17   A    
O6    Zn2   S    
C60   C64   A    
C106  C115  S    
C52   C61   A    
O34   Zn13  S    
H50   O61   S    
C75   Cl21  S    
C30   C31   S    
C37   O20   A    
C25   H17   S    
C38   O19   A    
C79   C108  S    
C152  O47   A    
C48   C67   A    
C43   H1    S    
C24   C77   S    
O34   Zn6   S    
C51   C69   A    
C67   C69   S    
C48   H45   S    
C54   C81   S    
C2    C75   S    
C57   C118  S    
C112  C174  S    
C179  O10   A    
C44   H12   S    
C175  O6    A    
C3    C6    S    
O1    Zn10  S    
C97   C98   S    
O29   Zn12  S    
O3    Zn12  S    
C98   C124  T    
O41   Zn2   S    
C73   Cl19  S    
C72   C115  S    
C133  C142  A    
C76   C120  S    
C100  C126  T    
C77   C106  S    
C74   C174  S    
C102  C128  T    
C77   Cl23  S    
C43   C52   A    
O1    Zn1   S    
O7    Zn3   S    
C167  C184  A    
O28   Zn15  S    
C78   O49   D    
C34   O16   A    
C29   C38   S    
C5    C170  A    
O13   Zn8   S    
C100  C163  S    
C149  C158  A    
C70   Cl1   S    
C150  C175  S    
C111  H33   S    
O20   Zn7   S    
O5    Zn16  S    
C49   H56   S    
C104  H27   S    
C70   C113  S    
C58   C64   A    
C36   O17   A    
C130  O44   A    
C139  C148  A    
C56   C63   A    
C162  C171  A    
H49   O59   S    
C108  O67   A    
O21   Zn8   S    
C77   C118  S    
C92   O76   S    
C129  Cl24  S    
C84   O61   S    
C141  O46   A    
O8    Zn4   S    
C154  C178  S    
C59   C85   S    
C135  Cl6   S    
C11   H4    S    
H55   O72   S    
C9    H2    S    
C160  C169  A    
C71   C112  S    
O40   Zn16  S    
C23   C28   A    
H60   O81   S    
C114  C123  S    
C1    O40   A    
C116  C125  S    
C45   C65   A    
C142  Cl13  S    
C95   O83   S    
C164  C172  A    
C68   C105  S    
C145  C154  A    
C18   H10   S    
C4    C134  A    
H59   O79   S    
C5    C135  A    
C135  C144  A    
O35   Zn11  S    
C96   C123  T    
C46   H24   S    
C154  C162  A    
C179  O37   A    
C47   H34   S    
O46   Zn6   S    
O12   Zn9   S    
C167  H38   S    
C99   C152  S    
C172  H43   S    
C86   O65   S    
C35   H22   S    
C14   C22   A    
O1    Zn3   S    
C112  C121  S    
C13   C111  S    
O19   Zn6   S    
C68   C120  S    
C92   C160  S    
C74   Cl20  S    
C28   C37   S    
O38   Zn14  S    
C108  O42   A    
C101  C127  T    
C148  C157  A    
C4    C183  S    
C140  Cl11  S    
C107  C116  S    
C131  C139  A    
C104  C113  S    
O12   Zn2   S    
C9    C18   A    
C168  H39   S    
C118  C127  S    
C80   O51   D    
C87   C156  S    
C51   C60   A    
C94   O81   S    
C140  C149  A    
O44   Zn5   S    
O1    Zn16  S    
C129  C182  A    
H51   O63   S    
C109  C117  S    
C94   O80   D    
C81   O53   D    
C165  C182  A    
C134  Cl5   S    
C72   Cl18  S    
O26   Zn9   S    
C42   O30   A    
O4    Zn13  S    
C151  C160  A    
C14   H6    S    
C16   H8    S    
C19   C26   A    
C93   O77   D    
C177  O8    A    
C131  C183  A    
C110  H35   S    
C146  C155  A    
C155  C179  S    
C91   O73   D    
C20   H13   S    
C47   C66   A    
C91   C159  S    
C13   C114  S    
C88   O70   S    
C12   H5    S    
C52   C78   S    
C132  Cl3   S    
O37   Zn13  S    
C2    H19   S    
O48   Zn8   S    
C173  O5    A    
H48   O57   S    
O12   Zn11  S    
C21   H14   S    
C136  Cl7   S    
C85   O63   S    
C145  Cl16  S    
H53   O68   S    
C109  C174  S    
H61   O83   S    
C163  O48   A    
C137  Cl8   S    
O12   Zn4   S    
C10   C19   A    
C43   C65   A    
C84   O60   D    
C130  O84   A    
C35   C116  S    
C39   O25   A    
C88   C157  S    
C147  C156  A    
C46   C71   S    
C68   H26   S    
C180  O38   A    
C35   C104  S    
C181  O39   A    
C75   C104  S    
C119  O43   A    
C143  Cl14  S    
C115  C124  S    
O67   Zn1   S    
O30   Zn13  S    
C166  C183  A    
C152  O3    A    
O2    Zn15  S    
C120  C128  S    
C20   C27   A    
C27   C36   S    
C132  C140  A    
O78   Zn9   S    
H54   O70   S    
C8    C30   A    
C32   C33   S    
C142  C150  A    
C174  H18   S    
C93   O79   S    
C40   O24   A    
C95   C164  S    
C132  C184  A    
C41   O27   A    
C151  C180  S    
C144  Cl15  S    
C156  C165  A    
C176  O33   A    
C57   C72   S    
H46   O52   S    
C10   H3    S    
C170  H41   S    
C8    H64   S    
C78   O50   S    
C75   C116  S    
C36   O15   A    
O33   Zn10  S    
C51   H63   S    
O17   Zn4   S    
C44   C66   A    
C13   H20   S    
C89   C158  S    
C99   C125  T    
O14   Zn16  S    
C171  H42   S    
C42   O28   A    
C7    C184  S    
C83   O58   D    
C17   C26   A    
C2    C113  S    
O36   Zn12  S    
C178  O9    A    
C181  O13   A    
H47   O54   S    
C34   O14   A    
C2    C107  S    
C40   C62   S    
C159  C168  A    
C86   O64   D    
C144  C153  A    
C6    C136  A    
C26   C34   S    
H52   O65   S    
C35   C70   S    
C105  H30   S    
C93   C161  S    
O22   Zn10  S    
C87   O68   S    
C94   C162  S    
C136  C145  A    
C139  Cl10  S    
C89   O71   D    
C15   C23   A    
O56   Zn11  S    
C11   C31   A    
C169  H40   S    
C12   C32   A    
C97   O41   A    
C90   C122  T    
C141  O2    A    
C39   O22   A    
O45   Zn10  S    
C3    C168  A    
C73   C111  S    
C6    C171  A    
C72   C110  S    
C4    C169  A    
C129  C138  A    
O15   Zn2   S    
C105  C114  S    
O84   Zn14  S    
C41   O29   A    
C68   C73   S    
C12   C21   A    
C106  H29   S    
C49   C58   A    
C111  C120  S    
C3    C133  A    
C58   C84   S    
C16   C33   A    
C53   C62   A    
C13   C76   S    
C138  C147  A    
O16   Zn3   S    
C82   O55   D    
C165  H36   S    
C89   O72   S    
C55   C82   S    
C97   O56   A    
C161  C170  A    
O23   Zn12  S    
C45   C54   A    
C173  O31   A    
C80   O52   S    
C19   H11   S    
C17   H9    S    
C47   C55   A    
C50   C67   A    
C81   O54   S    
C48   C56   A    
C74   C117  S    
C166  H37   S    
C18   C27   A    
C153  C181  S    
C157  C166  A    
C92   O75   D    
C57   H25   S    
O42   Zn3   S    
C155  C164  A    
C22   H15   S    
C175  O32   A    
C90   C119  S    
C40   O26   A    
C71   Cl12  S    
O39   Zn15  S    
C1    C96   S    
C71   C109  S    
O25   Zn1   S    
C57   C106  S    
C149  C173  S    
C87   O66   D    
C9    C31   A    
C131  Cl2   S    
C23   H16   S    
C24   C115  S    
C65   C66   S    
C41   C63   S    
C45   H23   S    
C76   C105  S    
C74   C103  S    
