data_mof_unit_67447.cif
_audit_creation_date              2012-12-10T16:45:59-0500
_audit_creation_method            fapswitch 2.2
_symmetry_space_group_name_H-M    P1
_symmetry_Int_Tables_number       1
_space_group_crystal_system       triclinic
_cell_length_a                    10.855933
_cell_length_b                    8.871566
_cell_length_c                    7.603785
_cell_angle_alpha                 102.701909
_cell_angle_beta                  94.11582
_cell_angle_gamma                 94.832971
_cell_volume                      708.774128985

loop_
_atom_site_label
_atom_site_type_symbol
_atom_type_description
_atom_site_fract_x
_atom_site_fract_y
_atom_site_fract_z
_atom_type_partial_charge
C1    C     C_R   0.493701 0.200972 0.452179 0.738728
C2    C     C_3   0.874412 0.486960 0.497638 -0.075887
C3    C     C_3   0.927318 0.626363 0.424078 -0.488587
C4    C     C_3   0.907652 0.341061 0.367576 -0.390855
C5    C     C_2   0.489035 0.033543 0.412898 0.270769
C6    C     C_2   0.501608 0.964367 0.555967 -0.435833
C7    C     C_R   0.259918 0.502372 0.502939 0.852253
C8    C     C_R   0.503723 0.798936 0.543189 0.898630
C9    C     C_R   0.737947 0.491984 0.497684 0.813215
C10   C     C_3   0.080929 0.494979 0.701073 -0.151527
C11   C     C_3   0.936148 0.488777 0.694744 -0.044161
C12   C     C_3   0.064801 0.655496 0.478531 0.223146
C13   C     C_3   0.050046 0.338556 0.389202 0.150585
C14   C     C_3   0.120210 0.499980 0.508826 -0.199182
Cu1   Cu    Cu3+1 0.514070 0.517380 0.684380 1.080254
Cu2   Cu    Cu3+1 0.485930 0.482620 0.315620 1.161393
H1    H     H_    0.873953 0.341286 0.226006 0.228398
H2    H     H_    0.914881 0.600699 0.274474 0.228210
H3    H     H_    0.510263 0.035194 0.693093 0.175824
H4    H     H_    0.389236 0.395529 0.956053 0.243317
H5    H     H_    0.113894 0.391417 0.741355 0.218221
H6    H     H_    0.911528 0.593168 0.790586 0.195596
H7    H     H_    0.060768 0.733872 0.610482 0.198523
H8    H     H_    0.880267 0.732454 0.475769 0.199284
H9    H     H_    0.065623 0.247744 0.466627 0.150077
H10   H     H_    0.860338 0.233885 0.395673 0.206027
N1    N     N_2   0.464720 0.456420 0.038520 -0.138066
N2    N     N_2   0.535280 0.543580 0.961480 0.025631
O1    O     O_R   0.509140 0.286130 0.619770 -0.625259
O2    O     O_R   0.485380 0.256770 0.308360 -0.492632
O3    O     O_R   0.329570 0.514650 0.655700 -0.603930
O4    O     O_R   0.305810 0.485300 0.344290 -0.476401
O5    O     O_R   0.514620 0.743230 0.691640 -0.551800
O6    O     O_R   0.490860 0.713870 0.380230 -0.502077
O7    O     O_R   0.694190 0.514700 0.655710 -0.573476
O8    O     O_R   0.670430 0.485350 0.344300 -0.582440
I1    I     I_    0.165252 0.691803 0.909245 -0.055224
S1    S     S_3+6 0.144757 0.804252 0.392522 0.021431
O9    O     O_2   0.253234 0.747920 0.299121 -0.219633
O10   O     O_2   0.057005 0.861514 0.265806 -0.222630
O11   O     O_3   0.196759 0.953900 0.567237 -0.545183
H11   H     H_    0.223933 0.040268 0.511081 0.368575
S2    S     S_3+6 0.483389 0.950974 0.169691 0.103401
O12   O     O_2   0.612598 0.976846 0.116427 -0.284081
O13   O     O_2   0.434533 0.784792 0.105086 -0.207049
O14   O     O_3   0.393478 0.044937 0.049179 -0.435479
H12   H     H_    0.385663 0.982268 0.923215 0.377680
I2    I     I_    0.705316 0.660384 0.074805 -0.073931
I3    I     I_    0.862471 0.289301 0.791342 -0.267985
S3    S     S_3+6 0.105143 0.250775 0.179110 0.064166
O15   O     O_2   0.221709 0.181042 0.219576 -0.220971
O16   O     O_2   0.011308 0.123172 0.072750 -0.188303
O17   O     O_3   0.134043 0.384149 0.059497 -0.496539
H13   H     H_    0.070353 0.456540 0.090783 0.355783

loop_
_geom_bond_atom_site_label_1
_geom_bond_atom_site_label_2
_ccdc_geom_bond_type
C9    O8    A    
C4    H10   S    
S2    O12   D    
Cu1   O3    S    
C11   I3    S    
H4    N1    S    
Cu2   O4    S    
O11   H11   S    
C11   H6    S    
C2    C4    S    
Cu2   N1    S    
C1    O1    A    
S3    O15   D    
C5    S2    S    
C8    O6    A    
C13   C14   S    
Cu2   O8    S    
S1    O10   D    
C6    H3    S    
S2    O13   D    
C12   H7    S    
C13   H9    S    
Cu1   N2    S    
C5    C6    D    
S1    O11   S    
C10   I1    S    
C1    C5    S    
C4    H1    S    
Cu1   O7    S    
C1    O2    A    
C12   C14   S    
Cu1   O1    S    
C2    C3    S    
C8    O5    A    
C10   H5    S    
C12   S1    S    
S1    O9    D    
S2    O14   S    
S3    O17   S    
C7    O3    A    
C10   C11   S    
C2    C11   S    
Cu2   O2    S    
C13   S3    S    
C4    C13   S    
C3    H2    S    
C10   C14   S    
S3    O16   D    
C9    O7    A    
O14   H12   S    
N2    I2    S    
C6    C8    S    
C7    O4    A    
Cu2   O6    S    
O17   H13   S    
C2    C9    S    
C3    C12   S    
Cu1   O5    S    
C7    C14   S    
Cu1   Cu2   S    
C3    H8    S    
N1    N2    D    
