data_mof_unit_27879.cif
_audit_creation_date              2012-12-11T15:43:55-0500
_audit_creation_method            fapswitch 2.2
_symmetry_space_group_name_H-M    P1
_symmetry_Int_Tables_number       1
_space_group_crystal_system       triclinic
_cell_length_a                    14.60858
_cell_length_b                    16.159515
_cell_length_c                    6.912949
_cell_angle_alpha                 90.02295
_cell_angle_beta                  99.290352
_cell_angle_gamma                 89.951158
_cell_volume                      1610.51633952

loop_
_atom_site_label
_atom_site_type_symbol
_atom_type_description
_atom_site_fract_x
_atom_site_fract_y
_atom_site_fract_z
_atom_type_partial_charge
O1    O     O_R   0.831700 0.662810 0.581550 -0.542441
O2    O     O_R   0.168300 0.337190 0.418450 -0.541273
O3    O     O_R   0.168300 0.162810 0.418450 -0.538201
O4    O     O_R   0.831700 0.837190 0.581550 -0.541053
O5    O     O_R   0.842890 0.834390 0.255500 -0.550925
O6    O     O_R   0.157110 0.165610 0.744500 -0.546833
O7    O     O_R   0.157110 0.334390 0.744500 -0.546705
O8    O     O_R   0.842890 0.665610 0.255500 -0.549632
O9    O     O_R   0.661690 0.835580 0.024130 -0.542137
O10   O     O_R   0.338310 0.164420 0.975870 -0.525669
O11   O     O_R   0.338310 0.335580 0.975870 -0.533000
O12   O     O_R   0.661690 0.664420 0.024130 -0.537231
C1    C     C_R   0.863801 0.865798 0.432011 0.712054
C2    C     C_R   0.135439 0.134693 0.567492 0.727917
C3    C     C_R   0.136295 0.365902 0.568349 0.698460
C4    C     C_R   0.863826 0.634180 0.431735 0.698373
C5    C     C_R   0.066190 0.065629 0.528944 -0.095620
C6    C     C_R   0.931915 0.935650 0.469336 -0.094226
C7    C     C_R   0.932352 0.564553 0.468705 -0.096690
C8    C     C_R   0.067931 0.435648 0.531597 -0.093693
H1    H     H_    0.985269 0.912080 0.203089 0.131889
H2    H     H_    0.012017 0.089819 0.794007 0.129403
H3    H     H_    0.005679 0.404998 0.783352 0.129926
H4    H     H_    0.994699 0.595273 0.217101 0.131678
C9    C     C_R   0.990506 0.951059 0.331874 -0.196386
C10   C     C_R   0.007067 0.050596 0.665738 -0.198253
C11   C     C_R   0.003841 0.446745 0.660108 -0.191164
C12   C     C_R   0.996514 0.553510 0.340308 -0.194518
O13   O     O_3   0.687240 0.750000 0.366320 -0.344823
O14   O     O_3   0.312760 0.250000 0.633680 -0.353489
V1    V     V_3+5 0.757720 0.750000 0.115230 1.436828
V2    V     V_3+5 0.242280 0.250000 0.884770 1.438465
O15   O     O_R   0.650500 0.664000 0.690740 -0.507344
O16   O     O_R   0.349500 0.336000 0.309260 -0.541578
O17   O     O_R   0.349500 0.164000 0.309260 -0.520581
O18   O     O_R   0.650500 0.836000 0.690740 -0.513672
C13   C     C_R   0.625246 0.638433 0.852478 0.713314
C14   C     C_R   0.374833 0.361862 0.147477 0.669003
C15   C     C_R   0.368721 0.133661 0.146361 0.686974
C16   C     C_R   0.632463 0.867594 0.853749 0.712203
C17   C     C_R   0.056640 0.014930 0.357431 0.167054
C18   C     C_R   0.940170 0.987267 0.639016 0.171991
C19   C     C_R   0.936160 0.509535 0.631247 0.166613
C20   C     C_R   0.064271 0.490777 0.369326 0.157681
V3    V     V_3+5 0.735670 0.750000 0.607790 1.535857
V4    V     V_3+5 0.264330 0.250000 0.392210 1.475763
O19   O     O_3   0.806150 0.750000 0.906560 -0.390249
O20   O     O_3   0.193850 0.250000 0.093440 -0.381909
H5    H     H_    0.505275 0.101072 0.958747 0.171567
H6    H     H_    0.544348 0.924418 0.127994 0.192074
H7    H     H_    0.606139 0.515202 0.086270 0.152515
H8    H     H_    0.418054 0.452622 0.858039 0.182682
C21   C     C_2   0.576470 0.945937 0.846125 -0.203262
C22   C     C_2   0.421252 0.054471 0.149997 -0.198056
C23   C     C_2   0.452017 0.423381 0.158093 -0.269628
C24   C     C_2   0.542759 0.583401 0.842310 -0.158976
C25   C     C_2   0.536950 0.967122 0.005428 -0.110733
C26   C     C_2   0.486180 0.045815 0.031183 -0.127926
C27   C     C_2   0.464972 0.465051 0.993086 -0.089636
C28   C     C_2   0.543139 0.523466 0.980785 -0.132025
C29   C     C_3   0.115660 0.025790 0.198994 -0.711290
H9    H     H_    0.189976 0.022425 0.263204 0.232108
H10   H     H_    0.102544 0.976939 0.084761 0.192436
H11   H     H_    0.100049 0.086068 0.124267 0.205822
C30   C     C_3   0.878048 0.978538 0.792573 -0.732543
H12   H     H_    0.804239 0.981731 0.722840 0.225873
H13   H     H_    0.892224 0.919104 0.871951 0.210460
H14   H     H_    0.889658 0.028620 0.903978 0.189739
C31   C     C_3   0.868051 0.514051 0.773800 -0.728484
H15   H     H_    0.795864 0.513376 0.693101 0.211015
H16   H     H_    0.875317 0.460664 0.876363 0.190906
H17   H     H_    0.880327 0.570897 0.864370 0.212563
C32   C     C_3   0.132686 0.486473 0.227411 -0.716108
H18   H     H_    0.204764 0.487072 0.308712 0.203311
H19   H     H_    0.120583 0.429743 0.136382 0.214725
H20   H     H_    0.125615 0.540005 0.125279 0.195786
C33   C     C_2   0.388124 0.983475 0.258028 0.775383
O21   O     O_2   0.358496 0.995775 0.411116 -0.544510
O22   O     O_R   0.385760 0.903400 0.180538 -0.656795
H21   H     H_    0.360598 0.861251 0.267010 0.309076
C34   C     C_2   0.573014 0.000763 0.669559 0.775229
O23   O     O_2   0.624853 0.987196 0.550785 -0.581087
O24   O     O_R   0.512074 0.067786 0.637426 -0.640975
H22   H     H_    0.521681 0.102281 0.519943 0.290781
C35   C     C_2   0.458029 0.605995 0.699841 0.816586
O25   O     O_2   0.465776 0.646286 0.553614 -0.527138
O26   O     O_R   0.369319 0.586348 0.737240 -0.673076
H23   H     H_    0.318303 0.606098 0.629993 0.292652
C36   C     C_2   0.514638 0.435613 0.349323 0.798688
O27   O     O_2   0.543489 0.504552 0.398171 -0.523501
O28   O     O_R   0.541563 0.369308 0.475907 -0.649280
H24   H     H_    0.522739 0.313407 0.416197 0.250905

loop_
_geom_bond_atom_site_label_1
_geom_bond_atom_site_label_2
_ccdc_geom_bond_type
O6    V2    S    
O26   H23   S    
C23   C27   D    
C31   H17   S    
O15   V3    S    
C32   H18   S    
C17   C29   S    
C34   O23   D    
C24   C35   S    
C35   O25   D    
O2    V4    S    
C1    C6    S    
C5    C10   A    
C6    C18   A    
C15   C22   S    
O12   C13   A    
C21   C34   S    
O4    C1    A    
C29   H10   S    
C34   O24   S    
C13   C24   S    
C14   C23   S    
C30   H13   S    
C18   C30   S    
O16   V4    S    
H3    C11   S    
C36   O28   S    
O5    C1    A    
C29   H9    S    
C22   C33   S    
C33   O22   S    
C27   C28   S    
O8    C4    A    
V1    O19   S    
C32   H19   S    
C2    C5    S    
C20   C32   S    
C6    C9    A    
C8    C20   A    
C7    C19   A    
O4    V3    S    
V3    O19   S    
C3    C8    S    
V4    O20   S    
C31   H16   S    
C35   O26   S    
O18   C16   A    
C9    C17   A    
O28   H24   S    
C21   C25   D    
C33   O21   D    
C12   C20   A    
O9    C16   A    
O15   C13   A    
H5    C26   S    
C24   C28   D    
O13   V3    S    
O10   C15   A    
C29   H11   S    
O17   C15   A    
C7    C12   A    
H8    C27   S    
O10   V2    S    
O6    C2    A    
O24   H22   S    
C30   H14   S    
O18   V3    S    
O1    C4    A    
O2    C3    A    
O3    C2    A    
O11   V2    S    
C16   C21   S    
O12   V1    S    
C32   H20   S    
C10   C18   A    
C22   C26   D    
H1    C9    S    
O7    V2    S    
O16   C14   A    
O8    V1    S    
O14   V4    S    
H4    C12   S    
C8    C11   A    
O3    V4    S    
C23   C36   S    
O14   V2    S    
H6    C25   S    
O1    V3    S    
C25   C26   S    
V2    O20   S    
C4    C7    S    
O7    C3    A    
C31   H15   S    
C5    C17   A    
O9    V1    S    
O22   H21   S    
C11   C19   A    
O13   V1    S    
C30   H12   S    
H2    C10   S    
O11   C14   A    
H7    C28   S    
C36   O27   D    
C19   C31   S    
O17   V4    S    
O5    V1    S    
