data_mof_unit_50001.cif
_audit_creation_date              2012-12-10T19:48:37-0500
_audit_creation_method            fapswitch 2.2
_symmetry_space_group_name_H-M    P1
_symmetry_Int_Tables_number       1
_space_group_crystal_system       triclinic
_cell_length_a                    13.126308
_cell_length_b                    14.127187
_cell_length_c                    14.960159
_cell_angle_alpha                 89.824745
_cell_angle_beta                  90.240571
_cell_angle_gamma                 68.767552
_cell_volume                      2585.81063452

loop_
_atom_site_label
_atom_site_type_symbol
_atom_type_description
_atom_site_fract_x
_atom_site_fract_y
_atom_site_fract_z
_atom_type_partial_charge
C1    C     C_R   0.502038 0.499327 0.672840 0.963544
C2    C     C_R   0.985770 0.450536 0.489804 0.059184
C3    C     C_R   0.878082 0.468732 0.461047 0.049249
C4    C     C_R   0.027994 0.529365 0.478958 0.065606
C5    C     C_R   0.967639 0.619251 0.431046 -0.005113
C6    C     C_R   0.868203 0.627713 0.391399 -0.213440
C7    C     C_R   0.824737 0.553114 0.405312 -0.176719
C8    C     C_R   0.128866 0.520987 0.514448 -0.285069
C9    C     C_R   0.106910 0.691503 0.466128 0.113565
C10   C     C_R   0.825253 0.402853 0.489169 -0.243892
C11   C     C_R   0.578040 0.398265 0.905878 0.533951
C12   C     C_R   0.705255 0.442838 0.495319 0.873316
C13   C     C_R   0.564807 0.401059 0.813420 0.348358
C14   C     C_R   0.515896 0.495708 0.769351 -0.366895
C15   C     C_R   0.486366 0.587457 0.817487 0.481521
C16   C     C_R   0.497270 0.583235 0.909753 -0.387689
C17   C     C_R   0.540197 0.489967 0.953381 -0.106508
C18   C     C_R   0.588011 0.535902 0.100126 -0.279807
C19   C     C_R   0.575321 0.540832 0.191517 -0.308800
C20   C     C_R   0.506292 0.498025 0.232008 -0.208704
C21   C     C_R   0.448499 0.450056 0.181528 0.371932
C22   C     C_R   0.456403 0.450825 0.088256 0.493342
C23   C     C_R   0.499448 0.500241 0.327698 0.952642
C24   C     C_R   0.529953 0.490028 0.049049 0.025830
C25   C     C_R   0.578343 0.866282 0.557044 0.127561
C26   C     C_R   0.572573 0.768512 0.554382 -0.139501
C27   C     C_R   0.429855 0.822077 0.446521 0.267076
C28   C     C_R   0.428455 0.923343 0.450472 0.030174
C29   C     C_R   0.505288 0.945307 0.504609 0.081787
C30   C     C_R   0.537840 0.091271 0.428552 -0.366889
C31   C     C_R   0.534625 0.191631 0.427421 -0.021165
C32   C     C_R   0.471024 0.215420 0.576211 -0.115724
C33   C     C_R   0.472817 0.114073 0.581098 0.477387
C34   C     C_R   0.294209 0.557302 0.502578 0.915180
C35   C     C_R   0.507584 0.051121 0.505699 0.104551
C36   C     C_R   0.007160 0.699650 0.423775 0.500321
C37   C     C_R   0.173990 0.594552 0.498758 -0.224375
C38   C     C_R   0.887540 0.305727 0.524048 0.092880
C39   C     C_R   0.997834 0.283293 0.545514 0.527847
C40   C     C_R   0.046034 0.354953 0.528937 -0.353617
H1    H     H_    0.465541 0.652653 0.948181 0.186773
H2    H     H_    0.642732 0.567905 0.068947 0.172688
H3    H     H_    0.621179 0.576128 0.230908 0.173277
H4    H     H_    0.627931 0.708274 0.595195 0.154178
H5    H     H_    0.821967 0.693199 0.351171 0.187042
H6    H     H_    0.564468 0.044735 0.369563 0.168708
H7    H     H_    0.561091 0.220525 0.368562 0.138818
H8    H     H_    0.447607 0.264778 0.633400 0.173752
H9    H     H_    0.177266 0.455201 0.552516 0.170003
H10   H     H_    0.131711 0.331348 0.545079 0.161524
H11   H     H_    0.748328 0.562360 0.372045 0.153611
N1    N     N_R   0.500000 0.747530 0.500020 -0.109856
N2    N     N_R   0.499940 0.252470 0.500020 -0.100856
O1    O     O_R   0.499990 0.420530 0.630930 -0.590540
O2    O     O_R   0.499990 0.579480 0.630940 -0.578743
O3    O     O_R   0.653620 0.381060 0.499970 -0.584307
O4    O     O_R   0.653620 0.540010 0.499980 -0.627631
O5    O     O_R   0.500010 0.420520 0.369060 -0.595729
O6    O     O_R   0.500010 0.579470 0.369070 -0.614432
O7    O     O_R   0.346380 0.459990 0.500020 -0.603657
O8    O     O_R   0.346380 0.618940 0.500030 -0.604659
Zn1   Zn    Zn3+2 0.500000 0.393860 0.499990 0.968655
Zn2   Zn    Zn3+2 0.500000 0.606140 0.500010 0.958904
N3    N     N_2   0.138712 0.778096 0.477001 -0.305961
H12   H     H_    0.201588 0.767081 0.521802 0.255144
C41   C     C_3   0.053787 0.876564 0.491979 -0.731683
H13   H     H_    0.987262 0.869275 0.533778 0.250092
H14   H     H_    0.021138 0.914007 0.427298 0.275933
H15   H     H_    0.088239 0.927131 0.527727 0.218563
O9    O     O_3   0.592258 0.310365 0.767609 -0.554819
C42   C     C_3   0.701893 0.280505 0.739907 -0.239551
H16   H     H_    0.715448 0.339201 0.696806 0.132908
H17   H     H_    0.721567 0.210273 0.699869 0.192339
H18   H     H_    0.758818 0.262546 0.797988 0.144383
O10   O     O_3   0.433213 0.680030 0.775424 -0.577369
C43   C     C_3   0.497395 0.741137 0.782674 -0.257928
H19   H     H_    0.462909 0.807304 0.737083 0.201397
H20   H     H_    0.583570 0.699541 0.762150 0.133335
H21   H     H_    0.494712 0.771197 0.851505 0.149918
O11   O     O_3   0.376598 0.412898 0.223609 -0.609303
C44   C     C_3   0.411750 0.306629 0.212388 -0.204652
H22   H     H_    0.379366 0.287999 0.148921 0.206255
H23   H     H_    0.377705 0.274736 0.267563 0.175397
H24   H     H_    0.502419 0.268402 0.215014 0.124292
O12   O     O_3   0.394365 0.411941 0.035295 -0.587763
C45   C     C_3   0.291212 0.488693 0.020968 -0.321881
H25   H     H_    0.298716 0.555949 0.986782 0.162406
H26   H     H_    0.245697 0.511853 0.084702 0.183601
H27   H     H_    0.242395 0.458286 0.976755 0.190165
N4    N     N_2   0.656918 0.884567 0.613180 -0.273766
H28   H     H_    0.674555 0.840834 0.670599 0.219089
C46   C     C_3   0.754960 0.881369 0.567447 -0.758036
H29   H     H_    0.808957 0.901592 0.614929 0.229729
H30   H     H_    0.734869 0.936648 0.511188 0.256711
H31   H     H_    0.799608 0.803753 0.541492 0.245542
N5    N     N_2   0.356321 0.797777 0.389107 -0.267966
H32   H     H_    0.276299 0.846502 0.394413 0.225403
C47   C     C_3   0.390483 0.778370 0.296754 -0.739271
H33   H     H_    0.356550 0.848435 0.255758 0.193401
H34   H     H_    0.358517 0.721956 0.268599 0.248276
H35   H     H_    0.481042 0.748431 0.290835 0.244510
N6    N     N_2   0.350017 0.003628 0.401128 -0.327594
H36   H     H_    0.331032 0.984702 0.338638 0.227234
C48   C     C_3   0.254131 0.062464 0.451273 -0.691101
H37   H     H_    0.201466 0.127048 0.409714 0.236752
H38   H     H_    0.277432 0.093757 0.512685 0.271161
H39   H     H_    0.206633 0.014553 0.470050 0.236914
O13   O     O_3   0.446222 0.072078 0.657894 -0.600378
C49   C     C_3   0.362629 0.143768 0.707638 -0.341487
H40   H     H_    0.296602 0.195070 0.664034 0.146784
H41   H     H_    0.397277 0.187966 0.751550 0.202154
H42   H     H_    0.324967 0.102273 0.751567 0.195058
O14   O     O_3   0.946584 0.786412 0.376754 -0.621270
C50   C     C_3   0.991490 0.780424 0.290519 -0.362099
H43   H     H_    0.989009 0.712812 0.253839 0.162728
H44   H     H_    0.076671 0.779329 0.293328 0.186207
H45   H     H_    0.941696 0.848892 0.252010 0.191325
N7    N     N_2   0.839454 0.231324 0.538871 -0.283834
H46   H     H_    0.870609 0.184471 0.593101 0.236198
C51   C     C_3   0.834426 0.174092 0.460027 -0.709814
H47   H     H_    0.789791 0.122710 0.475774 0.229389
H48   H     H_    0.918305 0.127502 0.437759 0.232508
H49   H     H_    0.790327 0.225835 0.404927 0.236893
O15   O     O_3   0.060005 0.189490 0.580815 -0.616389
C52   C     C_3   0.065120 0.198767 0.674447 -0.394301
H50   H     H_    0.982616 0.220927 0.704963 0.149339
H51   H     H_    0.103487 0.254314 0.693577 0.160113
H52   H     H_    0.116283 0.123864 0.702761 0.205792
O16   O     O_3   0.617205 0.304730 0.948808 -0.547777
C53   C     C_3   0.719591 0.289646 0.988945 -0.340487
H53   H     H_    0.708552 0.320193 0.057915 0.177105
H54   H     H_    0.770563 0.322950 0.949654 0.120396
H55   H     H_    0.766002 0.206774 0.994097 0.193218

loop_
_geom_bond_atom_site_label_1
_geom_bond_atom_site_label_2
_ccdc_geom_bond_type
O5    Zn1   S    
C23   O5    A    
C41   H14   S    
C6    H5    S    
C34   C37   S    
C15   O10   S    
C19   C20   A    
C43   H21   S    
C4    C8    A    
C48   H38   S    
C50   H43   S    
C26   H4    S    
O12   C45   S    
C51   H47   S    
C23   O6    A    
C25   N4    S    
C30   C35   A    
C18   C24   A    
C28   C29   A    
C43   H20   S    
O16   C53   S    
C3    C7    A    
C18   H2    S    
C30   C31   A    
C45   H26   S    
C41   H15   S    
C13   O9    S    
C15   C16   A    
C9    N3    S    
C5    C36   A    
O13   C49   S    
O7    Zn1   S    
C18   C19   A    
C22   O12   S    
O8    Zn2   S    
N7    H46   S    
C51   H48   S    
C16   C17   A    
O2    Zn2   S    
C9    C36   A    
C2    C40   A    
O9    C42   S    
C51   H49   S    
C41   H13   S    
C31   H7    S    
C21   C22   A    
C34   O7    A    
C32   H8    S    
C27   N5    S    
C33   O13   S    
C36   O14   S    
C11   O16   S    
C9    C37   A    
C48   H37   S    
C44   H23   S    
C19   H3    S    
O4    Zn2   S    
C25   C29   A    
C38   C39   A    
C17   C24   S    
C43   H19   S    
C49   H42   S    
C39   C40   A    
C42   H17   S    
C45   H25   S    
O11   C44   S    
O1    Zn1   S    
C25   C26   A    
N1    Zn2   S    
C34   O8    A    
C44   H22   S    
C39   O15   S    
N5    C47   S    
N3    C41   S    
C53   H54   S    
O10   C43   S    
C26   N1    A    
C52   H52   S    
N2    Zn1   S    
N4    C46   S    
C20   C23   S    
N5    H32   S    
C46   H30   S    
C31   N2    A    
N6    C48   S    
C12   O3    A    
C10   C12   S    
C1    O1    A    
C12   O4    A    
C47   H34   S    
C52   H50   S    
C22   C24   A    
C53   H55   S    
C8    C37   A    
C32   N2    A    
C44   H24   S    
C27   N1    A    
O14   C50   S    
C11   C17   A    
C30   H6    S    
C4    C5    A    
C45   H27   S    
C42   H18   S    
C50   H44   S    
C6    C7    A    
C47   H35   S    
C29   C35   S    
O6    Zn2   S    
C10   C38   A    
C32   C33   A    
C49   H41   S    
C2    C3    A    
C1    O2    A    
C7    H11   S    
C42   H16   S    
C3    C10   A    
C49   H40   S    
N3    H12   S    
C11   C13   A    
N4    H28   S    
C5    C6    A    
C40   H10   S    
C2    C4    A    
C8    H9    S    
C21   O11   S    
C46   H29   S    
C33   C35   A    
C53   H53   S    
O3    Zn1   S    
C46   H31   S    
N6    H36   S    
N7    C51   S    
C50   H45   S    
C38   N7    S    
C28   N6    S    
C20   C21   A    
C47   H33   S    
C27   C28   A    
C52   H51   S    
C14   C15   A    
C1    C14   S    
C13   C14   A    
C16   H1    S    
C48   H39   S    
O15   C52   S    
