data_mof_unit_8799.cif
_audit_creation_date              2012-12-10T18:46:51-0500
_audit_creation_method            fapswitch 2.2
_symmetry_space_group_name_H-M    P1
_symmetry_Int_Tables_number       1
_space_group_crystal_system       triclinic
_cell_length_a                    18.102043
_cell_length_b                    18.102313
_cell_length_c                    51.402188
_cell_angle_alpha                 90.032686
_cell_angle_beta                  90.072837
_cell_angle_gamma                 90.000075
_cell_volume                      16843.9074358

loop_
_atom_site_label
_atom_site_type_symbol
_atom_type_description
_atom_site_fract_x
_atom_site_fract_y
_atom_site_fract_z
_atom_type_partial_charge
C1    C     C_R   0.000001 0.500058 0.820827 0.823804
C2    C     C_R   0.999994 0.499942 0.179173 0.829089
C3    C     C_R   0.500080 0.999989 0.820827 0.829096
C4    C     C_R   0.499920 0.999995 0.179173 0.823826
C5    C     C_R   0.500003 0.000018 0.320826 0.828916
C6    C     C_R   0.499999 0.999981 0.679174 0.823514
C7    C     C_R   0.000080 0.500006 0.320827 0.823837
C8    C     C_R   0.999920 0.500013 0.679173 0.829104
C9    C     C_R   0.506986 0.135503 0.986520 0.177897
C10   C     C_R   0.493051 0.864261 0.013479 0.178157
C11   C     C_R   0.864390 0.507730 0.986424 0.178305
C12   C     C_R   0.135539 0.492239 0.013577 0.178179
C13   C     C_R   0.506945 0.864259 0.986467 0.178240
C14   C     C_R   0.493044 0.135506 0.013529 0.178170
C15   C     C_R   0.135634 0.506114 0.986560 0.177940
C16   C     C_R   0.864294 0.493902 0.013444 0.177981
C17   C     C_R   0.007829 0.635730 0.486519 0.178635
C18   C     C_R   0.992138 0.364587 0.513482 0.177792
C19   C     C_R   0.364430 0.993656 0.486330 0.179176
C20   C     C_R   0.635701 0.995454 0.513663 0.179048
C21   C     C_R   0.006078 0.364488 0.486472 0.177701
C22   C     C_R   0.993931 0.635828 0.513531 0.178361
C23   C     C_R   0.635632 0.006319 0.486468 0.178907
C24   C     C_R   0.364339 0.004410 0.513535 0.178926
C25   C     C_R   0.931038 0.500699 0.609677 0.188943
C26   C     C_R   0.068961 0.499874 0.390325 0.190830
C27   C     C_R   0.505574 0.932613 0.609511 0.195085
C28   C     C_R   0.505074 0.067413 0.390497 0.193526
C29   C     C_R   0.066073 0.499623 0.609349 0.199174
C30   C     C_R   0.933922 0.500347 0.390651 0.199648
C31   C     C_R   0.494411 0.067193 0.609517 0.195529
C32   C     C_R   0.495009 0.932748 0.390478 0.194306
C33   C     C_R   0.431040 0.999837 0.109675 0.190938
C34   C     C_R   0.568965 0.999683 0.890323 0.189052
C35   C     C_R   0.999427 0.431144 0.109686 0.189005
C36   C     C_R   0.000227 0.568851 0.890317 0.190250
C37   C     C_R   0.566079 0.999983 0.109349 0.199752
C38   C     C_R   0.433926 0.000084 0.890650 0.199285
C39   C     C_R   0.000430 0.566178 0.109342 0.199312
C40   C     C_R   0.999780 0.433814 0.890658 0.200426
C41   C     C_R   0.932247 0.500637 0.636891 -0.206552
C42   C     C_R   0.067753 0.499840 0.363111 -0.212679
C43   C     C_R   0.505379 0.933199 0.636741 -0.212535
C44   C     C_R   0.504897 0.066832 0.363267 -0.208198
C45   C     C_R   0.066139 0.499575 0.636590 -0.212201
C46   C     C_R   0.933858 0.500301 0.363411 -0.214362
C47   C     C_R   0.494602 0.066660 0.636746 -0.214310
C48   C     C_R   0.495160 0.933291 0.363249 -0.210131
C49   C     C_R   0.432247 0.999872 0.136889 -0.212745
C50   C     C_R   0.567755 0.999718 0.863109 -0.206627
C51   C     C_R   0.999454 0.432327 0.136899 -0.206620
C52   C     C_R   0.000222 0.567671 0.863103 -0.210805
C53   C     C_R   0.566143 0.000011 0.136590 -0.214420
C54   C     C_R   0.433860 0.000125 0.863410 -0.212276
C55   C     C_R   0.000444 0.566217 0.136583 -0.212275
C56   C     C_R   0.999786 0.433778 0.863417 -0.216335
C57   C     C_R   0.999501 0.500070 0.650497 -0.097930
C58   C     C_R   0.000498 0.500044 0.349504 -0.096452
C59   C     C_R   0.499992 0.999944 0.650499 -0.095782
C60   C     C_R   0.500018 0.000051 0.349502 -0.098135
C61   C     C_R   0.499502 0.999962 0.150496 -0.096438
C62   C     C_R   0.500499 0.999948 0.849503 -0.097912
C63   C     C_R   0.999965 0.499565 0.150497 -0.097934
C64   C     C_R   0.000004 0.500433 0.849504 -0.096461
C65   C     C_R   0.998204 0.500180 0.595850 0.317815
C66   C     C_R   0.001792 0.500125 0.404151 0.318185
C67   C     C_R   0.499995 0.999890 0.595850 0.316644
C68   C     C_R   0.500046 0.000090 0.404152 0.316268
C69   C     C_R   0.498209 0.999898 0.095849 0.318201
C70   C     C_R   0.501797 0.999874 0.904149 0.317832
C71   C     C_R   0.999923 0.498323 0.095851 0.317819
C72   C     C_R   0.000005 0.501670 0.904150 0.318190
C73   C     C_R   0.142324 0.358983 0.750642 0.862048
C74   C     C_R   0.858005 0.641350 0.249569 0.855343
C75   C     C_R   0.641674 0.141679 0.750285 0.849198
C76   C     C_R   0.358965 0.857671 0.249353 0.862519
C77   C     C_R   0.857671 0.641044 0.750615 0.861011
C78   C     C_R   0.141701 0.358338 0.249723 0.849378
C79   C     C_R   0.358660 0.857985 0.750422 0.855694
C80   C     C_R   0.641025 0.142324 0.249390 0.860356
C81   C     C_R   0.641995 0.858649 0.250431 0.855459
C82   C     C_R   0.357675 0.141016 0.749358 0.861934
C83   C     C_R   0.141035 0.642330 0.250647 0.862568
C84   C     C_R   0.858326 0.358321 0.749715 0.849078
C85   C     C_R   0.358299 0.141662 0.250276 0.849418
C86   C     C_R   0.642330 0.858957 0.749385 0.860840
C87   C     C_R   0.858975 0.357675 0.250611 0.860479
C88   C     C_R   0.141340 0.642014 0.749578 0.855639
C89   C     C_3   0.193919 0.771822 0.765720 -0.285363
C90   C     C_3   0.815432 0.218178 0.243551 -0.311557
C91   C     C_3   0.219078 0.185269 0.757616 -0.284614
C92   C     C_3   0.771708 0.806146 0.234293 -0.285044
C93   C     C_3   0.797432 0.237480 0.769971 -0.297980
C94   C     C_3   0.185212 0.780926 0.242399 -0.284686
C95   C     C_3   0.781817 0.815473 0.756448 -0.311701
C96   C     C_3   0.237316 0.202620 0.230027 -0.298232
C97   C     C_3   0.684568 0.281822 0.256449 -0.311696
C98   C     C_3   0.306081 0.728178 0.734280 -0.284897
C99   C     C_3   0.728293 0.693855 0.265707 -0.284949
C100  C     C_3   0.280922 0.314729 0.742382 -0.284617
C101  C     C_3   0.314788 0.719075 0.257602 -0.284923
C102  C     C_3   0.702568 0.262520 0.730029 -0.297664
C103  C     C_3   0.262684 0.297380 0.269972 -0.297907
C104  C     C_3   0.718183 0.684528 0.743551 -0.311661
C105  C     C_3   0.222305 0.812642 0.741443 0.556084
C106  C     C_3   0.766006 0.197750 0.266856 0.550713
C107  C     C_3   0.195921 0.232392 0.734053 0.550673
C108  C     C_3   0.812681 0.777688 0.258561 0.555836
C109  C     C_3   0.781326 0.184897 0.747078 0.562391
C110  C     C_3   0.232487 0.804032 0.265955 0.550612
C111  C     C_3   0.802222 0.765925 0.733146 0.550927
C112  C     C_3   0.184904 0.218700 0.252934 0.562416
C113  C     C_3   0.733994 0.302250 0.233144 0.550816
C114  C     C_3   0.277694 0.687358 0.758557 0.555903
C115  C     C_3   0.687319 0.722312 0.241439 0.555888
C116  C     C_3   0.304079 0.267607 0.765945 0.550628
C117  C     C_3   0.267512 0.695969 0.234046 0.550730
C118  C     C_3   0.718674 0.315103 0.752922 0.562282
C119  C     C_3   0.315096 0.281300 0.247066 0.562503
C120  C     C_3   0.697778 0.734076 0.766853 0.550912
C121  C     C_3   0.301899 0.800378 0.750306 -0.073409
C122  C     C_3   0.697822 0.199928 0.249364 -0.075301
C123  C     C_3   0.199871 0.302116 0.750716 -0.075524
C124  C     C_3   0.800408 0.698129 0.249677 -0.073281
C125  C     C_3   0.698614 0.199053 0.750088 -0.070483
C126  C     C_3   0.302094 0.800143 0.249276 -0.075587
C127  C     C_3   0.800084 0.697844 0.750643 -0.075494
C128  C     C_3   0.199085 0.301415 0.249929 -0.070652
C129  C     C_3   0.802178 0.300071 0.250637 -0.075264
C130  C     C_3   0.198101 0.699621 0.749694 -0.073524
C131  C     C_3   0.699593 0.801871 0.250323 -0.073334
C132  C     C_3   0.300129 0.197883 0.749283 -0.075382
C133  C     C_3   0.197906 0.699858 0.250725 -0.075461
C134  C     C_3   0.801385 0.300947 0.749913 -0.070484
C135  C     C_3   0.300915 0.198585 0.250070 -0.070650
C136  C     C_3   0.699916 0.802157 0.749356 -0.075369
C137  C     C_3   0.274797 0.758961 0.774740 -0.328774
C138  C     C_3   0.746167 0.220736 0.225722 -0.293469
C139  C     C_3   0.223410 0.256080 0.774620 -0.321556
C140  C     C_3   0.758833 0.725300 0.225253 -0.328700
C141  C     C_3   0.713383 0.252231 0.772996 -0.327134
C142  C     C_3   0.255905 0.776656 0.225380 -0.321620
C143  C     C_3   0.779301 0.746310 0.774281 -0.293650
C144  C     C_3   0.252088 0.286668 0.227006 -0.327052
C145  C     C_3   0.753833 0.279264 0.274278 -0.293655
C146  C     C_3   0.225202 0.741039 0.725261 -0.328281
C147  C     C_3   0.741168 0.774701 0.274747 -0.328508
C148  C     C_3   0.276590 0.243918 0.725379 -0.321812
C149  C     C_3   0.244095 0.723345 0.274621 -0.321924
C150  C     C_3   0.786616 0.247769 0.727004 -0.326844
C151  C     C_3   0.247912 0.213332 0.272994 -0.326615
C152  C     C_3   0.720699 0.753690 0.725719 -0.293802
C153  C     C_R   0.502622 0.934082 0.944916 0.515012
C154  C     C_R   0.497323 0.065686 0.055081 0.514940
C155  C     C_R   0.065796 0.502184 0.944961 0.515140
C156  C     C_R   0.934134 0.497872 0.055040 0.515205
C157  C     C_R   0.502718 0.065674 0.944941 0.515116
C158  C     C_R   0.497357 0.934094 0.055057 0.515103
C159  C     C_R   0.934204 0.502888 0.944898 0.514925
C160  C     C_R   0.065726 0.497036 0.055105 0.514945
C161  C     C_R   0.002276 0.434333 0.444919 0.515033
C162  C     C_R   0.997776 0.565980 0.555083 0.515185
C163  C     C_R   0.565756 0.997645 0.444984 0.515425
C164  C     C_R   0.434330 0.996608 0.555016 0.515370
C165  C     C_R   0.003047 0.565923 0.444943 0.515076
C166  C     C_R   0.996884 0.434390 0.555059 0.515007
C167  C     C_R   0.434327 0.002523 0.444924 0.515223
C168  C     C_R   0.565690 0.003146 0.555081 0.515172
C169  C     C_R   0.504304 0.067869 0.972459 -0.059493
C170  C     C_R   0.495739 0.931897 0.027539 -0.059415
C171  C     C_R   0.932012 0.504593 0.972413 -0.059424
C172  C     C_R   0.067918 0.495367 0.027589 -0.059490
C173  C     C_R   0.504257 0.931892 0.972433 -0.059536
C174  C     C_R   0.495725 0.067874 0.027564 -0.059415
C175  C     C_R   0.067990 0.503810 0.972479 -0.059419
C176  C     C_R   0.931940 0.496210 0.027523 -0.059535
C177  C     C_R   0.004696 0.568111 0.472460 -0.059434
C178  C     C_R   0.995267 0.432204 0.527541 -0.059366
C179  C     C_R   0.432076 0.998042 0.472389 -0.059038
C180  C     C_R   0.568000 0.998833 0.527610 -0.058945
C181  C     C_R   0.003845 0.432135 0.472436 -0.059313
C182  C     C_R   0.996173 0.568180 0.527566 -0.059579
C183  C     C_R   0.567993 0.002011 0.472457 -0.059040
C184  C     C_R   0.432033 0.000993 0.527546 -0.058967
C185  C     C_R   0.501445 0.999882 0.986222 -0.097987
C186  C     C_R   0.498567 0.999884 0.013776 -0.098023
C187  C     C_R   0.999979 0.501400 0.986223 -0.098013
C188  C     C_R   0.999951 0.498590 0.013779 -0.097990
C189  C     C_R   0.001435 0.500145 0.486224 -0.097968
C190  C     C_R   0.998556 0.500170 0.513778 -0.097931
C191  C     C_R   0.500030 0.999998 0.486223 -0.098124
C192  C     C_R   0.500021 0.999941 0.513779 -0.098142
H1    H     H_    0.146974 0.789073 0.778199 0.168307
H2    H     H_    0.869723 0.193420 0.238589 0.164729
H3    H     H_    0.194597 0.131377 0.763248 0.169132
H4    H     H_    0.788873 0.853144 0.221824 0.168505
H5    H     H_    0.837089 0.228214 0.786130 0.166138
H6    H     H_    0.131272 0.805404 0.236780 0.169057
H7    H     H_    0.806565 0.869799 0.761408 0.164694
H8    H     H_    0.227921 0.163003 0.213869 0.165928
H9    H     H_    0.630277 0.306578 0.261411 0.164746
H10   H     H_    0.353026 0.710927 0.721802 0.168585
H11   H     H_    0.711127 0.646856 0.278176 0.168561
H12   H     H_    0.305403 0.368621 0.736750 0.169104
H13   H     H_    0.368728 0.694597 0.263221 0.169031
H14   H     H_    0.662911 0.271787 0.713870 0.166442
H15   H     H_    0.272079 0.336997 0.286130 0.166099
H16   H     H_    0.693436 0.630202 0.738591 0.164688
H17   H     H_    0.296597 0.766827 0.794744 0.160492
H18   H     H_    0.741061 0.196926 0.205895 0.166094
H19   H     H_    0.201199 0.262697 0.794602 0.161034
H20   H     H_    0.766597 0.703586 0.205243 0.160693
H21   H     H_    0.681814 0.253746 0.791489 0.160856
H22   H     H_    0.262381 0.798921 0.205398 0.160774
H23   H     H_    0.803144 0.741319 0.794109 0.165906
H24   H     H_    0.253492 0.318288 0.208515 0.160715
H25   H     H_    0.758938 0.303074 0.294105 0.166017
H26   H     H_    0.203403 0.733173 0.705256 0.160855
H27   H     H_    0.733404 0.796414 0.294757 0.161009
H28   H     H_    0.298802 0.237301 0.705397 0.160426
H29   H     H_    0.237619 0.701079 0.294603 0.160568
H30   H     H_    0.818186 0.246255 0.708511 0.161010
H31   H     H_    0.246507 0.181712 0.291484 0.161114
H32   H     H_    0.696856 0.758682 0.705890 0.165502
H33   H     H_    0.880512 0.501041 0.647465 0.178744
H34   H     H_    0.119490 0.499650 0.352537 0.175589
H35   H     H_    0.509689 0.881444 0.647210 0.175348
H36   H     H_    0.508773 0.118625 0.352805 0.178448
H37   H     H_    0.118302 0.499138 0.646947 0.177194
H38   H     H_    0.881694 0.500465 0.353053 0.175672
H39   H     H_    0.490292 0.118438 0.647218 0.174714
H40   H     H_    0.491275 0.881480 0.352774 0.177598
H41   H     H_    0.380509 0.999819 0.147463 0.175560
H42   H     H_    0.619491 0.999571 0.852535 0.178709
H43   H     H_    0.999068 0.380580 0.147478 0.178747
H44   H     H_    0.000388 0.619421 0.852524 0.176345
H45   H     H_    0.618307 0.000086 0.146947 0.175641
H46   H     H_    0.381695 0.000293 0.853052 0.177159
H47   H     H_    0.000842 0.618368 0.146935 0.177160
H48   H     H_    0.999617 0.381626 0.853065 0.174888
N1    N     N_R   0.502682 0.999875 0.932117 -0.339037
N2    N     N_R   0.497327 0.999891 0.067881 -0.339044
N3    N     N_R   0.000004 0.502531 0.932118 -0.339037
N4    N     N_R   0.999926 0.497458 0.067884 -0.339035
N5    N     N_R   0.002674 0.500127 0.432119 -0.339067
N6    N     N_R   0.997319 0.500187 0.567883 -0.339062
N7    N     N_R   0.500045 0.000103 0.432117 -0.339162
N8    N     N_R   0.500006 0.999869 0.567885 -0.339182
O1    O     O_3   0.000000 0.500000 0.750000 -0.496613
O2    O     O_3   0.000000 0.500000 0.250000 -0.496614
O3    O     O_3   0.500000 0.000000 0.750000 -0.496649
O4    O     O_3   0.500000 0.000000 0.250000 -0.496624
O5    O     O_R   0.000220 0.561630 0.808380 -0.648616
O6    O     O_R   0.999780 0.438370 0.191620 -0.645000
O7    O     O_R   0.438370 0.000220 0.808380 -0.645945
O8    O     O_R   0.561630 0.999780 0.191620 -0.647456
O9    O     O_R   0.999780 0.438370 0.808380 -0.649440
O10   O     O_R   0.000220 0.561630 0.191620 -0.646000
O11   O     O_R   0.561630 0.999780 0.808380 -0.645049
O12   O     O_R   0.438370 0.000220 0.191620 -0.650575
O13   O     O_R   0.500220 0.061630 0.308380 -0.644427
O14   O     O_R   0.499780 0.938370 0.691620 -0.647939
O15   O     O_R   0.938370 0.500220 0.308380 -0.647450
O16   O     O_R   0.061630 0.499780 0.691620 -0.645934
O17   O     O_R   0.499780 0.938370 0.308380 -0.646393
O18   O     O_R   0.500220 0.061630 0.691620 -0.649723
O19   O     O_R   0.061630 0.499780 0.308380 -0.650561
O20   O     O_R   0.938370 0.500220 0.691620 -0.645040
O21   O     O_R   0.086770 0.352080 0.765560 -0.642665
O22   O     O_R   0.913230 0.647920 0.234440 -0.627072
O23   O     O_R   0.647920 0.086770 0.765560 -0.619827
O24   O     O_R   0.352080 0.913230 0.234440 -0.642900
O25   O     O_R   0.913230 0.647920 0.765560 -0.647885
O26   O     O_R   0.086770 0.352080 0.234440 -0.619615
O27   O     O_R   0.352080 0.913230 0.765560 -0.627005
O28   O     O_R   0.647920 0.086770 0.234440 -0.647641
O29   O     O_R   0.586770 0.852080 0.265560 -0.626839
O30   O     O_R   0.413230 0.147920 0.734440 -0.643014
O31   O     O_R   0.147920 0.586770 0.265560 -0.642965
O32   O     O_R   0.852080 0.413230 0.734440 -0.619732
O33   O     O_R   0.413230 0.147920 0.265560 -0.619261
O34   O     O_R   0.586770 0.852080 0.734440 -0.648136
O35   O     O_R   0.852080 0.413230 0.265560 -0.647652
O36   O     O_R   0.147920 0.586770 0.734440 -0.626854
O37   O     O_R   0.852120 0.586630 0.735130 -0.632945
O38   O     O_R   0.147880 0.413370 0.264870 -0.657942
O39   O     O_R   0.413370 0.852120 0.735130 -0.653150
O40   O     O_R   0.586630 0.147880 0.264870 -0.633173
O41   O     O_R   0.147880 0.413370 0.735130 -0.638093
O42   O     O_R   0.852120 0.586630 0.264870 -0.653292
O43   O     O_R   0.586630 0.147880 0.735130 -0.657466
O44   O     O_R   0.413370 0.852120 0.264870 -0.638308
O45   O     O_R   0.352120 0.086630 0.235130 -0.658021
O46   O     O_R   0.647880 0.913370 0.764870 -0.632883
O47   O     O_R   0.913370 0.352120 0.235130 -0.632969
O48   O     O_R   0.086630 0.647880 0.764870 -0.653558
O49   O     O_R   0.647880 0.913370 0.235130 -0.653320
O50   O     O_R   0.352120 0.086630 0.764870 -0.637980
O51   O     O_R   0.086630 0.647880 0.235130 -0.638002
O52   O     O_R   0.913370 0.352120 0.764870 -0.657757
O53   O     O_2   0.497988 0.871500 0.930771 -0.571426
O54   O     O_2   0.501862 0.128272 0.069227 -0.571778
O55   O     O_2   0.128358 0.497281 0.930858 -0.571619
O56   O     O_2   0.871577 0.502872 0.069142 -0.570961
O57   O     O_2   0.498223 0.128258 0.930817 -0.571080
O58   O     O_2   0.501947 0.871514 0.069180 -0.571469
O59   O     O_2   0.871601 0.498602 0.930736 -0.571684
O60   O     O_2   0.128332 0.501224 0.069268 -0.571542
O61   O     O_2   0.997372 0.371777 0.430772 -0.571602
O62   O     O_2   0.002770 0.628532 0.569230 -0.571063
O63   O     O_2   0.628132 0.989059 0.430994 -0.569715
O64   O     O_2   0.372071 0.987230 0.569004 -0.570179
O65   O     O_2   0.998825 0.628530 0.430821 -0.571555
O66   O     O_2   0.001019 0.371780 0.569182 -0.571323
O67   O     O_2   0.371960 0.011169 0.430881 -0.570240
O68   O     O_2   0.627943 0.012484 0.569135 -0.570479
Zn1   Zn    Zn3+2 0.088070 0.500110 0.728590 0.996231
Zn2   Zn    Zn3+2 0.911930 0.499890 0.271410 0.975324
Zn3   Zn    Zn3+2 0.499890 0.088070 0.728590 0.973496
Zn4   Zn    Zn3+2 0.500110 0.911930 0.271410 0.996002
Zn5   Zn    Zn3+2 0.911930 0.499890 0.728590 1.001095
Zn6   Zn    Zn3+2 0.088070 0.500110 0.271410 0.973255
Zn7   Zn    Zn3+2 0.500110 0.911930 0.728590 0.975217
Zn8   Zn    Zn3+2 0.499890 0.088070 0.271410 1.001330
Zn9   Zn    Zn3+2 0.588070 0.000110 0.228590 0.975285
Zn10  Zn    Zn3+2 0.411930 0.999890 0.771410 0.996178
Zn11  Zn    Zn3+2 0.999890 0.588070 0.228590 0.996204
Zn12  Zn    Zn3+2 0.000110 0.411930 0.771410 0.973629
Zn13  Zn    Zn3+2 0.411930 0.999890 0.228590 0.973215
Zn14  Zn    Zn3+2 0.588070 0.000110 0.771410 1.001041
Zn15  Zn    Zn3+2 0.000110 0.411930 0.228590 1.001056
Zn16  Zn    Zn3+2 0.999890 0.588070 0.771410 0.974866
O69   O     O_3   0.198421 0.882328 0.732555 -0.613485
C193  C     C_3   0.123321 0.878302 0.725418 0.110708
H49   H     H_    0.088284 0.864354 0.742507 0.146208
H50   H     H_    0.114447 0.836700 0.709765 0.136767
C194  C     C_3   0.099133 0.953116 0.715107 -0.848653
H51   H     H_    0.132952 0.968318 0.697915 0.259735
H52   H     H_    0.040152 0.951112 0.709255 0.214549
H53   H     H_    0.106254 0.995745 0.730444 0.254613
O70   O     O_3   0.776938 0.139340 0.284593 -0.616497
C195  C     C_3   0.847197 0.146166 0.296177 0.088548
H54   H     H_    0.854454 0.201312 0.305467 0.140621
H55   H     H_    0.891263 0.137442 0.281454 0.144932
C196  C     C_3   0.855482 0.087412 0.317104 -0.806004
H56   H     H_    0.846423 0.031738 0.308606 0.249399
H57   H     H_    0.911895 0.089888 0.325576 0.208760
H58   H     H_    0.814373 0.096794 0.332784 0.264178
O71   O     O_3   0.134261 0.218437 0.717984 -0.617699
C197  C     C_3   0.148811 0.156914 0.701983 0.088405
H59   H     H_    0.168099 0.108609 0.713550 0.138701
H60   H     H_    0.191196 0.171129 0.687155 0.149183
C198  C     C_3   0.078185 0.135116 0.687874 -0.812028
H61   H     H_    0.057535 0.182252 0.676107 0.264408
H62   H     H_    0.089144 0.087678 0.674735 0.212755
H63   H     H_    0.035209 0.118964 0.702178 0.252495
O72   O     O_3   0.882413 0.801565 0.267447 -0.613536
C199  C     C_3   0.878405 0.876636 0.274601 0.110662
H64   H     H_    0.836887 0.885440 0.290258 0.136790
H65   H     H_    0.864351 0.911731 0.257520 0.146272
C200  C     C_3   0.953272 0.900806 0.284914 -0.848653
H66   H     H_    0.995821 0.893745 0.269575 0.254625
H67   H     H_    0.951289 0.959766 0.290775 0.214550
H68   H     H_    0.968577 0.866934 0.302100 0.259704
O73   O     O_3   0.809690 0.112990 0.743623 -0.611294
C201  C     C_3   0.887470 0.115269 0.744924 0.123176
H69   H     H_    0.905991 0.130483 0.764866 0.147411
H70   H     H_    0.910698 0.155214 0.730620 0.140044
C202  C     C_3   0.918130 0.039166 0.738714 -0.855705
H71   H     H_    0.904739 0.024088 0.718300 0.248109
H72   H     H_    0.978991 0.039592 0.741215 0.214865
H73   H     H_    0.894134 0.997386 0.752076 0.258622
O74   O     O_3   0.218629 0.865646 0.282031 -0.617858
C203  C     C_3   0.157185 0.851061 0.298030 0.088262
H74   H     H_    0.171467 0.808625 0.312852 0.149146
H75   H     H_    0.108813 0.831823 0.286461 0.138844
C204  C     C_3   0.135477 0.921647 0.312150 -0.812384
H76   H     H_    0.119261 0.964672 0.297851 0.252605
H77   H     H_    0.088101 0.910657 0.325286 0.212804
H78   H     H_    0.182678 0.942247 0.323920 0.264201
O75   O     O_3   0.860606 0.776774 0.715414 -0.616364
C205  C     C_3   0.853762 0.846978 0.703834 0.088548
H79   H     H_    0.862523 0.891112 0.718559 0.144964
H80   H     H_    0.798596 0.854196 0.694545 0.140174
C206  C     C_3   0.912473 0.855157 0.682905 -0.806342
H81   H     H_    0.903054 0.813974 0.667224 0.264221
H82   H     H_    0.909981 0.911529 0.674437 0.208662
H83   H     H_    0.968164 0.846138 0.691403 0.249490
O76   O     O_3   0.113009 0.190358 0.256405 -0.611299
C207  C     C_3   0.115250 0.112580 0.255104 0.123092
H84   H     H_    0.155287 0.089309 0.269400 0.140022
H85   H     H_    0.130318 0.094093 0.235159 0.147348
C208  C     C_3   0.039180 0.081935 0.261331 -0.855670
H86   H     H_    0.997317 0.105961 0.247976 0.258602
H87   H     H_    0.039572 0.021078 0.258836 0.214849
H88   H     H_    0.024245 0.095302 0.281747 0.248130
O77   O     O_3   0.723061 0.360659 0.215408 -0.616347
C209  C     C_3   0.652798 0.353838 0.203826 0.088619
H89   H     H_    0.608738 0.362567 0.218550 0.144852
H90   H     H_    0.645534 0.298692 0.194537 0.140636
C210  C     C_3   0.644511 0.412591 0.182899 -0.805707
H91   H     H_    0.685612 0.403203 0.167217 0.264487
H92   H     H_    0.588094 0.410120 0.174430 0.208634
H93   H     H_    0.653579 0.468264 0.191396 0.249297
O78   O     O_3   0.301580 0.617672 0.767445 -0.613549
C211  C     C_3   0.376679 0.621699 0.774584 0.110609
H94   H     H_    0.385548 0.663298 0.790239 0.136603
H95   H     H_    0.411717 0.635653 0.757495 0.146308
C212  C     C_3   0.400868 0.546884 0.784893 -0.848827
H96   H     H_    0.393751 0.504258 0.769554 0.254679
H97   H     H_    0.459849 0.548888 0.790745 0.214562
H98   H     H_    0.367048 0.531676 0.802084 0.259650
O79   O     O_3   0.617588 0.698434 0.232553 -0.613538
C213  C     C_3   0.621597 0.623364 0.225399 0.110665
H99   H     H_    0.635654 0.588268 0.242479 0.146292
H100  H     H_    0.663113 0.614562 0.209741 0.136700
C214  C     C_3   0.546730 0.599193 0.215087 -0.848711
H101  H     H_    0.531422 0.633066 0.197901 0.259695
H102  H     H_    0.548713 0.540233 0.209225 0.214539
H103  H     H_    0.504182 0.606252 0.230427 0.254640
O80   O     O_3   0.365739 0.281560 0.782014 -0.617733
C215  C     C_3   0.351195 0.343088 0.798013 0.088591
H104  H     H_    0.308808 0.328880 0.812842 0.149824
H105  H     H_    0.331912 0.391392 0.786445 0.138625
C216  C     C_3   0.421823 0.364882 0.812123 -0.811639
H106  H     H_    0.464800 0.381028 0.797818 0.252345
H107  H     H_    0.410867 0.412324 0.825260 0.212854
H108  H     H_    0.442468 0.317746 0.823890 0.264493
O81   O     O_3   0.281371 0.634354 0.217970 -0.617771
C217  C     C_3   0.342821 0.648936 0.201973 0.088599
H109  H     H_    0.391190 0.668172 0.213544 0.138675
H110  H     H_    0.328545 0.691372 0.187151 0.149537
C218  C     C_3   0.364530 0.578349 0.187855 -0.812016
H111  H     H_    0.317330 0.557749 0.176084 0.264401
H112  H     H_    0.411908 0.589336 0.174720 0.212833
H113  H     H_    0.380742 0.535325 0.202155 0.252411
O82   O     O_3   0.690310 0.387010 0.756377 -0.611313
C219  C     C_3   0.612530 0.384732 0.755076 0.123143
H114  H     H_    0.589301 0.344787 0.769380 0.140014
H115  H     H_    0.594010 0.369518 0.735134 0.147472
C220  C     C_3   0.581871 0.460835 0.761286 -0.855692
H116  H     H_    0.605868 0.502615 0.747924 0.258648
H117  H     H_    0.521010 0.460409 0.758784 0.214875
H118  H     H_    0.595260 0.475913 0.781700 0.248073
O83   O     O_3   0.386991 0.309643 0.243594 -0.611313
C221  C     C_3   0.384749 0.387421 0.244895 0.123093
H119  H     H_    0.369679 0.405908 0.264840 0.147430
H120  H     H_    0.344714 0.410691 0.230599 0.139946
C222  C     C_3   0.460820 0.418065 0.238669 -0.855695
H121  H     H_    0.475758 0.404698 0.218253 0.248069
H122  H     H_    0.460428 0.478922 0.241165 0.214857
H123  H     H_    0.502682 0.394039 0.252026 0.258644
O84   O     O_3   0.639394 0.723229 0.784586 -0.616365
C223  C     C_3   0.646232 0.653021 0.796163 0.088677
H124  H     H_    0.701398 0.645796 0.805451 0.140502
H125  H     H_    0.637465 0.608892 0.781437 0.144888
C224  C     C_3   0.587521 0.644842 0.817092 -0.806190
H126  H     H_    0.531830 0.653868 0.808595 0.249348
H127  H     H_    0.590009 0.588469 0.825559 0.208679
H128  H     H_    0.596944 0.686022 0.832774 0.264356
C225  C     C_3   0.531062 0.207039 0.973601 -0.789083
H129  H     H_    0.578340 0.196750 0.960342 0.258605
H130  H     H_    0.484136 0.232224 0.962874 0.267000
H131  H     H_    0.552488 0.247883 0.987836 0.217412
C226  C     C_3   0.469006 0.792725 0.026404 -0.789529
H132  H     H_    0.421758 0.803011 0.039677 0.258333
H133  H     H_    0.447547 0.751883 0.012174 0.217454
H134  H     H_    0.515956 0.767539 0.037117 0.267125
C227  C     C_3   0.793008 0.532195 0.973437 -0.790084
H135  H     H_    0.803597 0.579330 0.960139 0.258103
H136  H     H_    0.767517 0.485374 0.962739 0.267011
H137  H     H_    0.752308 0.553965 0.987627 0.217544
C228  C     C_3   0.206921 0.467750 0.026558 -0.790009
H138  H     H_    0.196334 0.420582 0.039841 0.258263
H139  H     H_    0.247628 0.446019 0.012363 0.217499
H140  H     H_    0.232405 0.514548 0.037271 0.266904
C229  C     C_3   0.530999 0.792723 0.973513 -0.790047
H141  H     H_    0.484045 0.767519 0.962798 0.266964
H142  H     H_    0.578229 0.803015 0.960237 0.258182
H143  H     H_    0.552484 0.751896 0.987727 0.217539
C230  C     C_3   0.468963 0.207041 0.026477 -0.789956
H144  H     H_    0.515892 0.232242 0.037206 0.266911
H145  H     H_    0.447513 0.247872 0.012257 0.217489
H146  H     H_    0.421699 0.196749 0.039738 0.258286
C231  C     C_3   0.207323 0.529719 0.973649 -0.789249
H147  H     H_    0.232222 0.482618 0.962953 0.266925
H148  H     H_    0.197332 0.577032 0.960363 0.258645
H149  H     H_    0.248295 0.550922 0.987885 0.217406
C232  C     C_3   0.792604 0.470326 0.026360 -0.789188
H150  H     H_    0.767705 0.517453 0.037042 0.267097
H151  H     H_    0.751634 0.449092 0.012129 0.217422
H152  H     H_    0.802593 0.423045 0.039660 0.258502
C233  C     C_3   0.032362 0.707102 0.473593 -0.790150
H153  H     H_    0.079523 0.696493 0.460313 0.257816
H154  H     H_    0.985580 0.732618 0.462886 0.267327
H155  H     H_    0.054119 0.747788 0.487822 0.217554
C234  C     C_3   0.967582 0.293216 0.526403 -0.788959
H156  H     H_    0.920394 0.303826 0.539670 0.258836
H157  H     H_    0.945853 0.252526 0.512169 0.217426
H158  H     H_    0.014344 0.267701 0.537121 0.266688
C235  C     C_3   0.293044 0.970937 0.472954 -0.791614
H159  H     H_    0.267421 0.019197 0.463145 0.267288
H160  H     H_    0.303632 0.925865 0.458778 0.256665
H161  H     H_    0.252502 0.947079 0.486772 0.218129
C236  C     C_3   0.707417 0.973728 0.527015 -0.791396
H162  H     H_    0.697504 0.928397 0.541131 0.256737
H163  H     H_    0.748333 0.950594 0.513173 0.218153
H164  H     H_    0.732298 0.022303 0.536888 0.267291
C237  C     C_3   0.029669 0.292786 0.473526 -0.788847
H165  H     H_    0.982576 0.267917 0.462790 0.266690
H166  H     H_    0.077018 0.302748 0.460272 0.258883
H167  H     H_    0.050815 0.251798 0.487746 0.217438
C238  C     C_3   0.970360 0.707529 0.526483 -0.789699
H168  H     H_    0.017472 0.732404 0.537207 0.267277
H169  H     H_    0.949180 0.748512 0.512268 0.217559
H170  H     H_    0.923041 0.697563 0.539750 0.258023
C239  C     C_3   0.707035 0.029062 0.473182 -0.790683
H171  H     H_    0.732637 0.980834 0.463351 0.267410
H172  H     H_    0.696476 0.074205 0.459040 0.257006
H173  H     H_    0.747584 0.052834 0.487062 0.218019
C240  C     C_3   0.292607 0.026057 0.526836 -0.790875
H174  H     H_    0.302492 0.071355 0.540995 0.256914
H175  H     H_    0.251679 0.049206 0.512973 0.218067
H176  H     H_    0.267752 0.977441 0.536650 0.267426
C241  C     C_3   0.858290 0.501308 0.595453 -0.885539
H177  H     H_    0.854520 0.551351 0.583046 0.249712
H178  H     H_    0.853726 0.451388 0.582998 0.249905
H179  H     H_    0.810776 0.501656 0.609103 0.237421
C242  C     C_3   0.141709 0.499633 0.404550 -0.888686
H180  H     H_    0.146067 0.549629 0.416976 0.249527
H181  H     H_    0.145686 0.449665 0.416986 0.250662
H182  H     H_    0.189226 0.499421 0.390901 0.236209
C243  C     C_3   0.511644 0.860437 0.595110 -0.880027
H183  H     H_    0.462367 0.852550 0.582534 0.257012
H184  H     H_    0.562003 0.860567 0.582807 0.247509
H185  H     H_    0.515243 0.812764 0.608646 0.234782
C244  C     C_3   0.510509 0.139636 0.404906 -0.878022
H186  H     H_    0.461179 0.147066 0.417446 0.255827
H187  H     H_    0.560884 0.139963 0.417245 0.248196
H188  H     H_    0.513651 0.187345 0.391374 0.235719
C245  C     C_3   0.138151 0.499076 0.594776 -0.870481
H189  H     H_    0.141395 0.449085 0.582314 0.254733
H190  H     H_    0.142164 0.549030 0.582344 0.255129
H191  H     H_    0.186273 0.498696 0.608203 0.233311
C246  C     C_3   0.861841 0.500640 0.405224 -0.871389
H192  H     H_    0.858008 0.450684 0.417662 0.254615
H193  H     H_    0.858415 0.550632 0.417680 0.255533
H194  H     H_    0.813719 0.500831 0.391797 0.232884
C247  C     C_3   0.488346 0.139343 0.595122 -0.881278
H195  H     H_    0.537627 0.147207 0.582594 0.256809
H196  H     H_    0.437991 0.139191 0.582772 0.247824
H197  H     H_    0.484744 0.187041 0.608663 0.234413
C248  C     C_3   0.489588 0.860542 0.404865 -0.879130
H198  H     H_    0.538926 0.853131 0.417444 0.256302
H199  H     H_    0.439220 0.860227 0.417163 0.247811
H200  H     H_    0.486440 0.812815 0.391320 0.235318
C249  C     C_3   0.358292 0.999740 0.095449 -0.889031
H201  H     H_    0.354074 0.049700 0.083019 0.250221
H202  H     H_    0.354178 0.949734 0.083018 0.249928
H203  H     H_    0.310775 0.999710 0.109099 0.236177
C250  C     C_3   0.641714 0.999455 0.904547 -0.885875
H204  H     H_    0.646016 0.049400 0.917001 0.249697
H205  H     H_    0.645745 0.949435 0.916955 0.249883
H206  H     H_    0.689229 0.999353 0.890897 0.237384
C251  C     C_3   0.998877 0.358411 0.095470 -0.885927
H207  H     H_    0.948851 0.354623 0.083024 0.250154
H208  H     H_    0.048815 0.353888 0.083056 0.249388
H209  H     H_    0.998540 0.310884 0.109126 0.237400
C252  C     C_3   0.000473 0.641585 0.904533 -0.887801
H210  H     H_    0.950492 0.645920 0.916934 0.249625
H211  H     H_    0.050458 0.645559 0.916992 0.250340
H212  H     H_    0.000658 0.689114 0.890877 0.236610
C253  C     C_3   0.638159 0.000047 0.094777 -0.871708
H213  H     H_    0.641836 0.950072 0.082321 0.255452
H214  H     H_    0.641742 0.050021 0.082337 0.254656
H215  H     H_    0.686282 0.000098 0.108204 0.232852
C254  C     C_3   0.361847 0.000257 0.905223 -0.870835
H216  H     H_    0.358100 0.950289 0.917660 0.254555
H217  H     H_    0.358338 0.050237 0.917682 0.255263
H218  H     H_    0.313723 0.000374 0.891797 0.233275
C255  C     C_3   0.000954 0.638268 0.094760 -0.870773
H219  H     H_    0.050957 0.641548 0.082336 0.254870
H220  H     H_    0.951009 0.642267 0.082289 0.254980
H221  H     H_    0.001299 0.686377 0.108181 0.233263
C256  C     C_3   0.999522 0.361721 0.905240 -0.872884
H222  H     H_    0.049492 0.357891 0.917705 0.255069
H223  H     H_    0.949543 0.358268 0.917670 0.255202
H224  H     H_    0.999331 0.313612 0.891819 0.232428

loop_
_geom_bond_atom_site_label_1
_geom_bond_atom_site_label_2
_ccdc_geom_bond_type
C98   C121  S    
C5    O17   A    
O72   C199  S    
C37   C69   A    
C24   C184  A    
C18   C21   A    
C256  H222  S    
C163  N7    A    
C102  C125  S    
C117  C133  S    
C42   C58   A    
C194  H51   S    
C12   C172  A    
O69   C193  S    
C228  H140  S    
C11   C171  A    
C79   C121  S    
C45   C57   A    
C205  H79   S    
C45   H37   S    
C11   C227  S    
C81   O29   A    
C83   O31   A    
C69   N2    S    
C98   C114  S    
C130  C146  S    
C153  C173  A    
C80   O28   A    
C226  H134  S    
C76   C126  S    
C199  C200  S    
C51   H43   S    
C248  H198  S    
C114  C137  S    
C230  H145  S    
C204  H78   S    
C29   C245  S    
C213  C214  S    
C90   C138  S    
C9    C169  A    
C165  O65   S    
C13   C229  S    
C250  H205  S    
C32   C248  S    
C8    O16   A    
C129  C145  S    
C5    O13   A    
O19   Zn6   S    
C33   C69   A    
O4    Zn13  S    
O40   Zn8   S    
C202  H73   S    
C225  H130  S    
C35   C71   A    
C4    O12   A    
C85   O33   A    
C213  H100  S    
C114  C130  S    
C72   N3    S    
O33   Zn8   S    
O2    Zn6   S    
C2    O6    A    
C198  H62   S    
C113  O77   S    
C176  C188  A    
C96   C135  S    
C200  H68   S    
C80   O40   A    
C21   C237  S    
C191  C192  A    
C140  H20   S    
C91   C107  S    
C177  C189  A    
C54   H46   S    
C36   C252  S    
C25   C41   A    
C237  H166  S    
C195  H54   S    
C160  O60   S    
C252  H212  S    
C207  H85   S    
C249  H201  S    
C4    C61   S    
C28   C44   A    
C29   C45   A    
C244  H188  S    
C94   C142  S    
O2    Zn15  S    
C253  H215  S    
C13   C173  A    
O83   C221  S    
C218  H111  S    
C8    C57   S    
C96   C144  S    
C91   H3    S    
C218  H113  S    
C89   H1    S    
C39   C255  S    
C112  C151  S    
C133  C149  S    
C127  C143  S    
C196  H58   S    
C128  C144  S    
O38   Zn6   S    
C242  H181  S    
C253  H213  S    
C243  H184  S    
C35   C51   A    
O75   C205  S    
C224  H128  S    
C211  H95   S    
O28   Zn9   S    
C19   C179  A    
C194  H53   S    
C52   H44   S    
C143  H23   S    
C227  H137  S    
C17   C177  A    
O45   Zn13  S    
C34   C250  S    
C221  H120  S    
C97   C145  S    
C56   H48   S    
C77   O37   A    
C92   H4    S    
C195  C196  S    
C82   O50   A    
C245  H191  S    
C208  H86   S    
C104  C152  S    
C117  C142  S    
C228  H138  S    
C99   C147  S    
C247  H196  S    
O78   C211  S    
C15   C231  S    
C107  C148  S    
C193  C194  S    
C239  H171  S    
C3    O11   A    
C105  C146  S    
O76   C207  S    
C162  O62   S    
C255  H219  S    
C217  H110  S    
C220  H117  S    
C47   C59   A    
C146  H26   S    
C31   C247  S    
C179  C191  A    
C229  H142  S    
C200  H66   S    
C155  O55   S    
C39   C71   A    
C156  O56   S    
C182  C190  A    
C238  H169  S    
C212  H96   S    
O73   C201  S    
O3    Zn3   S    
C105  O69   S    
C206  H82   S    
C25   C65   A    
C101  C126  S    
C65   N6    S    
O71   C197  S    
C153  N1    A    
C35   C251  S    
C33   C249  S    
O22   Zn11  S    
C10   C226  S    
O42   Zn2   S    
C246  H194  S    
C210  H91   S    
C74   O22   A    
O81   C217  S    
C23   C183  A    
C173  C185  A    
C231  H147  S    
O34   Zn7   S    
O31   Zn6   S    
C28   C68   A    
C103  H15   S    
C71   N4    S    
C108  O72   S    
O1    Zn1   S    
C167  N7    A    
C116  O80   S    
C81   C131  S    
C123  C139  S    
C12   C228  S    
C19   C235  S    
C253  H214  S    
C158  N2    A    
C121  C137  S    
C203  H74   S    
C156  N4    A    
C219  H114  S    
C90   C129  S    
C53   C61   A    
C92   C108  S    
C119  O83   S    
C125  C141  S    
C73   C123  S    
C55   C63   A    
C6    O18   A    
C26   C242  S    
C56   C64   A    
C7    O15   A    
C223  H124  S    
C168  O68   S    
C221  C222  S    
C43   C59   A    
O16   Zn1   S    
C37   C53   A    
C9    C225  S    
C235  H159  S    
C46   C58   A    
C20   C236  S    
C82   O30   A    
C227  H135  S    
C88   O36   A    
C214  H102  S    
C246  H192  S    
C203  H75   S    
C42   H34   S    
C158  O58   S    
C208  H88   S    
C236  H163  S    
C154  C174  A    
O24   Zn13  S    
C26   C66   A    
C27   C243  S    
C53   H45   S    
C144  H24   S    
C193  H49   S    
C158  C170  A    
C114  O78   S    
C222  H122  S    
C166  O66   S    
C138  H18   S    
O48   Zn16  S    
C234  H157  S    
C203  C204  S    
C17   C233  S    
C255  H221  S    
C93   H5    S    
C118  O82   S    
O15   Zn2   S    
C161  N5    A    
C245  H189  S    
C102  H14   S    
C116  C132  S    
C20   C23   A    
C112  O76   S    
C85   O45   A    
C106  C122  S    
C223  C224  S    
C230  H144  S    
C86   O34   A    
C6    O14   A    
C160  N4    A    
C212  H98   S    
C199  H65   S    
C232  H151  S    
C201  C202  S    
C115  O79   S    
C29   C65   A    
C110  C126  S    
C215  H104  S    
C209  H90   S    
C233  H155  S    
C23   C239  S    
C1    C64   S    
C210  H93   S    
C2    C63   S    
C26   C42   A    
O49   Zn9   S    
C3    C62   S    
C86   C136  S    
C96   H8    S    
C224  H126  S    
C79   O27   A    
C40   C72   A    
C5    C60   S    
C99   H11   S    
C113  C138  S    
C6    C59   S    
C30   C46   A    
C97   H9    S    
C107  O71   S    
C111  O75   S    
O43   Zn3   S    
C164  O64   S    
O21   Zn12  S    
C244  H187  S    
C36   C52   A    
C87   C129  S    
C241  H178  S    
C109  C150  S    
C22   C182  A    
O77   C209  S    
C161  O61   S    
O3    Zn7   S    
C84   O32   A    
C95   C136  S    
C246  H193  S    
C151  H31   S    
C161  C181  A    
C28   C244  S    
C76   O44   A    
C27   C67   A    
C175  C187  A    
C153  O53   S    
C18   C178  A    
C215  C216  S    
C25   C241  S    
C222  H121  S    
C235  H161  S    
C89   C105  S    
C2    O10   A    
C78   O26   A    
O27   Zn10  S    
C157  O57   S    
C233  H153  S    
C229  H143  S    
C78   O38   A    
O82   C219  S    
C36   C72   A    
C159  O59   S    
C99   C124  S    
C202  H72   S    
C155  N3    A    
C74   C124  S    
C38   C70   A    
O5    Zn16  S    
C95   C143  S    
O79   C213  S    
C109  O73   S    
O17   Zn4   S    
C216  H107  S    
O18   Zn3   S    
C100  C116  S    
C107  C123  S    
C118  C141  S    
C78   C128  S    
C111  C152  S    
C120  O84   S    
O26   Zn15  S    
C80   C122  S    
C200  H67   S    
C84   C134  S    
O80   C215  S    
C106  C145  S    
C159  C171  A    
C242  H182  S    
C18   C234  S    
C108  C124  S    
C231  H149  S    
C70   N1    S    
C99   C115  S    
C237  H165  S    
C178  C190  A    
C195  H55   S    
C225  H131  S    
C33   C49   A    
O4    Zn4   S    
C230  H146  S    
C165  C177  A    
C117  O81   S    
C50   H42   S    
O11   Zn14  S    
C201  H69   S    
O29   Zn4   S    
C136  C152  S    
O30   Zn3   S    
C181  C189  A    
C94   H6    S    
C39   C55   A    
C254  H217  S    
O25   Zn16  S    
C184  C192  A    
C166  C178  A    
O47   Zn15  S    
C196  H57   S    
C34   C70   A    
C103  C151  S    
C116  C139  S    
O36   Zn1   S    
C16   C176  A    
C249  H202  S    
C216  H106  S    
C31   C47   A    
C243  H183  S    
C119  C144  S    
C248  H199  S    
O4    Zn8   S    
C232  H152  S    
C120  C143  S    
C16   C232  S    
O1    Zn5   S    
C194  H52   S    
C1    O5    A    
O2    Zn2   S    
C1    O9    A    
C197  H59   S    
C227  H136  S    
C41   H33   S    
C49   C61   A    
C51   C63   A    
C142  H22   S    
C4    O8    A    
C52   C64   A    
C91   C132  S    
C54   C62   A    
C205  C206  S    
C251  H207  S    
C163  C183  A    
C126  C142  S    
C119  C135  S    
C89   C130  S    
C90   C106  S    
C183  C191  A    
C120  C136  S    
C219  C220  S    
O39   Zn7   S    
C9    C14   A    
O1    Zn12  S    
C229  H141  S    
C77   O25   A    
C208  H87   S    
C11   C16   A    
C90   H2    S    
C38   C254  S    
C250  H206  S    
C170  C186  A    
C197  H60   S    
C148  H28   S    
C79   O39   A    
C122  C138  S    
O12   Zn13  S    
C150  H30   S    
O32   Zn5   S    
C102  C150  S    
C91   C139  S    
O14   Zn7   S    
C167  C179  A    
C89   C137  S    
C152  H32   S    
C213  H99   S    
C249  H203  S    
C228  H139  S    
C163  O63   S    
O10   Zn11  S    
C92   C140  S    
C198  H63   S    
C93   C141  S    
C251  H209  S    
C239  H172  S    
C206  H81   S    
O46   Zn14  S    
C155  C175  A    
O8    Zn9   S    
C156  C176  A    
O51   Zn11  S    
C252  H211  S    
C30   C246  S    
C46   H38   S    
C124  C140  S    
C220  H118  S    
C237  H167  S    
C37   C253  S    
C207  H84   S    
C15   C175  A    
O6    Zn15  S    
C10   C170  A    
C95   C111  S    
C17   C22   A    
C86   O46   A    
C100  C123  S    
C101  C117  S    
C234  H158  S    
C19   C24   A    
C41   C57   A    
C187  C188  A    
C14   C174  A    
C168  C180  A    
C7    O19   A    
C100  H12   S    
C185  C186  A    
C32   C48   A    
C104  C127  S    
C75   O23   A    
C44   C60   A    
C135  C151  S    
C76   O24   A    
C94   C110  S    
O52   Zn12  S    
C104  H16   S    
C22   C238  S    
C189  C190  A    
C87   O35   A    
C112  C128  S    
C77   C127  S    
C31   C67   A    
C166  N6    A    
C27   C43   A    
C145  H25   S    
C115  C140  S    
C14   C230  S    
O41   Zn1   S    
C243  H185  S    
C137  H17   S    
C106  O70   S    
C154  O54   S    
C211  H94   S    
C223  H125  S    
C75   C125  S    
O44   Zn4   S    
C104  C120  S    
C66   N5    S    
C154  N2    A    
C221  H119  S    
C157  C169  A    
C88   C130  S    
C8    O20   A    
C110  C149  S    
C207  C208  S    
C214  H101  S    
C220  H116  S    
C20   C180  A    
C115  C131  S    
O70   C195  S    
C40   C256  S    
C21   C181  A    
C96   C112  S    
C236  H162  S    
C247  H195  S    
C113  C129  S    
C256  H224  S    
C100  C148  S    
C162  C182  A    
C247  H197  S    
C193  H50   S    
C47   H39   S    
C197  C198  S    
C134  C150  S    
O7    Zn10  S    
O50   Zn10  S    
C167  O67   S    
C255  H220  S    
C234  H156  S    
C224  H127  S    
C74   O42   A    
C157  N1    A    
C217  H109  S    
C49   H41   S    
O3    Zn14  S    
C226  H133  S    
C211  C212  S    
C38   C54   A    
C12   C15   A    
C239  H173  S    
O2    Zn11  S    
C212  H97   S    
C232  H150  S    
C7    C58   S    
C102  C118  S    
C32   C68   A    
C108  C147  S    
C222  H123  S    
C40   C56   A    
C215  H105  S    
C209  C210  S    
C159  N3    A    
C199  H64   S    
C149  H29   S    
O13   Zn8   S    
C210  H92   S    
C43   H35   S    
C48   C60   A    
C219  H115  S    
C251  H208  S    
C68   N7    S    
C160  C172  A    
C34   C50   A    
O9    Zn12  S    
C204  H77   S    
C132  C148  S    
C92   C131  S    
C165  N5    A    
C75   O43   A    
C93   C134  S    
C180  C192  A    
C141  H21   S    
C98   C146  S    
C139  H19   S    
C244  H186  S    
C87   O47   A    
C88   O48   A    
C162  N6    A    
C225  H129  S    
C97   C122  S    
C164  C184  A    
O35   Zn2   S    
C81   O49   A    
C24   C240  S    
C3    O7    A    
C44   H36   S    
C67   N8    S    
O3    Zn10  S    
C217  C218  S    
C242  H180  S    
C226  H132  S    
C105  C121  S    
C131  C147  S    
C103  C128  S    
C204  H76   S    
C30   C66   A    
C101  H13   S    
C85   C135  S    
C254  H218  S    
C109  C125  S    
C240  H175  S    
C168  N8    A    
C250  H204  S    
C235  H160  S    
C111  C127  S    
C50   C62   A    
O37   Zn5   S    
C241  H179  S    
C97   C113  S    
C214  H103  S    
C202  H71   S    
C240  H174  S    
C236  H164  S    
C205  H80   S    
C198  H61   S    
C98   H10   S    
C103  C119  S    
O1    Zn16  S    
C248  H200  S    
C10   C13   A    
C118  C134  S    
C73   O41   A    
C218  H112  S    
O20   Zn5   S    
C171  C187  A    
C238  H170  S    
C206  H83   S    
C233  H154  S    
C169  C185  A    
C231  H148  S    
C73   O21   A    
O74   C203  S    
C174  C186  A    
C252  H210  S    
C256  H223  S    
C94   C133  S    
C172  C188  A    
C110  O74   S    
C101  C149  S    
C216  H108  S    
O84   C223  S    
C164  N8    A    
C240  H176  S    
C201  H70   S    
C83   C133  S    
C147  H27   S    
C48   H40   S    
C245  H190  S    
O23   Zn14  S    
C95   H7    S    
C254  H216  S    
C93   C109  S    
C209  H89   S    
C55   H47   S    
C196  H56   S    
C241  H177  S    
C82   C132  S    
O4    Zn9   S    
C238  H168  S    
C83   O51   A    
C84   O52   A    
