data_mof_unit_57150.cif
_audit_creation_date              2012-12-10T20:26:26-0500
_audit_creation_method            fapswitch 2.2
_symmetry_space_group_name_H-M    P1
_symmetry_Int_Tables_number       1
_space_group_crystal_system       triclinic
_cell_length_a                    10.716055
_cell_length_b                    10.664942
_cell_length_c                    9.905254
_cell_angle_alpha                 89.552366
_cell_angle_beta                  90.765499
_cell_angle_gamma                 90.373901
_cell_volume                      1131.87397783

loop_
_atom_site_label
_atom_site_type_symbol
_atom_type_description
_atom_site_fract_x
_atom_site_fract_y
_atom_site_fract_z
_atom_type_partial_charge
C1    C     C_R   0.500838 0.260481 0.500646 0.888476
C2    C     C_R   0.511372 0.129073 0.503868 -0.127300
C3    C     C_R   0.589612 0.068984 0.413214 -0.227827
C4    C     C_R   0.592864 0.938500 0.411013 0.176244
C5    C     C_R   0.513903 0.871792 0.500022 -0.108979
C6    C     C_R   0.449220 0.934357 0.599620 0.067340
C7    C     C_3   0.314780 0.925766 0.639827 -0.015969
C8    C     C_3   0.316366 0.068217 0.644761 -0.490384
C9    C     C_R   0.407440 0.439908 0.070266 0.201022
C10   C     C_R   0.585448 0.567057 0.074189 -0.153906
C11   C     C_R   0.587126 0.567070 0.930707 0.221382
C12   C     C_R   0.262775 0.503866 0.499100 0.916033
C13   C     C_R   0.406998 0.440719 0.927815 0.137350
C14   C     C_3   0.375688 0.304675 0.921289 -0.516351
C15   C     C_3   0.378713 0.302574 0.074937 -0.048280
C16   C     C_R   0.504296 0.739557 0.499416 0.892191
C17   C     C_R   0.737207 0.492743 0.500606 0.892517
C18   C     C_2   0.932048 0.495924 0.390708 -0.176584
C19   C     C_2   0.866684 0.460994 0.499898 0.052390
C20   C     C_2   0.065600 0.488137 0.386977 -0.170792
C21   C     C_2   0.131273 0.517598 0.497066 -0.347473
C22   C     C_R   0.449965 0.061997 0.603543 0.070302
H1    H     H_    0.887796 0.541910 0.304365 0.145362
H2    H     H_    0.306283 0.103645 0.748869 0.180167
H3    H     H_    0.656130 0.617572 0.131215 0.153825
H4    H     H_    0.281675 0.289346 0.875274 0.206296
H5    H     H_    0.451574 0.248675 0.876388 0.200746
H6    H     H_    0.456780 0.246165 0.118201 0.185067
H7    H     H_    0.109210 0.464229 0.292428 0.176276
H8    H     H_    0.302981 0.880764 0.740573 0.170636
H9    H     H_    0.256169 0.115801 0.567823 0.201686
N1    N     N_R   0.499170 0.499140 0.142800 -0.138221
N2    N     N_R   0.499170 0.499180 0.857150 -0.108698
O1    O     O_R   0.500020 0.316790 0.614690 -0.613272
O2    O     O_R   0.500000 0.316760 0.385350 -0.626655
O3    O     O_R   0.319080 0.500020 0.614640 -0.614239
O4    O     O_R   0.319070 0.499980 0.385300 -0.609716
O5    O     O_R   0.500000 0.683240 0.614650 -0.632926
O6    O     O_R   0.499980 0.683210 0.385310 -0.608031
O7    O     O_R   0.680930 0.500020 0.614700 -0.612465
O8    O     O_R   0.680920 0.499980 0.385360 -0.639491
Zn1   Zn    Zn3+2 0.500010 0.500020 0.653130 0.937585
Zn2   Zn    Zn3+2 0.499990 0.499980 0.346870 0.932741
C23   C     C_3   0.692604 0.636175 0.864224 -0.834021
H10   H     H_    0.658950 0.696734 0.780980 0.267455
H11   H     H_    0.742018 0.698965 0.936533 0.190924
H12   H     H_    0.762504 0.568324 0.828750 0.247261
C24   C     C_3   0.252609 0.272436 0.138265 -0.865093
H13   H     H_    0.259314 0.284376 0.249314 0.257056
H14   H     H_    0.178119 0.334413 0.096933 0.233981
H15   H     H_    0.226918 0.173415 0.117250 0.240659
C25   C     C_3   0.914988 0.375883 0.612275 -0.894957
H16   H     H_    0.844185 0.302319 0.634738 0.235470
H17   H     H_    0.001036 0.325549 0.584266 0.254952
H18   H     H_    0.932075 0.431009 0.705373 0.232180
H19   H     H_    0.087404 0.550387 0.588406 0.174190
H20   H     H_    0.644537 0.123484 0.342411 0.160084
C26   C     C_3   0.677152 0.874267 0.312770 -0.893884
H21   H     H_    0.620416 0.829443 0.231828 0.254266
H22   H     H_    0.742086 0.941855 0.264009 0.228725
H23   H     H_    0.734251 0.802400 0.366267 0.229342
C27   C     C_3   0.226708 0.873362 0.530569 -0.864817
H24   H     H_    0.128511 0.891800 0.558244 0.242874
H25   H     H_    0.245202 0.917091 0.430494 0.251169
H26   H     H_    0.239205 0.770657 0.523012 0.234105

loop_
_geom_bond_atom_site_label_1
_geom_bond_atom_site_label_2
_ccdc_geom_bond_type
C2    C22   A    
C21   H19   S    
C8    C22   S    
C25   H18   S    
C7    C27   S    
O4    Zn2   S    
C6    C7    S    
C14   H5    S    
C12   O3    A    
O2    Zn2   S    
O3    Zn1   S    
O1    Zn1   S    
C23   H12   S    
C11   N2    A    
C26   H23   S    
O7    Zn1   S    
C2    C3    A    
C9    C15   S    
C11   C23   S    
C7    H8    S    
C16   O5    A    
C13   C14   S    
C14   H4    S    
C13   N2    A    
O8    Zn2   S    
C15   H6    S    
C27   H24   S    
C12   C21   S    
C15   C24   S    
N2    Zn1   S    
C3    H20   S    
C10   H3    S    
C24   H14   S    
C24   H13   S    
C17   C19   S    
N1    Zn2   S    
C25   H17   S    
C1    O1    A    
O5    Zn1   S    
C18   C20   S    
C20   H7    S    
C5    C6    A    
C17   O8    A    
C10   C11   A    
C16   O6    A    
C26   H22   S    
C18   H1    S    
C6    C22   A    
C10   N1    A    
C7    C8    S    
C20   C21   D    
C1    O2    A    
C27   H25   S    
C1    C2    S    
C4    C26   S    
C12   O4    A    
C27   H26   S    
C9    C13   A    
C14   C15   S    
C18   C19   D    
C5    C16   S    
O6    Zn2   S    
C23   H11   S    
C9    N1    A    
C8    H2    S    
C26   H21   S    
C8    H9    S    
C19   C25   S    
C24   H15   S    
C23   H10   S    
C3    C4    A    
C25   H16   S    
C4    C5    A    
C17   O7    A    
