data_mof_unit_43457.cif
_audit_creation_date              2012-12-10T19:02:21-0500
_audit_creation_method            fapswitch 2.2
_symmetry_space_group_name_H-M    P1
_symmetry_Int_Tables_number       1
_space_group_crystal_system       triclinic
_cell_length_a                    14.340237
_cell_length_b                    10.827095
_cell_length_c                    9.551992
_cell_angle_alpha                 90.13132
_cell_angle_beta                  89.94867
_cell_angle_gamma                 89.885985
_cell_volume                      1483.06453562

loop_
_atom_site_label
_atom_site_type_symbol
_atom_type_description
_atom_site_fract_x
_atom_site_fract_y
_atom_site_fract_z
_atom_type_partial_charge
C1    C     C_R   0.499031 0.262327 0.499845 0.786859
C2    C     C_1   0.771168 0.500659 0.499815 -0.186868
C3    C     C_R   0.501248 0.064003 0.624898 0.061663
C4    C     C_R   0.491718 0.129185 0.499966 -0.060874
C5    C     C_R   0.471326 0.064109 0.376278 -0.218135
C6    C     C_R   0.471464 0.935306 0.376478 -0.219467
C7    C     C_R   0.492091 0.870845 0.500335 -0.067426
C8    C     C_R   0.501849 0.936851 0.625170 0.055853
C9    C     C_3   0.576875 0.931055 0.733930 0.296299
C10   C     C_3   0.576393 0.071804 0.732535 -0.552187
C11   C     C_R   0.578707 0.471282 0.073594 0.115926
C12   C     C_R   0.331060 0.500124 0.500079 0.800539
C13   C     C_R   0.420488 0.523714 0.074288 -0.051301
C14   C     C_R   0.420563 0.524141 0.925957 -0.063074
C15   C     C_R   0.578365 0.469058 0.925939 0.051593
C16   C     C_3   0.670548 0.535435 0.921658 0.182816
C17   C     C_3   0.669886 0.537654 0.081076 0.185420
C18   C     C_R   0.499194 0.737668 0.500049 0.826290
C19   C     C_R   0.668905 0.500199 0.499929 0.831192
C20   C     C_1   0.228708 0.500492 0.500191 -0.207824
C21   C     C_1   0.143273 0.500833 0.500219 -0.016497
C22   C     C_1   0.042603 0.501171 0.500155 -0.000402
C23   C     C_1   0.957183 0.501296 0.500001 -0.002493
C24   C     C_1   0.856561 0.501120 0.499782 -0.026107
Cu1   Cu    Cu3+1 0.500000 0.499980 0.640670 0.947647
Cu2   Cu    Cu3+1 0.500000 0.500020 0.359330 0.963250
H1    H     H_    0.663192 0.628341 0.874045 0.153927
N1    N     N_R   0.500540 0.500930 0.147930 -0.139704
N2    N     N_R   0.500540 0.500890 0.852020 -0.179023
O1    O     O_R   0.500000 0.319640 0.618810 -0.572887
O2    O     O_R   0.500010 0.319680 0.381230 -0.587717
O3    O     O_R   0.376050 0.499980 0.618820 -0.570831
O4    O     O_R   0.376060 0.500020 0.381230 -0.574683
O5    O     O_R   0.499990 0.680320 0.618770 -0.574452
O6    O     O_R   0.500000 0.680360 0.381190 -0.548447
O7    O     O_R   0.623940 0.499980 0.618770 -0.541848
O8    O     O_R   0.623950 0.500020 0.381180 -0.549813
H2    H     H_    0.458839 0.112135 0.278713 0.161593
H3    H     H_    0.724461 0.480458 0.133244 0.083614
O9    O     O_3   0.657345 0.657997 0.135770 -0.553179
C25   C     C_3   0.744928 0.710824 0.165389 0.061054
H4    H     H_    0.788011 0.717550 0.068663 0.139458
H5    H     H_    0.783062 0.655506 0.245096 0.152931
C26   C     C_3   0.730215 0.840024 0.224400 -0.769855
H6    H     H_    0.688956 0.835261 0.322761 0.272478
H7    H     H_    0.798699 0.883182 0.247398 0.196422
H8    H     H_    0.692290 0.898144 0.147430 0.228101
H9    H     H_    0.459045 0.886777 0.278996 0.171988
H10   H     H_    0.551304 0.888075 0.832697 0.079572
O10   O     O_3   0.659654 0.879211 0.678584 -0.558484
C27   C     C_3   0.729692 0.879613 0.782327 0.054524
H11   H     H_    0.704719 0.838126 0.881950 0.138171
H12   H     H_    0.753479 0.975524 0.803360 0.143667
C28   C     C_3   0.812610 0.804485 0.730654 -0.766600
H13   H     H_    0.840326 0.844830 0.632279 0.245853
H14   H     H_    0.868478 0.804761 0.811069 0.196539
H15   H     H_    0.791073 0.707657 0.710504 0.269441
H16   H     H_    0.551003 0.112871 0.832305 0.161555
H17   H     H_    0.641240 0.113673 0.690070 0.199953
H18   H     H_    0.356436 0.544911 0.128936 0.131515
H19   H     H_    0.356618 0.545854 0.871558 0.137561
O11   O     O_3   0.749134 0.471440 0.864764 -0.581022
C29   C     C_3   0.741707 0.341116 0.869066 0.082423
H20   H     H_    0.687658 0.309234 0.794031 0.164115
H21   H     H_    0.724587 0.307785 0.976088 0.108942
C30   C     C_3   0.834445 0.284153 0.826245 -0.790609
H22   H     H_    0.890408 0.315763 0.898114 0.250460
H23   H     H_    0.829819 0.181944 0.831200 0.185566
H24   H     H_    0.852296 0.311488 0.717600 0.255039

loop_
_geom_bond_atom_site_label_1
_geom_bond_atom_site_label_2
_ccdc_geom_bond_type
C8    C9    S    
C30   H23   S    
C23   C24   S    
C29   H21   S    
C13   N1    A    
O11   C29   S    
C19   O8    A    
C7    C18   S    
C27   C28   S    
C25   H5    S    
C25   H4    S    
C28   H13   S    
Cu2   O4    S    
Cu2   N1    S    
C26   H8    S    
C1    O2    A    
Cu1   O5    S    
C5    H2    S    
C1    C4    S    
C12   C20   S    
Cu1   O3    S    
C30   H22   S    
Cu1   Cu2   S    
C29   C30   S    
C7    C8    A    
Cu2   O8    S    
C3    C10   S    
C13   C14   A    
C26   H6    S    
C2    C24   T    
C18   O5    A    
C27   H11   S    
C6    C7    A    
C16   O11   S    
C11   N1    A    
C16   H1    S    
C18   O6    A    
C1    O1    A    
C10   H16   S    
C26   H7    S    
C15   N2    A    
C19   O7    A    
C12   O3    A    
C12   O4    A    
Cu1   N2    S    
C5    C6    A    
C25   C26   S    
C28   H14   S    
C30   H24   S    
C16   C17   S    
C9    O10   S    
Cu1   O7    S    
C29   H20   S    
Cu2   O6    S    
Cu2   O2    S    
C9    H10   S    
C20   C21   T    
C10   H17   S    
C3    C8    A    
C9    C10   S    
Cu1   O1    S    
C13   H18   S    
C17   H3    S    
C22   C23   T    
O9    C25   S    
C14   N2    A    
O10   C27   S    
C2    C19   S    
C21   C22   S    
C14   H19   S    
C11   C15   A    
C28   H15   S    
C11   C17   S    
C3    C4    A    
C15   C16   S    
C4    C5    A    
C27   H12   S    
C17   O9    S    
C6    H9    S    
