data_mof_unit_8654.cif
_audit_creation_date              2012-12-11T16:26:08-0500
_audit_creation_method            fapswitch 2.2
_symmetry_space_group_name_H-M    P1
_symmetry_Int_Tables_number       1
_space_group_crystal_system       triclinic
_cell_length_a                    13.961265
_cell_length_b                    13.963222
_cell_length_c                    31.909466
_cell_angle_alpha                 90.14326
_cell_angle_beta                  89.852438
_cell_angle_gamma                 119.982158
_cell_volume                      5388.11390204

loop_
_atom_site_label
_atom_site_type_symbol
_atom_type_description
_atom_site_fract_x
_atom_site_fract_y
_atom_site_fract_z
_atom_type_partial_charge
C1    C     C_R   0.566310 0.444694 0.810279 0.590316
C2    C     C_R   0.879200 0.433938 0.689890 0.586151
C3    C     C_R   0.555541 0.122569 0.810342 0.602674
C4    C     C_R   0.566826 0.444440 0.689691 0.602145
C5    C     C_R   0.877902 0.433398 0.810217 0.597706
C6    C     C_R   0.555442 0.121753 0.689689 0.598830
C7    C     C_R   0.444400 0.566923 0.310360 0.602432
C8    C     C_R   0.433636 0.878295 0.189706 0.583772
C9    C     C_R   0.121697 0.555415 0.310279 0.597869
C10   C     C_R   0.444471 0.566899 0.189637 0.605792
C11   C     C_R   0.434034 0.879351 0.310063 0.585267
C12   C     C_R   0.122434 0.555548 0.189650 0.598377
C13   C     C_1   0.013172 0.488674 0.017888 0.051256
C14   C     C_1   0.495709 0.992299 0.481343 0.056760
C15   C     C_1   0.524734 0.521398 0.019110 0.051593
C16   C     C_1   0.996150 0.497245 0.480871 0.059778
C17   C     C_1   0.468415 0.981771 0.017809 0.062156
C18   C     C_1   0.509707 0.515479 0.481544 0.055807
C19   C     C_1   0.499088 0.997791 0.518868 0.059721
C20   C     C_1   0.004238 0.483886 0.980490 0.051451
C21   C     C_1   0.513644 0.511415 0.518929 0.056112
C22   C     C_1   0.473565 0.990812 0.980378 0.065149
C23   C     C_1   0.990610 0.493814 0.518394 0.056339
C24   C     C_1   0.530124 0.517571 0.981710 0.053177
C25   C     C_R   0.935610 0.472835 0.850971 0.003897
C26   C     C_R   0.536739 0.061289 0.649225 0.009588
C27   C     C_R   0.526392 0.463721 0.851128 -0.011094
C28   C     C_R   0.941143 0.475166 0.649577 -0.002291
C29   C     C_R   0.537272 0.065707 0.851275 0.012710
C30   C     C_R   0.527603 0.462641 0.648872 0.013449
C31   C     C_R   0.475679 0.941906 0.350232 -0.003263
C32   C     C_R   0.066353 0.537699 0.148508 0.006018
C33   C     C_R   0.462324 0.528283 0.351376 0.013831
C34   C     C_R   0.472946 0.936775 0.148786 -0.014802
C35   C     C_R   0.060848 0.536495 0.350642 0.008528
C36   C     C_R   0.462757 0.528277 0.148607 0.026525
C37   C     C_R   0.893477 0.518267 0.880422 0.101576
C38   C     C_R   0.628689 0.084465 0.623351 0.096344
C39   C     C_R   0.469912 0.373806 0.879248 0.114720
C40   C     C_R   0.929137 0.554010 0.625463 0.120081
C41   C     C_R   0.622188 0.112514 0.881582 0.103908
C42   C     C_R   0.471821 0.372192 0.620988 0.095097
C43   C     C_R   0.555460 0.931016 0.374165 0.120197
C44   C     C_R   0.102598 0.628138 0.120617 0.105372
C45   C     C_R   0.371563 0.472633 0.379163 0.095104
C46   C     C_R   0.532566 0.905831 0.121055 0.119282
C47   C     C_R   0.084290 0.628180 0.376684 0.096329
C48   C     C_R   0.376356 0.486327 0.118806 0.101908
C49   C     C_R   0.917534 0.519291 0.922647 -0.128783
C50   C     C_R   0.612747 0.058914 0.580852 -0.113117
C51   C     C_R   0.477444 0.396353 0.922255 -0.124188
C52   C     C_R   0.948765 0.559318 0.582188 -0.087090
C53   C     C_R   0.597029 0.085969 0.923585 -0.144261
C54   C     C_R   0.467476 0.391733 0.578577 -0.109091
C55   C     C_R   0.561233 0.950940 0.417430 -0.086748
C56   C     C_R   0.082922 0.608618 0.077917 -0.108868
C57   C     C_R   0.390647 0.468838 0.421658 -0.109364
C58   C     C_R   0.525069 0.919174 0.077912 -0.106622
C59   C     C_R   0.058301 0.611704 0.419136 -0.112862
C60   C     C_R   0.400608 0.486099 0.076587 -0.135856
C61   C     C_R   0.988378 0.482867 0.936131 -0.036703
C62   C     C_R   0.507412 0.007924 0.563625 -0.019034
C63   C     C_R   0.528284 0.504331 0.937116 -0.058788
C64   C     C_R   0.983891 0.492376 0.563287 -0.024498
C65   C     C_R   0.490693 0.008410 0.936102 -0.049950
C66   C     C_R   0.513363 0.498860 0.563416 -0.024681
C67   C     C_R   0.493954 0.985488 0.436449 -0.023976
C68   C     C_R   0.023952 0.501417 0.062481 -0.023747
C69   C     C_R   0.497612 0.515136 0.437029 -0.024741
C70   C     C_R   0.470554 0.972072 0.062517 -0.041594
C71   C     C_R   0.006576 0.506094 0.436132 -0.019319
C72   C     C_R   0.507852 0.520480 0.063420 -0.043858
C73   C     C_R   0.044898 0.452757 0.906924 0.053954
C74   C     C_R   0.413550 0.971506 0.589378 0.043788
C75   C     C_R   0.564306 0.593775 0.909151 0.035473
C76   C     C_R   0.012235 0.426464 0.587610 0.037718
C77   C     C_R   0.407689 0.948377 0.906096 0.036309
C78   C     C_R   0.556865 0.589811 0.590981 0.037174
C79   C     C_R   0.427219 0.013010 0.412241 0.037774
C80   C     C_R   0.974296 0.410612 0.089986 0.053294
C81   C     C_R   0.588907 0.558685 0.409633 0.037690
C82   C     C_R   0.430771 0.023286 0.090100 0.039536
C83   C     C_R   0.969799 0.412555 0.410174 0.043506
C84   C     C_R   0.592787 0.547388 0.092845 -0.026218
C85   C     C_R   0.018011 0.447280 0.863689 -0.002209
C86   C     C_R   0.427801 0.994853 0.633036 -0.007300
C87   C     C_R   0.563503 0.573465 0.865509 0.001344
C88   C     C_R   0.995334 0.421304 0.631578 -0.001922
C89   C     C_R   0.430893 0.978085 0.863061 -0.010155
C90   C     C_R   0.562076 0.571671 0.634521 -0.005608
C91   C     C_R   0.421605 0.995810 0.368285 -0.001886
C92   C     C_R   0.992976 0.428724 0.133750 -0.009857
C93   C     C_R   0.571310 0.563520 0.366026 -0.004463
C94   C     C_R   0.431844 0.005576 0.133853 -0.001443
C95   C     C_R   0.993637 0.427413 0.366555 -0.007752
C96   C     C_R   0.570274 0.551616 0.136069 -0.025214
Cr1   Cr    Cr6+3 0.504240 0.249200 0.750000 1.064367
Cr2   Cr    Cr6+3 0.744960 0.495760 0.750000 1.066806
Cr3   Cr    Cr6+3 0.750800 0.255040 0.750000 1.066672
Cr4   Cr    Cr6+3 0.249200 0.504240 0.250000 1.064776
Cr5   Cr    Cr6+3 0.495760 0.744960 0.250000 1.067617
Cr6   Cr    Cr6+3 0.255040 0.750800 0.250000 1.064961
H1    H     H_    0.115206 0.678128 0.056477 0.140167
H2    H     H_    0.616827 0.938017 0.437081 0.131125
H3    H     H_    0.334583 0.458949 0.053731 0.144620
H4    H     H_    0.081576 0.682660 0.439306 0.145635
H5    H     H_    0.562946 0.889795 0.055532 0.133858
H6    H     H_    0.320887 0.430670 0.443045 0.153071
H7    H     H_    0.683932 0.081957 0.560830 0.145258
H8    H     H_    0.880252 0.549117 0.945261 0.150887
H9    H     H_    0.429268 0.322224 0.557085 0.153250
H10   H     H_    0.661858 0.126693 0.946802 0.145197
H11   H     H_    0.935185 0.614309 0.562437 0.131768
H12   H     H_    0.442192 0.329944 0.944939 0.141196
O1    O     O_R   0.480350 0.140770 0.796330 -0.489227
O2    O     O_R   0.660420 0.519650 0.703670 -0.482604
O3    O     O_R   0.859230 0.339580 0.796330 -0.492937
O4    O     O_R   0.480350 0.140770 0.703670 -0.482231
O5    O     O_R   0.660420 0.519650 0.796330 -0.485301
O6    O     O_R   0.859230 0.339580 0.703670 -0.474876
O7    O     O_R   0.140770 0.480350 0.296330 -0.481478
O8    O     O_R   0.519650 0.660420 0.203670 -0.482824
O9    O     O_R   0.339580 0.859230 0.296330 -0.474194
O10   O     O_R   0.140770 0.480350 0.203670 -0.487656
O11   O     O_R   0.519650 0.660420 0.296330 -0.481690
O12   O     O_R   0.339580 0.859230 0.203670 -0.480510
O13   O     O_R   0.514930 0.348530 0.793250 -0.491700
O14   O     O_R   0.833600 0.485070 0.706750 -0.490421
O15   O     O_R   0.651470 0.166400 0.793250 -0.475494
O16   O     O_R   0.514930 0.348530 0.706750 -0.476067
O17   O     O_R   0.833600 0.485070 0.793250 -0.473031
O18   O     O_R   0.651470 0.166400 0.706750 -0.475650
O19   O     O_R   0.348530 0.514930 0.293250 -0.476726
O20   O     O_R   0.485070 0.833600 0.206750 -0.492755
O21   O     O_R   0.166400 0.651470 0.293250 -0.476486
O22   O     O_R   0.348530 0.514930 0.206750 -0.477692
O23   O     O_R   0.485070 0.833600 0.293250 -0.489506
O24   O     O_R   0.166400 0.651470 0.206750 -0.476097
O25   O     O_3   0.666667 0.333333 0.750000 -0.266067
O26   O     O_3   0.333333 0.666667 0.250000 -0.267410
N1    N     N_2   0.824059 0.560600 0.868037 -0.489278
H13   H     H_    0.762582 0.546052 0.889373 0.248713
C97   C     C_3   0.885113 0.675313 0.855349 -0.229760
H14   H     H_    0.928825 0.728874 0.882683 0.165079
H15   H     H_    0.827306 0.700204 0.842442 0.189028
H16   H     H_    0.946304 0.687689 0.830548 0.164459
N2    N     N_2   0.738392 0.136884 0.639398 -0.486991
H17   H     H_    0.797845 0.189335 0.618436 0.275022
C98   C     C_3   0.767383 0.061049 0.658600 -0.209222
H18   H     H_    0.770313 0.004884 0.634518 0.181879
H19   H     H_    0.706335 0.011095 0.683222 0.170809
H20   H     H_    0.849856 0.108350 0.673547 0.182038
N3    N     N_2   0.406556 0.262790 0.863716 -0.487275
H21   H     H_    0.356690 0.255420 0.838689 0.275442
C99   C     C_3   0.352539 0.171290 0.892717 -0.271995
H22   H     H_    0.289752 0.179012 0.911599 0.171108
H23   H     H_    0.414560 0.167815 0.913393 0.163283
H24   H     H_    0.309426 0.092681 0.874911 0.188508
N4    N     N_2   0.898276 0.626827 0.645338 -0.491667
H25   H     H_    0.944447 0.666127 0.671571 0.275185
C100  C     C_3   0.869755 0.695425 0.620421 -0.248359
H26   H     H_    0.943466 0.758634 0.603124 0.162695
H27   H     H_    0.840636 0.739076 0.641402 0.206208
H28   H     H_    0.801815 0.643610 0.598353 0.171999
N5    N     N_2   0.733269 0.189168 0.870334 -0.491534
H29   H     H_    0.772921 0.253348 0.891410 0.245869
C101  C     C_3   0.797748 0.136635 0.861072 -0.241300
H30   H     H_    0.805927 0.095524 0.889536 0.156187
H31   H     H_    0.881464 0.199594 0.850499 0.186148
H32   H     H_    0.758247 0.074510 0.835650 0.167599
N6    N     N_2   0.422606 0.260836 0.635013 -0.490159
H33   H     H_    0.428411 0.208016 0.613815 0.257283
C102  C     C_3   0.310991 0.217235 0.650533 -0.215120
H34   H     H_    0.254753 0.209427 0.624497 0.173064
H35   H     H_    0.308104 0.271945 0.675261 0.164798
H36   H     H_    0.281660 0.134481 0.664443 0.190922
N7    N     N_2   0.628780 0.901083 0.354109 -0.491534
H37   H     H_    0.666763 0.946780 0.327631 0.275499
C103  C     C_3   0.699434 0.874952 0.378854 -0.247413
H38   H     H_    0.762028 0.949544 0.395904 0.162477
H39   H     H_    0.743831 0.846892 0.357778 0.205907
H40   H     H_    0.649101 0.806973 0.401125 0.174667
N8    N     N_2   0.161488 0.739414 0.135042 -0.484988
H41   H     H_    0.219367 0.793950 0.114085 0.250387
C104  C     C_3   0.090424 0.779144 0.150885 -0.224104
H42   H     H_    0.041110 0.785811 0.124933 0.179974
H43   H     H_    0.141526 0.861761 0.165298 0.181835
H44   H     H_    0.033528 0.722592 0.175315 0.157314
N9    N     N_2   0.260321 0.423256 0.364975 -0.489897
H45   H     H_    0.207337 0.429395 0.385996 0.256627
C105  C     C_3   0.216758 0.311435 0.349721 -0.215683
H46   H     H_    0.133919 0.281829 0.335825 0.190582
H47   H     H_    0.271453 0.308240 0.325055 0.165425
H48   H     H_    0.209061 0.255629 0.375905 0.172671
N10   N     N_2   0.598621 0.861886 0.137100 -0.489607
H49   H     H_    0.646630 0.905394 0.162410 0.273132
C106  C     C_3   0.656238 0.827170 0.108535 -0.267679
H50   H     H_    0.718226 0.898661 0.089934 0.163436
H51   H     H_    0.596422 0.760625 0.087572 0.164536
H52   H     H_    0.700688 0.793898 0.126693 0.196862
N11   N     N_2   0.137354 0.738097 0.360846 -0.486481
H53   H     H_    0.189804 0.797131 0.381929 0.274890
C107  C     C_3   0.062058 0.767841 0.341654 -0.210582
H54   H     H_    0.005931 0.770918 0.365722 0.181877
H55   H     H_    0.012018 0.707162 0.316947 0.167336
H56   H     H_    0.109828 0.850385 0.326808 0.182294
N12   N     N_2   0.264735 0.447272 0.130775 -0.493723
H57   H     H_    0.221246 0.466885 0.109709 0.247080
C108  C     C_3   0.205873 0.331040 0.141435 -0.228964
H58   H     H_    0.197547 0.280106 0.113369 0.169405
H59   H     H_    0.122146 0.307456 0.153081 0.195234
H60   H     H_    0.249979 0.313476 0.166537 0.160531
C109  C     C_2   0.930726 0.337428 0.164396 0.592209
O27   O     O_2   0.902506 0.357810 0.198024 -0.480030
O28   O     O_R   0.903181 0.228757 0.155093 -0.677662
H61   H     H_    0.860551 0.175295 0.178547 0.336820
C110  C     C_2   0.369179 0.042483 0.340469 0.599650
O29   O     O_2   0.285755 0.043627 0.351307 -0.510892
O30   O     O_R   0.417046 0.086422 0.301520 -0.638870
H62   H     H_    0.374660 0.115667 0.285326 0.355839
C111  C     C_2   0.657750 0.579986 0.168130 0.577801
O31   O     O_2   0.633822 0.530731 0.201546 -0.478961
O32   O     O_R   0.767018 0.662042 0.160240 -0.694023
H63   H     H_    0.818209 0.672855 0.184512 0.335476
C112  C     C_2   0.941517 0.331977 0.336887 0.594123
O33   O     O_2   0.927178 0.241210 0.346723 -0.502939
O34   O     O_R   0.907451 0.346456 0.297388 -0.641459
H64   H     H_    0.872766 0.276108 0.280070 0.363343
C113  C     C_2   0.390917 0.058612 0.164098 0.625774
O35   O     O_2   0.439197 0.094814 0.197352 -0.469511
O36   O     O_R   0.297546 0.066981 0.154786 -0.693203
H65   H     H_    0.278628 0.104837 0.177863 0.332333
C114  C     C_2   0.662905 0.595383 0.335220 0.595112
O37   O     O_2   0.757155 0.667973 0.343304 -0.518549
O38   O     O_R   0.640831 0.540332 0.296750 -0.638390
H66   H     H_    0.709799 0.567257 0.278947 0.369474
C115  C     C_2   0.331722 0.942949 0.662425 0.594003
O39   O     O_2   0.241409 0.929432 0.652337 -0.503904
O40   O     O_R   0.344979 0.907985 0.701918 -0.636197
H67   H     H_    0.274235 0.873503 0.719011 0.360547
C116  C     C_2   0.074875 0.415012 0.831789 0.622919
O41   O     O_2   0.101234 0.462636 0.798016 -0.457008
O42   O     O_R   0.097760 0.330184 0.840138 -0.692339
H68   H     H_    0.136620 0.316431 0.815955 0.339928
C117  C     C_2   0.593152 0.662492 0.665622 0.595389
O43   O     O_2   0.664795 0.757258 0.657706 -0.516935
O44   O     O_R   0.538352 0.639021 0.704190 -0.640850
H69   H     H_    0.564450 0.707514 0.722192 0.374028
C118  C     C_2   0.344861 0.919441 0.830456 0.623422
O45   O     O_2   0.370092 0.894509 0.797128 -0.462206
O46   O     O_R   0.235560 0.893260 0.837658 -0.691941
H70   H     H_    0.185241 0.853324 0.813094 0.337386
C119  C     C_2   0.042388 0.369340 0.659431 0.599955
O47   O     O_2   0.043060 0.285560 0.648789 -0.511129
O48   O     O_R   0.087080 0.417955 0.698201 -0.635312
H71   H     H_    0.116501 0.375800 0.714445 0.353627
C120  C     C_2   0.598898 0.665150 0.834725 0.629754
O49   O     O_2   0.549112 0.648318 0.801611 -0.471198
O50   O     O_R   0.688219 0.770249 0.843406 -0.694856
H72   H     H_    0.703241 0.824924 0.819972 0.335817
C121  C     C_2   0.902445 0.298785 0.072532 0.632996
O51   O     O_2   0.810808 0.273482 0.059136 -0.491790
O52   O     O_R   0.941102 0.223907 0.070328 -0.654452
H73   H     H_    0.884822 0.150474 0.057603 0.346269
C122  C     C_2   0.364722 0.059487 0.433360 0.619879
O53   O     O_2   0.414526 0.149387 0.450802 -0.486894
O54   O     O_R   0.249242 0.998471 0.434563 -0.676195
H74   H     H_    0.216075 0.038189 0.450286 0.347441
C123  C     C_2   0.703306 0.569301 0.078197 0.636676
O55   O     O_2   0.753443 0.640518 0.051860 -0.442635
O56   O     O_R   0.750742 0.508904 0.093683 -0.623633
H75   H     H_    0.699890 0.447459 0.113376 0.331226
C124  C     C_2   0.906680 0.301071 0.429135 0.621172
O57   O     O_2   0.815888 0.270934 0.444698 -0.484919
O58   O     O_R   0.952959 0.232535 0.430540 -0.666357
H76   H     H_    0.902417 0.159065 0.444574 0.338601
C125  C     C_2   0.393204 0.098204 0.073172 0.628976
O59   O     O_2   0.327710 0.068074 0.044030 -0.487658
O60   O     O_R   0.434360 0.203997 0.090212 -0.661392
H77   H     H_    0.403124 0.247381 0.076032 0.337253
C126  C     C_2   0.700450 0.595610 0.426987 0.612136
O61   O     O_2   0.721063 0.527922 0.442468 -0.482816
O62   O     O_R   0.780318 0.707855 0.426893 -0.686566
H78   H     H_    0.852784 0.722591 0.439758 0.340055
C127  C     C_2   0.302312 0.909277 0.570151 0.621775
O63   O     O_2   0.271596 0.818318 0.554655 -0.484205
O64   O     O_R   0.234713 0.956585 0.568429 -0.666236
H79   H     H_    0.161347 0.906611 0.554223 0.339407
C128  C     C_2   0.134071 0.432033 0.921506 0.629043
O65   O     O_2   0.118582 0.372077 0.951664 -0.510829
O66   O     O_R   0.236470 0.482697 0.901058 -0.620844
H80   H     H_    0.290439 0.462577 0.913886 0.339975
C129  C     C_2   0.593486 0.701518 0.573870 0.612561
O67   O     O_2   0.525715 0.721881 0.558293 -0.481867
O68   O     O_R   0.705585 0.781851 0.574280 -0.686682
H81   H     H_    0.720121 0.854385 0.561554 0.339825
C130  C     C_2   0.299650 0.854000 0.919804 0.620550
O69   O     O_2   0.259191 0.765935 0.900965 -0.451161
O70   O     O_R   0.245128 0.865214 0.954667 -0.675144
H82   H     H_    0.173095 0.795013 0.961049 0.339674
C131  C     C_2   0.059381 0.364434 0.566605 0.619310
O71   O     O_2   0.149356 0.414619 0.549225 -0.487408
O72   O     O_R   0.998925 0.248947 0.565445 -0.676114
H83   H     H_    0.039091 0.216117 0.549811 0.347471
C132  C     C_2   0.597253 0.705824 0.925590 0.625099
O73   O     O_2   0.663370 0.744959 0.954437 -0.494830
O74   O     O_R   0.550921 0.765611 0.908491 -0.639189
H84   H     H_    0.579425 0.840445 0.922326 0.336044

loop_
_geom_bond_atom_site_label_1
_geom_bond_atom_site_label_2
_ccdc_geom_bond_type
C68   C80   A    
C97   H16   S    
C39   C51   A    
C107  H54   S    
C80   C92   A    
N5    H29   S    
C82   C94   A    
C21   C66   S    
C99   H23   S    
C18   C21   T    
C7    C33   S    
C130  O69   D    
C31   C43   A    
C40   N4    S    
N2    H17   S    
N6    H33   S    
C35   C47   A    
C59   C71   A    
C87   C120  S    
C29   C89   A    
C100  H26   S    
C2    O14   A    
O38   H66   S    
C4    C30   S    
O46   H70   S    
C101  H31   S    
C6    C26   S    
Cr5   O20   S    
C78   C90   A    
C15   C72   S    
C107  H55   S    
C32   C92   A    
C45   C57   A    
C118  O45   D    
C127  O63   D    
C37   N1    S    
Cr3   O18   S    
C39   N3    S    
C40   C52   A    
N2    C98   S    
O40   H67   S    
C10   O22   A    
Cr1   O16   S    
C116  O41   D    
C112  O34   S    
C98   H19   S    
N4    H25   S    
Cr6   O24   S    
C119  O47   D    
C75   C132  S    
C9    C35   S    
C24   C63   S    
C104  H43   S    
C60   C72   A    
C19   C62   S    
O42   H68   S    
C90   C117  S    
O48   H71   S    
C20   C61   S    
C86   C115  S    
C33   C45   A    
N12   C108  S    
C47   N11   S    
C108  H58   S    
C106  H51   S    
C58   H5    S    
C1    O5    A    
C56   C68   A    
Cr2   O5    S    
Cr1   O4    S    
C3    C29   S    
O44   H69   S    
C44   C56   A    
Cr6   O21   S    
Cr4   O26   S    
C54   C66   A    
C25   C37   A    
Cr3   O6    S    
Cr2   O2    S    
O58   H76   S    
C73   C128  S    
C27   C39   A    
C132  O74   S    
C41   N5    S    
Cr2   O17   S    
C28   C88   A    
Cr5   O11   S    
C14   C67   S    
N4    C100  S    
C79   C122  S    
C34   C46   A    
Cr1   O1    S    
C53   C65   A    
C114  O37   D    
C76   C88   A    
C110  O30   S    
C79   C91   A    
C125  O60   S    
C30   C90   A    
O50   H72   S    
C103  H40   S    
C18   C69   S    
Cr2   O14   S    
O56   H75   S    
Cr5   O8    S    
C11   C31   S    
C17   C70   S    
N5    C101  S    
O72   H83   S    
C102  H34   S    
C123  O55   D    
C46   C58   A    
C99   H24   S    
C102  H35   S    
N11   C107  S    
Cr3   O25   S    
N9    H45   S    
C16   C71   S    
C14   C19   T    
C85   C116  S    
C76   C131  S    
C100  H27   S    
Cr5   O26   S    
C48   C60   A    
C101  H32   S    
C71   C83   A    
C109  O28   S    
C93   C114  S    
C64   C76   A    
C115  O40   S    
C66   C78   A    
C107  H56   S    
C11   O9    A    
C118  O46   S    
C59   H4    S    
C49   C61   A    
Cr3   O15   S    
C28   C40   A    
C8    O20   A    
C105  H46   S    
C51   H12   S    
C103  H39   S    
C23   C64   S    
C112  O33   D    
O52   H73   S    
C67   C79   A    
O32   H63   S    
C6    O18   A    
C52   C64   A    
C98   H20   S    
O30   H62   S    
C121  O52   S    
C123  O56   S    
C2    O6    A    
C58   C70   A    
C104  H44   S    
C4    O16   A    
C26   C86   A    
C74   C127  S    
C61   C73   A    
C126  O61   D    
C131  O71   D    
C55   H2    S    
C50   H7    S    
C7    O11   A    
N12   H57   S    
C5    O3    A    
C116  O42   S    
C127  O64   S    
C91   C110  S    
C106  H52   S    
C27   C87   A    
O70   H82   S    
C95   C112  S    
C22   C65   S    
Cr6   O12   S    
C129  O67   D    
Cr3   O3    S    
C111  O31   D    
C37   C49   A    
C9    O21   A    
C36   C96   A    
C119  O48   S    
O34   H64   S    
C12   O10   A    
C109  O27   D    
O60   H77   S    
C62   C74   A    
C83   C95   A    
C120  O49   D    
C25   C85   A    
C124  O57   D    
C32   C44   A    
N8    H41   S    
C92   C109  S    
C130  O70   S    
C8    C34   S    
C74   C86   A    
C120  O50   S    
C81   C93   A    
C122  O54   S    
C44   N8    S    
C41   C53   A    
N3    C99   S    
C72   C84   A    
C131  O72   S    
C89   C118  S    
N7    H37   S    
C5    C25   S    
C84   C123  S    
C53   H10   S    
C75   C87   A    
C15   C24   T    
O36   H65   S    
C101  H30   S    
Cr6   O26   S    
C16   C23   T    
C31   C91   A    
O74   H84   S    
C117  O44   S    
O64   H79   S    
C50   C62   A    
C12   O24   A    
C43   C55   A    
C82   C125  S    
C126  O62   S    
Cr6   O9    S    
C96   C111  S    
C84   C96   A    
O68   H81   S    
C100  H28   S    
Cr4   O19   S    
O66   H80   S    
C77   C130  S    
C122  O53   D    
C102  H36   S    
C8    O12   A    
Cr1   O13   S    
C97   H15   S    
C51   C63   A    
C43   N7    S    
Cr5   O23   S    
N10   H49   S    
C65   C77   A    
C13   C20   T    
C29   C41   A    
C3    O15   A    
C77   C89   A    
C46   N10   S    
C4    O2    A    
C26   C38   A    
C80   C121  S    
C34   C94   A    
C56   H1    S    
C117  O43   D    
C78   C129  S    
C33   C93   A    
C55   C67   A    
O54   H74   S    
C7    O19   A    
C88   C119  S    
C38   C50   A    
C35   C95   A    
N6    C102  S    
C17   C22   T    
C113  O35   D    
N11   H53   S    
C42   C54   A    
Cr2   O25   S    
C111  O32   S    
C57   C69   A    
O62   H78   S    
N1    C97   S    
C110  O29   D    
C105  H48   S    
C73   C85   A    
C129  O68   S    
C9    O7    A    
C3    O1    A    
C98   H18   S    
C105  H47   S    
C104  H42   S    
C121  O51   D    
C63   C75   A    
C81   C126  S    
C52   H11   S    
C48   N12   S    
C124  O58   S    
N7    C103  S    
C54   H9    S    
C36   C48   A    
C30   C42   A    
O28   H61   S    
C11   O23   A    
C106  H50   S    
C70   C82   A    
C115  O39   D    
C38   N2    S    
N1    H13   S    
C69   C81   A    
C42   N6    S    
C1    O13   A    
C47   C59   A    
C103  H38   S    
Cr4   O22   S    
C10   O8    A    
C5    O17   A    
C57   H6    S    
C83   C124  S    
N8    C104  S    
C113  O36   S    
C132  O73   D    
C114  O38   S    
C99   H22   S    
C1    C27   S    
C45   N9    S    
C108  H59   S    
C128  O65   D    
C128  O66   S    
C2    C28   S    
C10   C36   S    
N9    C105  S    
N3    H21   S    
C125  O59   D    
Cr4   O10   S    
C108  H60   S    
Cr1   O25   S    
C12   C32   S    
C60   H3    S    
C97   H14   S    
C94   C113  S    
C6    O4    A    
C49   H8    S    
N10   C106  S    
C13   C68   S    
Cr4   O7    S    
