data_mof_unit_24893.cif
_audit_creation_date              2012-12-10T17:42:42-0500
_audit_creation_method            fapswitch 2.2
_symmetry_space_group_name_H-M    P1
_symmetry_Int_Tables_number       1
_space_group_crystal_system       triclinic
_cell_length_a                    9.958408
_cell_length_b                    10.665758
_cell_length_c                    13.307347
_cell_angle_alpha                 92.366221
_cell_angle_beta                  71.38765
_cell_angle_gamma                 89.126059
_cell_volume                      1337.75794236

loop_
_atom_site_label
_atom_site_type_symbol
_atom_type_description
_atom_site_fract_x
_atom_site_fract_y
_atom_site_fract_z
_atom_type_partial_charge
C1    C     C_R   0.500212 0.740494 0.495264 0.874555
C2    C     C_R   0.384771 0.467657 0.815667 -0.161212
C3    C     C_R   0.253058 0.895777 0.475851 -0.156087
C4    C     C_R   0.424205 0.487916 0.701791 0.926454
C5    C     C_R   0.121754 0.959415 0.506821 -0.206081
C6    C     C_R   0.102678 0.071770 0.567067 -0.100536
C7    C     C_R   0.218411 0.126965 0.586678 0.664653
C8    C     C_R   0.355492 0.069022 0.545030 -0.025049
C9    C     C_R   0.367932 0.944588 0.505060 0.063643
C10   C     C_R   0.494839 0.875764 0.497188 -0.063609
C11   C     C_R   0.611925 0.936781 0.510709 -0.171770
C12   C     C_R   0.446405 0.503154 0.976998 -0.121950
C13   C     C_R   0.606807 0.064314 0.527824 -0.142980
C14   C     C_R   0.482288 0.131587 0.537383 -0.120704
C15   C     C_R   0.800507 0.670694 0.637068 -0.206678
C16   C     C_R   0.493839 0.262574 0.514752 0.925394
C17   C     C_R   0.840922 0.753106 0.705332 -0.272070
C18   C     C_R   0.979948 0.751467 0.706375 0.469793
C19   C     C_R   0.079084 0.666861 0.638283 -0.184760
C20   C     C_R   0.042364 0.583719 0.567126 0.097030
C21   C     C_R   0.898254 0.584530 0.566812 0.101633
C22   C     C_R   0.960429 0.415924 0.437269 0.473818
C23   C     C_R   0.489110 0.468149 0.867892 -0.052708
C24   C     C_R   0.101380 0.416970 0.439454 -0.075395
C25   C     C_R   0.577414 0.504725 0.297667 0.960039
C26   C     C_R   0.796881 0.547669 0.014362 -0.113493
C27   C     C_R   0.621398 0.516830 0.183870 -0.263727
C28   C     C_R   0.241899 0.461656 0.875942 -0.306346
C29   C     C_R   0.201523 0.484299 0.985099 0.647282
C30   C     C_R   0.299878 0.527388 0.032014 0.339442
C31   C     C_R   0.552185 0.511162 0.026127 0.073107
C32   C     C_R   0.696548 0.516101 0.964890 -0.111117
C33   C     C_R   0.737897 0.476072 0.858541 0.625942
C34   C     C_R   0.635035 0.439016 0.814584 -0.195573
C35   C     C_R   0.519790 0.497532 0.133900 -0.193653
C36   C     C_R   0.757645 0.552564 0.125037 0.736345
F1    F     F_    0.851553 0.589179 0.174349 -0.544679
F2    F     F_    0.194690 0.232595 0.651241 -0.643513
F3    F     F_    0.877126 0.459419 0.800835 -0.666965
F4    F     F_    0.064830 0.474483 0.044360 -0.587374
H1    H     H_    0.263017 0.810844 0.426712 0.194584
H2    H     H_    0.415580 0.467013 0.178414 0.231644
H3    H     H_    0.161127 0.447366 0.838398 0.252564
H4    H     H_    0.672340 0.387336 0.738855 0.194211
H5    H     H_    0.709365 0.886661 0.506077 0.178704
H6    H     H_    0.070837 0.209112 0.200862 0.399626
H7    H     H_    0.981261 0.047943 0.850623 0.410948
H8    H     H_    0.132351 0.640970 0.307389 0.362925
H9    H     H_    0.033678 0.919467 0.486832 0.182699
H10   H     H_    0.998700 0.117298 0.597011 0.188540
H11   H     H_    0.701687 0.110503 0.530224 0.211752
H12   H     H_    0.691275 0.675864 0.643290 0.226426
H13   H     H_    0.762556 0.817369 0.758690 0.209685
H14   H     H_    0.183616 0.667011 0.643480 0.225065
H15   H     H_    0.180244 0.349611 0.390770 0.196253
H16   H     H_    0.904547 0.565735 0.967197 0.250455
N1    N     N_R   0.856860 0.501200 0.500990 -0.184787
N2    N     N_R   0.142450 0.501280 0.501020 -0.142332
O1    O     O_R   0.385310 0.683220 0.500000 -0.656844
O2    O     O_2   0.805349 0.300072 0.319140 -0.232020
O3    O     O_3   0.076216 0.289559 0.239139 -0.503344
O4    O     O_2   0.995684 0.795829 0.900525 -0.250785
O5    O     O_2   0.185572 0.876942 0.752843 -0.324298
O6    O     O_3   0.937597 0.991088 0.809937 -0.552116
O7    O     O_2   0.354087 0.725432 0.146119 -0.310135
O8    O     O_2   0.122470 0.722109 0.119573 -0.167667
O9    O     O_3   0.167895 0.571395 0.253130 -0.524145
O10   O     O_R   0.614640 0.683250 0.500010 -0.641997
O11   O     O_R   0.328400 0.499950 0.653610 -0.588081
O12   O     O_R   0.557730 0.499970 0.653620 -0.672833
O13   O     O_R   0.385360 0.316750 0.499990 -0.590501
O14   O     O_R   0.614690 0.316780 0.500000 -0.587675
O15   O     O_R   0.442270 0.500030 0.346380 -0.623513
O16   O     O_R   0.671600 0.500050 0.346390 -0.503551
O17   O     O_2   0.938153 0.170858 0.403535 -0.383025
S1    S     S_3+6 0.935971 0.292430 0.350942 0.074561
S2    S     S_3+6 0.029335 0.854082 0.794779 0.026872
S3    S     S_3+6 0.236899 0.642162 0.138511 0.092972
Zn1   Zn    Zn3+2 0.346880 0.499980 0.499990 1.004062
Zn2   Zn    Zn3+2 0.653120 0.500020 0.500010 1.033998

loop_
_geom_bond_atom_site_label_1
_geom_bond_atom_site_label_2
_ccdc_geom_bond_type
O10   Zn2   S    
C26   C32   A    
O6    S2    S    
O4    S2    D    
C19   C20   A    
C16   O14   A    
C22   S1    S    
C22   N1    A    
C4    O12   A    
C7    C8    A    
C24   H15   S    
O9    S3    S    
C12   C23   A    
C33   F3    S    
C22   C24   A    
C36   F1    S    
C18   C19   A    
C1    O1    A    
C5    C6    A    
C1    O10   A    
C25   O16   A    
C35   H2    S    
C13   H11   S    
C3    H1    S    
C8    C9    A    
C9    C10   A    
C25   O15   A    
O16   Zn2   S    
C13   C14   A    
N1    Zn2   S    
C5    H9    S    
C16   O13   A    
O13   Zn1   S    
C4    O11   A    
C33   C34   A    
O3    S1    S    
O8    S3    D    
H6    O3    S    
O12   Zn2   S    
C34   H4    S    
O1    Zn1   S    
H7    O6    S    
C27   C35   A    
O2    S1    D    
C2    C4    S    
O17   S1    D    
C21   N1    A    
C29   C30   A    
C3    C9    A    
C31   C32   A    
C23   C34   A    
C17   C18   A    
O15   Zn1   S    
C15   H12   S    
C6    H10   S    
N2    Zn1   S    
C19   H14   S    
C26   C36   A    
C12   C31   A    
C31   C35   A    
C11   H5    S    
C20   N2    A    
C17   H13   S    
O5    S2    D    
C15   C17   A    
C28   C29   A    
C8    C14   A    
O7    S3    D    
C12   C30   A    
C1    C10   S    
C3    C5    A    
C26   H16   S    
C6    C7    A    
C27   C36   A    
C25   C27   S    
C28   H3    S    
C32   C33   A    
O14   Zn2   S    
C11   C13   A    
C18   S2    S    
C29   F4    S    
C7    F2    S    
C14   C16   S    
H8    O9    S    
O11   Zn1   S    
C10   C11   A    
C30   S3    S    
C15   C21   A    
C20   C21   A    
C24   N2    A    
C2    C23   A    
C2    C28   A    
