data_mof_unit_53969.cif
_audit_creation_date              2012-12-10T17:55:05-0500
_audit_creation_method            fapswitch 2.2
_symmetry_space_group_name_H-M    P1
_symmetry_Int_Tables_number       1
_space_group_crystal_system       triclinic
_cell_length_a                    8.850734
_cell_length_b                    10.849487
_cell_length_c                    9.630452
_cell_angle_alpha                 90.32012
_cell_angle_beta                  98.396091
_cell_angle_gamma                 93.534687
_cell_volume                      913.021542744

loop_
_atom_site_label
_atom_site_type_symbol
_atom_type_description
_atom_site_fract_x
_atom_site_fract_y
_atom_site_fract_z
_atom_type_partial_charge
C1    C     C_R   0.499594 0.262400 0.499353 0.843428
C2    C     C_R   0.500406 0.737599 0.500646 0.843429
C3    C     C_R   0.204601 0.500802 0.463910 0.816500
C4    C     C_R   0.795399 0.499197 0.536089 0.816496
C5    C     C_2   0.038827 0.489830 0.444893 -0.273853
C6    C     C_2   0.961173 0.510166 0.555107 -0.273856
C7    C     C_R   0.478120 0.060726 0.371359 0.637334
C8    C     C_R   0.521880 0.939274 0.628641 0.637333
C9    C     C_R   0.477761 0.933274 0.373557 -0.260319
C10   C     C_R   0.522239 0.066726 0.626443 -0.260317
C11   C     C_R   0.500067 0.871612 0.501586 -0.275933
C12   C     C_R   0.499932 0.128388 0.498414 -0.275933
C13   C     C_R   0.399284 0.422033 0.060081 0.082678
C14   C     C_R   0.600716 0.577966 0.939919 0.082686
C15   C     C_R   0.405385 0.417657 0.912327 0.081632
C16   C     C_R   0.594615 0.582343 0.087673 0.081634
Cu1   Cu    Cu3+1 0.500000 0.500020 0.640660 0.970123
Cu2   Cu    Cu3+1 0.500000 0.499980 0.359340 0.970121
H1    H     H_    0.458809 0.883037 0.274458 0.244556
H2    H     H_    0.541192 0.116963 0.725542 0.244559
N1    N     N_R   0.500040 0.500030 0.852080 -0.274845
N2    N     N_R   0.499960 0.499970 0.147920 -0.274845
O1    O     O_R   0.499990 0.319660 0.618740 -0.607761
O2    O     O_R   0.500010 0.680340 0.381260 -0.607762
O3    O     O_R   0.499990 0.319630 0.381170 -0.564599
O4    O     O_R   0.500010 0.680370 0.618830 -0.564596
O5    O     O_R   0.274840 0.500010 0.591370 -0.633381
O6    O     O_R   0.725160 0.499990 0.408630 -0.633381
O7    O     O_R   0.274830 0.499980 0.353800 -0.571495
O8    O     O_R   0.725170 0.500020 0.646200 -0.571496
C17   C     C_2   0.963821 0.439390 0.305935 0.435114
H3    H     H_    0.885157 0.358048 0.299928 0.106696
O9    O     O_2   0.987161 0.490532 0.197833 -0.452780
C18   C     C_2   0.036178 0.560605 0.694066 0.435121
H4    H     H_    0.114838 0.641950 0.700073 0.106692
O10   O     O_2   0.012845 0.509457 0.802167 -0.452780
F1    F     F_    0.456171 0.116513 0.244835 -0.629750
F2    F     F_    0.543831 0.883487 0.755165 -0.629750
C19   C     C_2   0.273411 0.349243 0.115385 0.589630
H5    H     H_    0.286596 0.312117 0.218958 0.118007
O11   O     O_2   0.147910 0.331447 0.044104 -0.487494
C20   C     C_2   0.726593 0.650752 0.884616 0.589623
H6    H     H_    0.713406 0.687882 0.781043 0.118006
O12   O     O_2   0.852096 0.668533 0.955893 -0.487495
C21   C     C_2   0.320411 0.314378 0.827115 0.513027
H7    H     H_    0.251770 0.329079 0.727612 0.102561
O13   O     O_2   0.326922 0.208589 0.869254 -0.509068
C22   C     C_2   0.679591 0.685622 0.172884 0.513009
H8    H     H_    0.748228 0.670921 0.272389 0.102564
O14   O     O_2   0.673088 0.791409 0.130743 -0.509070

loop_
_geom_bond_atom_site_label_1
_geom_bond_atom_site_label_2
_ccdc_geom_bond_type
C17   O9    D    
C17   H3    S    
C13   C15   A    
C14   C20   S    
C16   C22   S    
C22   O14   D    
Cu1   Cu2   S    
C7    F1    S    
C20   O12   D    
C4    O8    A    
C2    O4    A    
Cu2   O7    S    
C21   H7    S    
C1    O3    A    
Cu1   O8    S    
C9    C11   A    
C3    O7    A    
Cu1   O1    S    
Cu2   O3    S    
C10   C12   A    
C8    C11   A    
Cu2   O2    S    
C2    C11   S    
C14   N1    A    
C3    O5    A    
C22   H8    S    
C4    O6    A    
C13   N2    A    
C1    O1    A    
C18   O10   D    
C8    F2    S    
C2    O2    A    
C5    C6    D    
C14   C16   A    
C7    C12   A    
C13   C19   S    
C4    C6    S    
C20   H6    S    
Cu1   O4    S    
Cu1   O5    S    
C15   N1    A    
Cu2   O6    S    
C19   O11   D    
C18   H4    S    
C21   O13   D    
C19   H5    S    
C7    C9    A    
C15   C21   S    
C16   N2    A    
C5    C17   S    
Cu2   N2    S    
C9    H1    S    
C8    C10   A    
C1    C12   S    
C6    C18   S    
C10   H2    S    
C3    C5    S    
Cu1   N1    S    
