data_mof_unit_47263.cif
_audit_creation_date              2012-12-11T15:10:52-0500
_audit_creation_method            fapswitch 2.2
_symmetry_space_group_name_H-M    P1
_symmetry_Int_Tables_number       1
_space_group_crystal_system       triclinic
_cell_length_a                    21.056481
_cell_length_b                    7.227972
_cell_length_c                    18.570212
_cell_angle_alpha                 90.067457
_cell_angle_beta                  92.723897
_cell_angle_gamma                 90.018522
_cell_volume                      2823.11009317

loop_
_atom_site_label
_atom_site_type_symbol
_atom_type_description
_atom_site_fract_x
_atom_site_fract_y
_atom_site_fract_z
_atom_type_partial_charge
O1    O     O_R   0.448880 0.506250 0.415280 -0.539980
O2    O     O_R   0.551120 0.006250 0.584720 -0.537158
O3    O     O_R   0.434830 0.174000 0.557310 -0.517785
O4    O     O_R   0.565170 0.674000 0.442690 -0.516889
C1    C     C_R   0.418618 0.344163 0.581694 0.761206
C2    C     C_R   0.581121 0.844108 0.418004 0.762262
O5    O     O_R   0.441680 0.176440 0.414130 -0.528077
O6    O     O_R   0.558320 0.676440 0.585870 -0.529875
O7    O     O_R   0.558020 0.007570 0.440520 -0.507683
O8    O     O_R   0.441980 0.507570 0.559480 -0.509033
C3    C     C_R   0.425617 0.345461 0.390499 0.689469
C4    C     C_R   0.574125 0.845300 0.609706 0.690556
O9    O     O_3   0.538160 0.339670 0.508820 -0.363263
O10   O     O_3   0.461840 0.839670 0.491180 -0.368140
V1    V     V_3+5 0.492920 0.064260 0.498360 1.497581
V2    V     V_3+5 0.507080 0.564260 0.501640 1.492403
C5    C     C_R   0.887056 0.921352 0.689488 0.383580
C6    C     C_R   0.114989 0.520820 0.308206 0.380769
C7    C     C_R   0.890505 0.938174 0.820104 -0.217343
C8    C     C_R   0.109001 0.446566 0.180727 -0.208025
C9    C     C_R   0.589287 0.789500 0.738489 -0.160266
C10   C     C_R   0.412470 0.325471 0.259649 -0.161530
C11   C     C_R   0.625098 0.763890 0.802129 -0.123068
C12   C     C_R   0.379980 0.350488 0.193743 -0.123340
C13   C     C_R   0.689616 0.803706 0.805859 -0.062599
C14   C     C_R   0.315580 0.392717 0.190511 -0.068164
C15   C     C_R   0.720234 0.880803 0.746907 0.129699
C16   C     C_R   0.280368 0.401238 0.253208 0.131146
C17   C     C_R   0.684744 0.894048 0.678961 0.002068
C18   C     C_R   0.315038 0.398150 0.321712 0.008384
C19   C     C_R   0.787119 0.922372 0.752176 -0.035919
C20   C     C_R   0.212351 0.426420 0.249073 -0.029640
C21   C     C_R   0.819842 0.942228 0.687702 -0.063540
C22   C     C_R   0.182172 0.492664 0.311264 -0.056755
C23   C     C_R   0.784749 0.979547 0.622842 -0.048482
C24   C     C_R   0.219335 0.522224 0.375779 -0.058879
C25   C     C_R   0.718588 0.946849 0.617730 -0.206010
C26   C     C_R   0.281750 0.451484 0.383075 -0.197318
C27   C     C_R   0.823373 0.944758 0.818774 0.301825
C28   C     C_R   0.172806 0.385964 0.185841 0.302325
C29   C     C_R   0.922243 0.919538 0.755503 -0.156542
C30   C     C_R   0.080179 0.515225 0.242040 -0.153680
C31   C     C_R   0.617384 0.849920 0.675907 -0.093401
C32   C     C_R   0.382386 0.354054 0.324288 -0.089965
H1    H     H_    0.539217 0.753842 0.737260 0.107098
H2    H     H_    0.462803 0.293528 0.260187 0.106975
H3    H     H_    0.715649 0.761536 0.854436 0.175877
H4    H     H_    0.294731 0.428196 0.138219 0.168591
H5    H     H_    0.602949 0.706928 0.848650 0.133915
H6    H     H_    0.405319 0.340734 0.144494 0.130901
C33   C     C_1   0.864097 0.939098 0.131562 -0.132306
C34   C     C_1   0.135790 0.438922 0.868300 -0.128230
C35   C     C_1   0.820860 0.924923 0.174826 0.035823
C36   C     C_1   0.178943 0.424767 0.824926 0.034608
C37   C     C_1   0.769769 0.905589 0.226241 0.041032
C38   C     C_1   0.229942 0.405484 0.773394 0.032148
C39   C     C_1   0.726726 0.888775 0.269623 0.041238
C40   C     C_1   0.272918 0.388707 0.729924 0.035422
C41   C     C_1   0.675702 0.869464 0.321121 0.046551
C42   C     C_1   0.323887 0.369438 0.678358 0.042676
C43   C     C_1   0.632742 0.855318 0.364736 -0.102842
C44   C     C_1   0.366858 0.355330 0.634760 -0.102406
O11   O     O_R   0.058070 0.289240 0.940580 -0.529036
O12   O     O_R   0.941930 0.789240 0.059420 -0.526033
O13   O     O_R   0.058330 0.616740 0.085880 -0.549713
O14   O     O_R   0.941670 0.116740 0.914120 -0.529337
C45   C     C_R   0.072230 0.448884 0.110809 0.807723
C46   C     C_R   0.928316 0.948404 0.888955 0.806244
O15   O     O_R   0.065180 0.619040 0.942700 -0.514472
O16   O     O_R   0.934820 0.119040 0.057300 -0.512714
O17   O     O_R   0.948870 0.787780 0.915270 -0.522521
O18   O     O_R   0.051130 0.287780 0.084730 -0.503210
C47   C     C_R   0.083287 0.450327 0.920296 0.733002
C48   C     C_R   0.916696 0.950397 0.079687 0.734748
O19   O     O_3   0.961870 0.453310 0.991210 -0.368832
O20   O     O_3   0.038130 0.953310 0.008790 -0.367927
V3    V     V_3+5 0.007070 0.728770 0.001630 1.561837
V4    V     V_3+5 0.992930 0.228770 0.998370 1.594178
C49   C     C_2   0.992851 0.909286 0.756052 0.848911
O21   O     O_2   0.021560 0.794486 0.793301 -0.562598
O22   O     O_R   0.026341 0.030995 0.713326 -0.605926
H7    H     H_    0.074007 0.010991 0.718184 0.316836
C50   C     C_2   0.012058 0.572546 0.238539 0.863253
O23   O     O_2   0.971825 0.476608 0.206827 -0.563491
O24   O     O_R   0.994170 0.736737 0.271955 -0.609656
H8    H     H_    0.946803 0.761158 0.265943 0.312854
C51   C     C_2   0.815906 0.077947 0.563223 0.893599
O25   O     O_2   0.810349 0.020992 0.501195 -0.499621
O26   O     O_R   0.852848 0.234841 0.579199 -0.626462
H9    H     H_    0.872064 0.289485 0.534932 0.352227
C52   C     C_2   0.196129 0.645035 0.433430 0.888798
O27   O     O_2   0.192790 0.588318 0.495196 -0.496286
O28   O     O_R   0.177117 0.825507 0.415992 -0.630198
H10   H     H_    0.161922 0.896036 0.459147 0.346741
Cl1   Cl    Cl    0.926947 0.857325 0.610905 -0.480784
Cl2   Cl    Cl    0.070009 0.526185 0.386990 -0.476764
Cl3   Cl    Cl    0.788027 0.021769 0.898338 -0.685790
Cl4   Cl    Cl    0.196385 0.231994 0.117591 -0.676740
C53   C     C_2   0.688586 0.948717 0.545107 0.798978
O29   O     O_2   0.687589 0.805158 0.510589 -0.528272
O30   O     O_R   0.667930 0.113990 0.512887 -0.629129
H11   H     H_    0.673080 0.223955 0.546583 0.267903
C54   C     C_2   0.310057 0.435888 0.456434 0.796074
O31   O     O_2   0.311182 0.284670 0.485534 -0.530176
O32   O     O_R   0.330333 0.593257 0.494828 -0.633074
H12   H     H_    0.328000 0.709888 0.464560 0.266861

loop_
_geom_bond_atom_site_label_1
_geom_bond_atom_site_label_2
_ccdc_geom_bond_type
O14   C46   A    
C51   O25   D    
O28   H10   S    
O16   V4    S    
C6    Cl2   S    
O12   V3    S    
C8    C45   S    
O15   V3    S    
O1    C3    A    
C33   C48   S    
C25   C53   S    
O2    C4    A    
C2    O7    A    
O22   H7    S    
O24   H8    S    
O5    C3    A    
O30   H11   S    
C2    C43   S    
C23   C25   A    
C12   C14   A    
C4    C31   S    
C6    C30   A    
C28   Cl4   S    
C8    C28   A    
C27   Cl3   S    
C15   C17   A    
C40   C42   S    
C18   C26   A    
C42   C44   T    
C45   O18   A    
O18   V4    S    
C9    C31   A    
C23   C51   S    
C10   C32   A    
C50   O23   D    
C38   C40   T    
O13   C45   A    
O16   C48   A    
C19   C21   A    
O15   C47   A    
C5    Cl1   S    
C13   H3    S    
C14   H4    S    
O5    V1    S    
O6    V2    S    
C17   C31   A    
C18   C32   A    
C5    C21   A    
C34   C36   T    
C9    H1    S    
C35   C37   S    
C12   H6    S    
O14   V4    S    
C36   C38   S    
C41   C43   T    
O13   V3    S    
C15   C19   A    
C16   C20   A    
O20   V3    S    
O4    C2    A    
C34   C47   S    
C52   O27   D    
C49   O22   S    
O11   C47   A    
C33   C35   T    
C20   C22   A    
O4    V2    S    
C26   C54   S    
C52   O28   S    
C53   O29   D    
O6    C4    A    
C7    C46   S    
C54   O32   S    
O1    V2    S    
O2    V1    S    
C6    C22   A    
C7    C27   A    
C24   C52   S    
C10   H2    S    
C37   C39   T    
C10   C12   A    
C39   C41   S    
C3    C32   S    
O17   V3    S    
C20   C28   A    
O3    V1    S    
C50   O24   S    
C30   C50   S    
O3    C1    A    
C29   C49   S    
C8    C30   A    
C13   C15   A    
O32   H12   S    
C14   C16   A    
C9    C11   A    
O7    V1    S    
C16   C18   A    
O8    V2    S    
C46   O17   A    
C24   C26   A    
C21   C23   A    
C19   C27   A    
C1    C44   S    
C22   C24   A    
C11   C13   A    
O19   V4    S    
C5    C29   A    
C11   H5    S    
C49   O21   D    
C1    O8    A    
O9    V2    S    
C17   C25   A    
C54   O31   D    
C51   O26   S    
O12   C48   A    
O10   V1    S    
O26   H9    S    
C53   O30   S    
C7    C29   A    
O11   V4    S    
