data_mof_unit_50108.cif
_audit_creation_date              2012-12-10T17:39:08-0500
_audit_creation_method            fapswitch 2.2
_symmetry_space_group_name_H-M    P1
_symmetry_Int_Tables_number       1
_space_group_crystal_system       triclinic
_cell_length_a                    12.131062
_cell_length_b                    12.883973
_cell_length_c                    23.285416
_cell_angle_alpha                 92.861099
_cell_angle_beta                  85.459001
_cell_angle_gamma                 93.733591
_cell_volume                      3616.63266119

loop_
_atom_site_label
_atom_site_type_symbol
_atom_type_description
_atom_site_fract_x
_atom_site_fract_y
_atom_site_fract_z
_atom_type_partial_charge
C1    C     C_R   0.522061 0.700236 0.499224 0.919984
C2    C     C_R   0.451652 0.383729 0.305356 -0.149675
C3    C     C_R   0.378675 0.425642 0.761477 -0.009425
C4    C     C_R   0.438074 0.371951 0.245785 0.022347
C5    C     C_R   0.474261 0.446054 0.791936 0.060619
C6    C     C_R   0.479618 0.452093 0.209329 0.038874
C7    C     C_R   0.464679 0.188403 0.501580 -0.145209
C8    C     C_R   0.535173 0.811849 0.498544 -0.154490
C9    C     C_R   0.648833 0.970580 0.485717 0.497837
C10   C     C_R   0.350889 0.029809 0.514511 0.491770
C11   C     C_R   0.639335 0.862801 0.487279 -0.289778
C12   C     C_R   0.477928 0.299868 0.501073 0.903269
C13   C     C_R   0.360640 0.137725 0.513580 -0.209281
C14   C     C_R   0.440197 0.867549 0.507869 -0.223067
C15   C     C_R   0.559391 0.132620 0.491289 -0.239340
C16   C     C_R   0.497705 0.491071 0.610411 0.928324
C17   C     C_R   0.500415 0.497399 0.389618 0.890643
C18   C     C_R   0.447278 0.974226 0.505656 -0.003086
C19   C     C_R   0.552330 0.026038 0.493928 0.001898
C20   C     C_R   0.955241 0.402614 0.444483 0.461144
C21   C     C_R   0.045692 0.602219 0.554057 0.445503
C22   C     C_R   0.839063 0.406211 0.452547 -0.057640
C23   C     C_R   0.578504 0.470162 0.762800 -0.070568
C24   C     C_R   0.161909 0.595863 0.546464 -0.046341
C25   C     C_R   0.858420 0.550804 0.519498 0.023996
C26   C     C_R   0.140547 0.449761 0.481009 0.011020
C27   C     C_R   0.975567 0.539791 0.518619 -0.158803
C28   C     C_R   0.024052 0.462602 0.481472 -0.154701
C29   C     C_R   0.521512 0.368084 0.116080 0.520564
C30   C     C_R   0.406334 0.508744 0.886310 0.524386
C31   C     C_R   0.391755 0.500732 0.126236 0.525613
C32   C     C_R   0.508379 0.355618 0.876565 0.522016
C33   C     C_R   0.376702 0.492785 0.066691 -0.066565
C34   C     C_R   0.537227 0.542584 0.231182 -0.067063
C35   C     C_R   0.497963 0.344358 0.936761 -0.068190
C36   C     C_R   0.438947 0.420443 0.031945 -0.096184
C37   C     C_R   0.439780 0.419689 0.971459 -0.096241
C38   C     C_R   0.504693 0.351889 0.057441 -0.119194
C39   C     C_R   0.386210 0.497347 0.945750 -0.119769
C40   C     C_R   0.306077 0.556854 0.040171 -0.131885
C41   C     C_R   0.546225 0.263582 0.963780 -0.132119
C42   C     C_R   0.313032 0.560441 0.979808 0.404589
C43   C     C_R   0.551411 0.269066 0.023902 0.406093
C44   C     C_2   0.221511 0.619185 0.072941 0.537043
C45   C     C_R   0.586976 0.469776 0.702250 0.419224
C46   C     C_2   0.590048 0.170591 0.931905 0.541439
C47   C     C_2   0.190294 0.357950 0.452197 0.596095
C48   C     C_2   0.806524 0.640336 0.549939 0.573154
C49   C     C_2   0.232243 0.671694 0.579841 0.423994
C50   C     C_2   0.769923 0.330184 0.418636 0.446817
C51   C     C_3   0.021138 0.407907 0.350584 0.081747
C52   C     C_3   0.072471 0.344906 0.299541 -0.692284
C53   C     C_3   0.983874 0.619676 0.648671 0.088189
C54   C     C_3   0.950442 0.698392 0.696661 -0.642995
C55   C     C_3   0.149161 0.567604 0.939380 0.119199
C56   C     C_R   0.541051 0.558224 0.291193 0.453312
C57   C     C_3   0.079602 0.636014 0.907228 -0.691145
C58   C     C_3   0.520008 0.115396 0.068222 0.108406
C59   C     C_3   0.573668 0.033556 0.099624 -0.664850
C60   C     C_2   0.677805 0.495550 0.796033 0.503852
C61   C     C_2   0.593591 0.618884 0.190601 0.509890
C62   C     C_3   0.710200 0.358196 0.661760 0.175678
C63   C     C_3   0.827233 0.347011 0.634639 -0.817689
C64   C     C_3   0.508231 0.721456 0.327910 0.103342
C65   C     C_3   0.564272 0.829103 0.338226 -0.679853
C66   C     C_2   0.287933 0.404805 0.668935 0.535886
C67   C     C_R   0.489983 0.466946 0.672248 -0.263825
C68   C     C_2   0.419239 0.297976 0.345173 0.486719
C69   C     C_2   0.273561 0.387790 0.793785 0.443942
C70   C     C_2   0.383533 0.276296 0.219616 0.539968
C71   C     C_3   0.807880 0.034889 0.523318 0.040541
C72   C     C_3   0.905532 0.113904 0.513422 -0.669802
C73   C     C_3   0.187284 0.972106 0.479298 0.045289
C74   C     C_3   0.087417 0.895800 0.489752 -0.649270
C75   C     C_R   0.498952 0.479040 0.327588 -0.281346
C76   C     C_R   0.385963 0.437044 0.701429 -0.122663
H1    H     H_    0.639671 0.172467 0.482165 0.229672
H2    H     H_    0.688964 0.346398 0.407649 0.110832
H3    H     H_    0.080124 0.475184 0.360530 0.121220
H4    H     H_    0.942640 0.437411 0.337871 0.153944
H5    H     H_    0.015287 0.277545 0.288079 0.276297
H6    H     H_    0.088630 0.394557 0.261779 0.213071
H7    H     H_    0.152012 0.316017 0.310525 0.271815
H8    H     H_    0.059744 0.583746 0.660355 0.124929
H9    H     H_    0.915286 0.558731 0.645717 0.171405
H10   H     H_    0.872188 0.732442 0.687555 0.247906
H11   H     H_    0.937708 0.659605 0.738386 0.234973
H12   H     H_    0.359756 0.827625 0.516049 0.233793
H13   H     H_    0.016630 0.761660 0.700019 0.261590
H14   H     H_    0.099053 0.541317 0.978735 0.134513
H15   H     H_    0.168619 0.498288 0.910698 0.160433
H16   H     H_    0.126956 0.662059 0.867171 0.281001
H17   H     H_    0.002565 0.591362 0.895515 0.208385
H18   H     H_    0.057064 0.705294 0.934915 0.242575
H19   H     H_    0.480219 0.076228 0.030743 0.135881
H20   H     H_    0.454911 0.149612 0.098532 0.160614
H21   H     H_    0.612552 0.070159 0.137875 0.287202
H22   H     H_    0.509997 0.972653 0.114177 0.205490
H23   H     H_    0.287581 0.181273 0.523109 0.224925
H24   H     H_    0.638055 0.996583 0.070342 0.240760
H25   H     H_    0.669835 0.500618 0.842767 0.056379
H26   H     H_    0.591714 0.604845 0.144387 0.052512
H27   H     H_    0.651308 0.320550 0.631526 0.140852
H28   H     H_    0.702026 0.315365 0.702506 0.165954
H29   H     H_    0.888497 0.379027 0.664874 0.267106
H30   H     H_    0.841019 0.263380 0.624953 0.211721
H31   H     H_    0.839419 0.388352 0.593847 0.241653
H32   H     H_    0.457385 0.700063 0.367909 0.131253
H33   H     H_    0.452528 0.726075 0.292318 0.157008
H34   H     H_    0.712581 0.819540 0.478124 0.224075
H35   H     H_    0.606232 0.857200 0.297279 0.282971
H36   H     H_    0.501682 0.884606 0.354820 0.197673
H37   H     H_    0.626959 0.826033 0.370154 0.258023
H38   H     H_    0.212037 0.445022 0.676863 0.080850
H39   H     H_    0.467021 0.288991 0.381797 0.023730
H40   H     H_    0.276776 0.342393 0.831575 0.068496
H41   H     H_    0.324567 0.282930 0.187480 0.019708
H42   H     H_    0.839521 0.959702 0.534134 0.188222
H43   H     H_    0.753937 0.065013 0.560731 0.132640
H44   H     H_    0.875116 0.191937 0.507841 0.260541
H45   H     H_    0.211763 0.698631 0.061673 0.083191
H46   H     H_    0.956616 0.118623 0.551094 0.204783
H47   H     H_    0.957740 0.090598 0.474181 0.287329
H48   H     H_    0.237064 0.943109 0.440079 0.140827
H49   H     H_    0.157488 0.049546 0.471299 0.194253
H50   H     H_    0.039006 0.918510 0.530383 0.279292
H51   H     H_    0.033443 0.895542 0.453385 0.206729
H52   H     H_    0.115195 0.816043 0.493094 0.266205
H53   H     H_    0.669662 0.144120 0.941107 0.081779
H54   H     H_    0.263782 0.367264 0.423547 0.083671
H55   H     H_    0.738315 0.628868 0.582129 0.098239
H56   H     H_    0.310568 0.652678 0.593253 0.116304
N1    N     N_R   0.464278 0.440195 0.148885 -0.371713
N2    N     N_R   0.464810 0.437735 0.853346 -0.370607
N3    N     N_R   0.207800 0.519350 0.510590 -0.201125
N4    N     N_R   0.792200 0.480650 0.489410 -0.205432
O1    O     O_R   0.421690 0.658830 0.502820 -0.657115
O2    O     O_2   0.369042 0.590535 0.861199 -0.487467
O3    O     O_2   0.339467 0.571493 0.161254 -0.535989
O4    O     O_2   0.565042 0.288427 0.841195 -0.530700
O5    O     O_2   0.156872 0.579875 0.109746 -0.524298
O6    O     O_2   0.533997 0.118549 0.898454 -0.516713
O7    O     O_2   0.150120 0.270425 0.461362 -0.574384
O8    O     O_2   0.839629 0.729011 0.538594 -0.595181
O9    O     O_2   0.202512 0.758926 0.593353 -0.515412
O10   O     O_2   0.803505 0.245588 0.402193 -0.511172
O11   O     O_3   0.000538 0.343687 0.398204 -0.542713
O12   O     O_R   0.578310 0.341170 0.497180 -0.670114
O13   O     O_3   0.002473 0.670923 0.596271 -0.554763
O14   O     O_3   0.246577 0.625612 0.954296 -0.582867
O15   O     O_3   0.602102 0.192029 0.049692 -0.583364
O16   O     O_2   0.769702 0.513267 0.771955 -0.557733
O17   O     O_2   0.644822 0.697513 0.207788 -0.525558
O18   O     O_3   0.690068 0.464915 0.672389 -0.582708
O19   O     O_3   0.590323 0.649161 0.314383 -0.564541
O20   O     O_2   0.291765 0.332241 0.633183 -0.563720
O21   O     O_2   0.337660 0.239133 0.338929 -0.552460
O22   O     O_2   0.183035 0.409857 0.780327 -0.593904
O23   O     O_R   0.609320 0.646410 0.496030 -0.619798
O24   O     O_2   0.409216 0.189888 0.230755 -0.519218
O25   O     O_3   0.751135 0.021197 0.472558 -0.581749
O26   O     O_3   0.248913 0.979127 0.528440 -0.579489
O27   O     O_R   0.390680 0.353590 0.503970 -0.613255
O28   O     O_R   0.406170 0.506240 0.587240 -0.643657
O29   O     O_R   0.593830 0.493760 0.412760 -0.615878
O30   O     O_R   0.593790 0.493820 0.580450 -0.606410
O31   O     O_R   0.406210 0.506180 0.419550 -0.660712
O32   O     O_2   0.596063 0.314136 0.140346 -0.480532
Zn1   Zn    Zn3+2 0.374720 0.508290 0.504530 0.927684
Zn2   Zn    Zn3+2 0.625280 0.491710 0.495470 0.937688

loop_
_geom_bond_atom_site_label_1
_geom_bond_atom_site_label_2
_ccdc_geom_bond_type
C7    C13   A    
C29   N1    A    
C69   H40   S    
C34   C56   A    
C30   O2    S    
O23   Zn2   S    
C1    C8    S    
C73   C74   S    
C14   C18   A    
C31   N1    A    
C46   H53   S    
C4    C70   S    
C1    O1    A    
O31   Zn1   S    
C15   H1    S    
C53   C54   S    
C16   O28   A    
C15   C19   A    
C64   O19   S    
C62   C63   S    
C53   H8    S    
C23   C45   A    
C29   O32   S    
C36   C37   A    
C35   C37   A    
C32   O4    S    
C6    N1    S    
C2    C68   S    
C54   H11   S    
C70   H41   S    
C47   O7    D    
C44   H45   S    
O29   Zn2   S    
C33   C36   A    
C48   O8    D    
C18   C19   A    
C60   O16   D    
C25   N4    A    
C58   H20   S    
C51   H4    S    
C65   H35   S    
C55   H15   S    
C26   N3    A    
C9    C19   A    
C74   H52   S    
C16   O30   A    
C44   O5    D    
C30   N2    A    
C29   C38   A    
C45   C67   A    
O12   Zn2   S    
C41   C46   S    
C31   C33   A    
C48   H55   S    
C52   H6    S    
C21   O13   S    
C63   H29   S    
C71   O25   S    
O1    Zn1   S    
C22   C50   S    
C72   H46   S    
C50   O10   D    
C40   C42   A    
C21   C27   A    
C10   O26   S    
C56   C75   A    
C57   H17   S    
C11   H34   S    
C53   O13   S    
C59   H24   S    
C41   C43   A    
O28   Zn1   S    
C5    N2    S    
C56   O19   S    
O27   Zn1   S    
C50   H2    S    
C64   H32   S    
C39   C42   A    
C62   H28   S    
C23   C60   S    
C49   H56   S    
C33   C40   A    
C47   H54   S    
C51   C52   S    
C32   C35   A    
C1    O23   A    
C54   H13   S    
C46   O6    D    
C17   O31   A    
C54   H10   S    
C20   C28   A    
C58   C59   S    
C34   C61   S    
C6    C34   A    
C22   N4    A    
C13   H23   S    
C52   H7    S    
C2    C4    A    
C58   H19   S    
C65   H36   S    
C73   O26   S    
C74   H51   S    
C5    C23   A    
C51   O11   S    
C73   H48   S    
C66   C76   S    
C72   H44   S    
C69   O22   D    
C20   O11   S    
C49   O9    D    
C16   C67   S    
C63   H30   S    
C9    O25   S    
C3    C76   A    
C9    C11   A    
C25   C48   S    
C35   C41   A    
C26   C47   S    
C24   N3    A    
C4    C6    A    
N4    Zn2   S    
O30   Zn2   S    
C57   H18   S    
C55   C57   S    
C72   H47   S    
C59   H21   S    
C7    C12   S    
C25   C27   A    
C31   O3    S    
C60   H25   S    
C43   O15   S    
C58   O15   S    
C55   O14   S    
C62   H27   S    
C24   C49   S    
C8    C14   A    
C66   H38   S    
C71   H42   S    
C3    C69   S    
C65   H37   S    
C20   C22   A    
C3    C5    A    
C10   C13   A    
C61   O17   D    
C45   O18   S    
C55   H14   S    
C26   C28   A    
C71   H43   S    
C64   C65   S    
C12   O12   A    
C36   C38   A    
C61   H26   S    
C14   H12   S    
C38   C43   A    
C37   C39   A    
C17   O29   A    
C12   O27   A    
C32   N2    A    
C64   H33   S    
C74   H50   S    
C10   C18   A    
C8    C11   A    
C73   H49   S    
C7    C15   A    
C30   C39   A    
C57   H16   S    
C70   O24   D    
N3    Zn1   S    
C52   H5    S    
C42   O14   S    
C51   H3    S    
C68   H39   S    
C62   O18   S    
C40   C44   S    
C71   C72   S    
C21   C24   A    
C27   C28   A    
C17   C75   S    
C59   H22   S    
C53   H9    S    
C67   C76   A    
C66   O20   D    
C63   H31   S    
C2    C75   A    
C68   O21   D    
