data_mof_unit_39970.cif
_audit_creation_date              2013-03-05T16:03:20-0500
_audit_creation_method            fapswitch 2.2
_symmetry_space_group_name_H-M    P1
_symmetry_Int_Tables_number       1
_space_group_crystal_system       triclinic
_cell_length_a                    27.354089
_cell_length_b                    11.703144
_cell_length_c                    10.462204
_cell_angle_alpha                 89.905418
_cell_angle_beta                  90.202817
_cell_angle_gamma                 89.847058
_cell_volume                      3349.21572533

loop_
_atom_site_label
_atom_site_type_symbol
_atom_site_description
_atom_site_fract_x
_atom_site_fract_y
_atom_site_fract_z
_atom_type_partial_charge
O1    O     O_R   0.500000 0.337200 0.605810 -0.566653
O2    O     O_R   0.500000 0.662800 0.394190 -0.566663
O3    O     O_R   0.500000 0.662800 0.605810 -0.565443
O4    O     O_R   0.500000 0.337200 0.394190 -0.580180
C1    C     C_R   0.500102 0.283326 0.500085 0.820700
C2    C     C_R   0.499904 0.716676 0.499934 0.813429
O5    O     O_R   0.430260 0.500000 0.605800 -0.561496
O6    O     O_R   0.569740 0.500000 0.394200 -0.584099
O7    O     O_R   0.569740 0.500000 0.605800 -0.562824
O8    O     O_R   0.430260 0.500000 0.394200 -0.585556
C3    C     C_R   0.406966 0.495905 0.499754 0.853344
C4    C     C_R   0.593044 0.498023 0.500274 0.860907
Cu1   Cu    Cu3+1 0.500000 0.500000 0.625300 0.973250
Cu2   Cu    Cu3+1 0.500000 0.500000 0.374700 0.959317
C5    C     C_R   0.176343 0.327563 0.540265 0.613326
C6    C     C_R   0.823518 0.552791 0.666380 0.625852
C7    C     C_R   0.182502 0.478343 0.684523 0.643800
C8    C     C_R   0.817446 0.359557 0.622268 0.654391
O9    O     O_2   0.197830 0.225522 0.521476 -0.489814
O10   O     O_2   0.801041 0.629021 0.742539 -0.498927
O11   O     O_2   0.211588 0.533868 0.767673 -0.520335
O12   O     O_2   0.787825 0.270076 0.643700 -0.513152
N1    N     N_R   0.203067 0.418143 0.585096 -0.436854
N2    N     N_R   0.797161 0.466574 0.611549 -0.435518
C9    C     C_R   0.272746 0.557251 0.556290 0.486864
C10   C     C_R   0.724226 0.396718 0.484557 0.490106
C11   C     C_R   0.279999 0.373224 0.456264 0.481675
C12   C     C_R   0.723413 0.591858 0.557061 0.480965
C13   C     C_R   0.323639 0.574132 0.545673 -0.019744
C14   C     C_R   0.673181 0.399381 0.466238 -0.016585
C15   C     C_R   0.331168 0.384912 0.449403 -0.021830
C16   C     C_R   0.672302 0.597281 0.539411 -0.022089
C17   C     C_R   0.252190 0.446942 0.536271 -0.000323
C18   C     C_R   0.747897 0.484124 0.556347 0.002523
C19   C     C_R   0.102431 0.416405 0.614251 -0.132266
C20   C     C_R   0.897626 0.446196 0.629199 -0.127097
C21   C     C_R   0.125102 0.335766 0.533698 -0.136483
C22   C     C_R   0.874865 0.551898 0.657762 -0.140057
C23   C     C_R   0.130987 0.480853 0.700213 -0.093033
C24   C     C_R   0.869138 0.345601 0.618190 -0.124879
C25   C     C_R   0.096034 0.267828 0.450486 0.045068
C26   C     C_R   0.903864 0.651706 0.673689 0.037620
C27   C     C_R   0.106700 0.544232 0.797199 0.049583
C28   C     C_R   0.893426 0.237415 0.606119 0.021067
C29   C     C_R   0.353379 0.484513 0.499291 -0.234462
C30   C     C_R   0.646771 0.498068 0.501904 -0.232607
C31   C     C_R   0.971605 0.338501 0.580990 -0.019973
C32   C     C_R   0.028691 0.514652 0.685445 -0.019875
C33   C     C_R   0.977802 0.533106 0.663736 -0.032699
C34   C     C_R   0.022333 0.343600 0.553041 -0.019716
C35   C     C_R   0.948910 0.439293 0.624438 -0.085258
C36   C     C_R   0.051170 0.424567 0.618019 -0.083347
C37   C     C_R   0.944430 0.235301 0.576716 0.485351
C38   C     C_R   0.056950 0.576116 0.776893 0.460284
C39   C     C_R   0.955299 0.641784 0.671940 0.543457
C40   C     C_R   0.044613 0.276550 0.457116 0.531861
C41   C     C_1   0.500136 0.162001 0.500213 -0.179728
C42   C     C_1   0.500001 0.838023 0.499872 -0.187587
C43   C     C_1   0.500133 0.059739 0.500156 -0.006593
C44   C     C_1   0.500080 0.940294 0.499992 -0.001306
N3    N     N_1   0.500000 0.500000 0.186410 -0.142052
N4    N     N_1   0.500000 0.500000 0.813590 -0.142622
C45   C     C_1   0.499998 0.500004 0.072044 0.082270
C46   C     C_1   0.499998 0.500010 0.927953 0.080717
C47   C     C_3   0.360439 0.288232 0.388966 -0.338163
C48   C     C_3   0.361543 0.183486 0.476110 -0.782863
H1    H     H_    0.378768 0.205464 0.569181 0.241630
H2    H     H_    0.323984 0.151135 0.493035 0.289045
H3    H     H_    0.383326 0.114542 0.430613 0.232003
H4    H     H_    0.344180 0.264704 0.295217 0.228801
H5    H     H_    0.398662 0.311598 0.368226 0.206449
C49   C     C_3   0.646141 0.711042 0.556734 -0.331129
C50   C     C_3   0.640520 0.739789 0.698101 -0.738940
H6    H     H_    0.619092 0.672355 0.747227 0.252702
H7    H     H_    0.676908 0.747366 0.744704 0.278938
H8    H     H_    0.620901 0.822474 0.708046 0.225366
H9    H     H_    0.666681 0.780388 0.508337 0.222413
H10   H     H_    0.609409 0.711270 0.511506 0.172457
C51   C     C_3   0.345026 0.689648 0.581069 -0.330716
C52   C     C_3   0.348332 0.703303 0.725871 -0.726255
H11   H     H_    0.311445 0.698422 0.769516 0.282707
H12   H     H_    0.371940 0.635371 0.767589 0.251332
H13   H     H_    0.364483 0.787730 0.749115 0.222426
H14   H     H_    0.381966 0.702169 0.539912 0.172400
H15   H     H_    0.322101 0.759385 0.540410 0.222083
C53   C     C_3   0.647947 0.294414 0.411876 -0.346290
C54   C     C_3   0.640560 0.204267 0.515477 -0.773939
H16   H     H_    0.676320 0.176729 0.555852 0.288902
H17   H     H_    0.617395 0.239145 0.593303 0.241983
H18   H     H_    0.622008 0.128569 0.473944 0.229074
H19   H     H_    0.611981 0.315118 0.368728 0.200080
H20   H     H_    0.669885 0.257381 0.332895 0.230894
O13   O     O_3   0.258052 0.297784 0.372547 -0.523594
C55   C     C_3   0.241084 0.359873 0.265356 -0.362383
H21   H     H_    0.271278 0.407218 0.217842 0.161244
H22   H     H_    0.211185 0.419773 0.292170 0.140864
H23   H     H_    0.226030 0.298814 0.194552 0.196317
O14   O     O_3   0.748780 0.693731 0.564037 -0.529298
C56   C     C_3   0.769615 0.716377 0.443414 -0.380618
H24   H     H_    0.741281 0.719485 0.366763 0.158519
H25   H     H_    0.798252 0.652344 0.419297 0.150968
H26   H     H_    0.787391 0.801410 0.446767 0.189446
O15   O     O_3   0.243438 0.651035 0.582528 -0.530985
C57   C     C_3   0.217835 0.682163 0.470396 -0.353605
H27   H     H_    0.190914 0.615615 0.442379 0.150450
H28   H     H_    0.243316 0.699763 0.389966 0.148940
H29   H     H_    0.197116 0.761899 0.489478 0.200415
O16   O     O_3   0.750523 0.309332 0.427837 -0.542853
C58   C     C_3   0.774703 0.353418 0.319640 -0.381302
H30   H     H_    0.748345 0.391823 0.250374 0.163300
H31   H     H_    0.793619 0.282074 0.270500 0.194049
H32   H     H_    0.802987 0.417032 0.347120 0.157445
C59   C     C_3   0.118090 0.193884 0.345899 -0.325888
C60   C     C_3   0.117512 0.067777 0.383451 -0.735557
H33   H     H_    0.138010 0.053875 0.473935 0.274145
H34   H     H_    0.079379 0.037816 0.396176 0.242951
H35   H     H_    0.134872 0.016194 0.306977 0.219917
H36   H     H_    0.097476 0.204986 0.255079 0.203630
H37   H     H_    0.155776 0.220030 0.321784 0.230742
C61   C     C_3   0.881810 0.771135 0.680872 -0.328727
C62   C     C_3   0.881520 0.815129 0.818117 -0.722493
H38   H     H_    0.861171 0.755776 0.881289 0.269913
H39   H     H_    0.919514 0.823835 0.854558 0.256526
H40   H     H_    0.863525 0.900210 0.821308 0.218547
H41   H     H_    0.902946 0.831325 0.620878 0.195387
H42   H     H_    0.844555 0.775389 0.639680 0.240275
C63   C     C_3   0.129897 0.562643 0.928502 -0.328715
C64   C     C_3   0.144870 0.449575 0.991531 -0.823407
H43   H     H_    0.173684 0.404798 0.936628 0.275793
H44   H     H_    0.159273 0.466522 0.089003 0.219353
H45   H     H_    0.112626 0.392527 0.999932 0.242046
H46   H     H_    0.161178 0.622443 0.923223 0.235586
H47   H     H_    0.103545 0.601108 0.996133 0.211690
C65   C     C_3   0.867596 0.125879 0.639517 -0.319462
C66   C     C_3   0.836119 0.078905 0.529705 -0.739743
H48   H     H_    0.804484 0.031626 0.569597 0.257244
H49   H     H_    0.822268 0.148077 0.466600 0.293704
H50   H     H_    0.856996 0.018268 0.469807 0.188411
H51   H     H_    0.893927 0.059234 0.670654 0.206898
H52   H     H_    0.845165 0.138217 0.726592 0.222143
O17   O     O_3   0.970441 0.132816 0.573856 -0.578426
C67   C     C_3   0.956187 0.063149 0.469710 -0.220860
H53   H     H_    0.932766 0.107023 0.397109 0.164352
H54   H     H_    0.937934 0.985373 0.505632 0.139475
H55   H     H_    0.989438 0.031991 0.420495 0.194777
O18   O     O_3   0.033751 0.651269 0.859861 -0.576972
C68   C     C_3   0.055702 0.760989 0.853669 -0.217153
H56   H     H_    0.072660 0.780486 0.759301 0.165026
H57   H     H_    0.083202 0.772448 0.930464 0.120200
H58   H     H_    0.026965 0.826316 0.870341 0.208145
O19   O     O_3   0.982936 0.740474 0.666492 -0.565485
C69   C     C_3   0.999009 0.757505 0.539777 -0.413497
H59   H     H_    0.967834 0.760035 0.471075 0.147723
H60   H     H_    0.025850 0.691046 0.510773 0.169204
H61   H     H_    0.017846 0.841175 0.534602 0.201072
O20   O     O_3   0.016703 0.227938 0.361148 -0.590195
C70   C     C_3   0.002025 0.314049 0.274363 -0.399590
H62   H     H_    0.033863 0.362781 0.236956 0.160270
H63   H     H_    0.975130 0.373305 0.318457 0.170829
H64   H     H_    0.983778 0.272847 0.191650 0.201486

loop_
_geom_bond_atom_site_label_1
_geom_bond_atom_site_label_2
_geom_bond_distance
_ccdc_geom_bond_type
C66   H50   1.106468 S    
C48   H2    1.110573 S    
C54   H16   1.110894 S    
C5    O9    1.344647 S    
O13   C55   1.411700 S    
C50   H6    1.110759 S    
C2    C42   1.420158 S    
C19   C23   1.410061 A    
C68   H56   1.115820 S    
C40   O20   1.383250 S    
O3    C2    1.273660 A    
C64   H43   1.108045 S    
C57   H28   1.113867 S    
C60   H33   1.110081 S    
C66   H48   1.110626 S    
C16   C49   1.521211 S    
C11   C17   1.423724 A    
O5    C3    1.278503 A    
C70   H62   1.114084 S    
C21   C25   1.422343 A    
C8    N2    1.372750 A    
O20   C70   1.411883 S    
C68   H57   1.107251 S    
C22   C26   1.423398 A    
C32   C36   1.410421 A    
C53   H19   1.107086 S    
C58   H31   1.109134 S    
C65   H52   1.109585 S    
C51   H14   1.109766 S    
C52   H11   1.110579 S    
C61   H42   1.106020 S    
C41   C43   1.196785 T    
C48   H3    1.110565 S    
C42   C44   1.196904 T    
C47   H4    1.110894 S    
O16   C58   1.410761 S    
C66   H49   1.108874 S    
C7    C23   1.419495 A    
N3    C45   1.196522 T    
O7    Cu1   1.919267 S    
C63   H46   1.108335 S    
C5    C21   1.406108 A    
C62   H40   1.110167 S    
N4    C46   1.196493 T    
O15   C57   1.410997 S    
C59   H37   1.106005 S    
C28   C37   1.429909 A    
C10   C18   1.425617 A    
Cu1   N4    1.969929 S    
C33   C35   1.415226 A    
C49   H10   1.109086 S    
O19   C69   1.412189 S    
C14   C53   1.520862 S    
C37   O17   1.393332 S    
O3    Cu1   1.915818 S    
C6    O10   1.345991 S    
C38   O18   1.390388 S    
C5    N1    1.371675 A    
C48   H1    1.111107 S    
C12   C18   1.426123 A    
C43   C44   1.397889 S    
C6    N2    1.367419 A    
Cu1   Cu2   2.621828 S    
C9    C13   1.411334 A    
C50   H7    1.110652 S    
C67   H55   1.107955 S    
O2    C2    1.274284 A    
C52   H13   1.110375 S    
C57   H27   1.112213 S    
C31   C34   1.420498 A    
C28   C65   1.526554 S    
C45   C46   1.507503 S    
C11   C15   1.408776 A    
C12   C16   1.410843 A    
C68   H58   1.109514 S    
C52   H12   1.110719 S    
O8    Cu2   1.919270 S    
C58   H32   1.112512 S    
C10   O16   1.384399 S    
C65   H51   1.108029 S    
C53   C54   1.525651 S    
C9    O15   1.385845 S    
C31   C35   1.408295 A    
C55   H23   1.109094 S    
N1    C17   1.478781 S    
C47   H5    1.103623 S    
Cu2   N3    1.969928 S    
C34   C40   1.413765 A    
C59   H36   1.110440 S    
C13   C29   1.413245 A    
C32   C38   1.424894 A    
C25   C40   1.411946 A    
C49   H9    1.110762 S    
C26   C39   1.411596 A    
C27   C38   1.425247 A    
C34   C36   1.408738 A    
C56   H24   1.113776 S    
C13   C51   1.520315 S    
C69   H61   1.109045 S    
O5    Cu1   1.917834 S    
O6    C4    1.278011 A    
C7    N1    1.378158 A    
C55   H22   1.112757 S    
O4    C1    1.273828 A    
C62   H38   1.110073 S    
C59   C60   1.526761 S    
C20   C35   1.405997 A    
C4    C30   1.469685 S    
C32   C33   1.425449 A    
C56   H25   1.112546 S    
C69   H60   1.111498 S    
C10   C14   1.408976 A    
C70   H64   1.109102 S    
C54   H17   1.111073 S    
C50   H8    1.110485 S    
O1    C1    1.274100 A    
C3    C29   1.472220 S    
O1    Cu1   1.916487 S    
C27   C63   1.526980 S    
C63   C64   1.531640 S    
C64   H45   1.111261 S    
C51   H15   1.111095 S    
C20   C24   1.418174 A    
C61   C62   1.526240 S    
O18   C68   1.420457 S    
C12   O14   1.382960 S    
C15   C47   1.523871 S    
O6    Cu2   1.917831 S    
C19   C21   1.410191 A    
C8    O12   1.344807 S    
C16   C30   1.412011 A    
C14   C30   1.412063 A    
C63   H47   1.107171 S    
C25   C59   1.521573 S    
C49   C50   1.525538 S    
C64   H44   1.110279 S    
C60   H34   1.109733 S    
C39   O19   1.383293 S    
C65   C66   1.536585 S    
C1    C41   1.419879 S    
C20   C22   1.416211 A    
C33   C39   1.414391 A    
C58   H30   1.113787 S    
C26   C61   1.522931 S    
C31   C37   1.420564 A    
C61   H41   1.108024 S    
C67   H54   1.105294 S    
C47   C48   1.526692 S    
O4    Cu2   1.915818 S    
C55   H21   1.113872 S    
O2    Cu2   1.916487 S    
O7    C4    1.277018 A    
N2    C18   1.477942 S    
C62   H39   1.110753 S    
C60   H35   1.110322 S    
C11   O13   1.381564 S    
O8    C3    1.277805 A    
C51   C52   1.526004 S    
C24   C28   1.434226 A    
C56   H26   1.109317 S    
C8    C24   1.423759 A    
C69   H59   1.113619 S    
C23   C27   1.423289 A    
C70   H63   1.111625 S    
O14   C56   1.411540 S    
C15   C29   1.415572 A    
C54   H18   1.110528 S    
C9    C17   1.424983 A    
C19   C36   1.405898 A    
C67   H53   1.115586 S    
C53   H20   1.110887 S    
O17   C67   1.416195 S    
C57   H29   1.109253 S    
C6    C22   1.407767 A    
C7    O11   1.346023 S    
