data_mof_unit_23892.cif
_audit_creation_date              2012-10-26T20:00:12-0400
_audit_creation_method            fapswitch 2.2
_symmetry_space_group_name_H-M    P1
_symmetry_Int_Tables_number       1
_space_group_crystal_system       triclinic
_cell_length_a                    23.515434
_cell_length_b                    10.880432
_cell_length_c                    9.785393
_cell_angle_alpha                 87.434491
_cell_angle_beta                  89.451438
_cell_angle_gamma                 90.044103
_cell_volume                      2501.04599786

loop_
_atom_site_label
_atom_site_type_symbol
_atom_type_description
_atom_site_fract_x
_atom_site_fract_y
_atom_site_fract_z
_atom_type_partial_charge
C1    C     C_R   0.496908 0.265344 0.502798 0.601368
C2    C     C_R   0.121622 0.586894 0.408601 0.379106
C3    C     C_R   0.233529 0.534227 0.591214 -0.055267
C4    C     C_R   0.390945 0.500108 0.500608 0.528201
C5    C     C_R   0.292732 0.540846 0.604776 -0.015766
C6    C     C_R   0.327967 0.496020 0.498974 0.000214
C7    C     C_R   0.302354 0.445697 0.384579 -0.148130
C8    C     C_R   0.243282 0.440076 0.371660 0.054132
C9    C     C_R   0.208834 0.485601 0.476142 0.245450
C10   C     C_R   0.762162 0.508717 0.612636 -0.113858
C11   C     C_R   0.702805 0.508688 0.617086 -0.155305
C12   C     C_R   0.969111 0.292372 0.579553 -0.124739
C13   C     C_R   0.671602 0.499110 0.496197 -0.053101
C14   C     C_R   0.700848 0.488831 0.371200 -0.101215
C15   C     C_R   0.760064 0.488447 0.366963 0.442984
C16   C     C_R   0.498689 0.734353 0.497272 0.530442
C17   C     C_R   0.790962 0.498895 0.487588 0.251194
C18   C     C_2   0.463379 0.936383 0.413406 0.035046
C19   C     C_2   0.499553 0.866967 0.490073 -0.087249
C20   C     C_2   0.473273 0.069878 0.402038 0.352571
C21   C     C_2   0.486904 0.133329 0.512257 0.330947
C22   C     C_2   0.482445 0.408794 0.930119 0.095673
C23   C     C_R   0.027954 0.289231 0.576000 -0.130215
C24   C     C_2   0.500585 0.403608 0.077520 0.043112
C25   C     C_R   0.608930 0.499821 0.499222 0.562802
C26   C     C_R   0.879706 0.599439 0.423748 0.436503
C27   C     C_R   0.880543 0.398937 0.532875 0.415338
C28   C     C_R   0.939771 0.395231 0.525354 0.033685
C29   C     C_R   0.969982 0.495953 0.462951 -0.046203
C30   C     C_R   0.940271 0.600737 0.409803 0.013393
C31   C     C_3   0.414437 0.883948 0.333471 -0.254798
C32   C     C_3   0.358024 0.944942 0.369133 -0.426163
C33   C     C_3   0.443778 0.307507 0.884155 -0.217114
C34   C     C_R   0.058847 0.388608 0.517548 0.029960
C35   C     C_3   0.392070 0.286187 0.978387 -0.464895
C36   C     C_3   0.471821 0.612902 0.099162 -0.080550
C37   C     C_3   0.407880 0.598995 0.074922 -0.405282
C38   C     C_3   0.062894 0.767988 0.212658 -0.235385
C39   C     C_3   0.086670 0.692065 0.097065 -0.409760
C40   C     C_3   0.944062 0.822537 0.302552 -0.236398
C41   C     C_3   0.916223 0.821948 0.161312 -0.370663
C42   C     C_3   0.315535 0.597696 0.731680 -0.270686
C43   C     C_3   0.340764 0.725277 0.699567 -0.400972
C44   C     C_3   0.218454 0.387100 0.244852 -0.261291
C45   C     C_R   0.030063 0.492028 0.458406 -0.047206
C46   C     C_3   0.227401 0.248140 0.244443 -0.428576
C47   C     C_R   0.061468 0.589944 0.395053 0.021038
C48   C     C_R   0.031939 0.686663 0.322284 0.027846
C49   C     C_R   0.971983 0.699597 0.342961 0.010833
C50   C     C_R   0.118236 0.386951 0.518215 0.391560
Cu1   Cu    Cu3+1 0.500010 0.500020 0.638630 0.937806
Cu2   Cu    Cu3+1 0.499990 0.499980 0.361370 0.944813
F1    F     F_    0.787509 0.477426 0.245503 -0.605953
F2    F     F_    0.466106 0.127527 0.277096 -0.686177
F3    F     F_    0.486004 0.077821 0.639912 -0.690623
H1    H     H_    0.946698 0.214188 0.626680 0.167197
H2    H     H_    0.785842 0.516828 0.706172 0.153478
H3    H     H_    0.350174 0.937257 0.481240 0.155139
H4    H     H_    0.358255 0.043637 0.334823 0.185936
H5    H     H_    0.322735 0.898674 0.316938 0.143926
H6    H     H_    0.423117 0.899281 0.222205 0.176742
H7    H     H_    0.408790 0.783694 0.354243 0.146887
H8    H     H_    0.405069 0.263262 0.085223 0.205268
H9    H     H_    0.364360 0.368653 0.976057 0.124469
H10   H     H_    0.366788 0.207932 0.942320 0.156201
H11   H     H_    0.426800 0.329251 0.781416 0.214681
H12   H     H_    0.681439 0.516747 0.714793 0.158470
H13   H     H_    0.468562 0.220772 0.881347 0.201506
H14   H     H_    0.400342 0.579841 0.966695 0.140741
H15   H     H_    0.389238 0.523747 0.140634 0.173535
H16   H     H_    0.385408 0.685967 0.096219 0.107080
H17   H     H_    0.476437 0.686860 0.169194 0.176132
H18   H     H_    0.493485 0.657113 0.009879 0.104614
H19   H     H_    0.118758 0.624248 0.134112 0.177206
H20   H     H_    0.051563 0.642139 0.048294 0.149841
H21   H     H_    0.107289 0.754265 0.018251 0.138495
H22   H     H_    0.035301 0.836602 0.160705 0.125656
H23   H     H_    0.678001 0.480689 0.276458 0.161040
H24   H     H_    0.096185 0.825176 0.257613 0.200269
H25   H     H_    0.948577 0.818579 0.078531 0.127716
H26   H     H_    0.887854 0.741434 0.151930 0.224109
H27   H     H_    0.890849 0.907175 0.144341 0.162326
H28   H     H_    0.913410 0.850154 0.382087 0.200328
H29   H     H_    0.974957 0.899525 0.304394 0.118048
H30   H     H_    0.375726 0.722221 0.623032 0.177309
H31   H     H_    0.307159 0.788361 0.659305 0.150193
H32   H     H_    0.357925 0.762621 0.794565 0.145994
H33   H     H_    0.281058 0.608213 0.808867 0.123704
H34   H     H_    0.533620 0.908853 0.545963 0.150631
H35   H     H_    0.346732 0.535458 0.782434 0.168178
H36   H     H_    0.273462 0.225631 0.242930 0.143167
H37   H     H_    0.207176 0.202586 0.336440 0.199047
H38   H     H_    0.207720 0.211597 0.151872 0.142860
H39   H     H_    0.172213 0.405856 0.236438 0.160504
H40   H     H_    0.239080 0.431410 0.152532 0.129808
H41   H     H_    0.534740 0.544645 0.879201 0.219505
H42   H     H_    0.509763 0.314136 0.125073 0.190684
H43   H     H_    0.049157 0.208896 0.620584 0.162993
H44   H     H_    0.205814 0.568985 0.669726 0.116990
H45   H     H_    0.328529 0.409673 0.303957 0.126027
N1    N     N_R   0.852009 0.499585 0.482638 -0.370378
N2    N     N_R   0.148061 0.485711 0.465975 -0.400470
N3    N     N_2   0.499380 0.498660 0.846910 -0.355006
N4    N     N_2   0.499370 0.498630 0.153040 -0.244010
O1    O     O_R   0.500010 0.321960 0.617040 -0.486353
O2    O     O_R   0.582130 0.500060 0.617050 -0.494867
O3    O     O_R   0.582110 0.500020 0.382900 -0.493167
O4    O     O_2   0.847844 0.695269 0.378592 -0.495659
O5    O     O_2   0.851381 0.302184 0.589376 -0.486671
O6    O     O_2   0.146163 0.288460 0.572920 -0.515505
O7    O     O_2   0.153836 0.684941 0.369771 -0.526719
O8    O     O_R   0.499990 0.321920 0.382900 -0.471680
O9    O     O_R   0.417890 0.499980 0.617100 -0.518035
O10   O     O_R   0.417870 0.499940 0.382950 -0.513430
O11   O     O_R   0.500010 0.678080 0.617100 -0.481874
O12   O     O_R   0.499990 0.678040 0.382960 -0.523285

loop_
_geom_bond_atom_site_label_1
_geom_bond_atom_site_label_2
_ccdc_geom_bond_type
C5    C42   S    
C1    C21   S    
C37   H14   S    
C31   H6    S    
C40   H28   S    
C32   H3    S    
C41   H25   S    
C7    C8    A    
C12   C23   A    
Cu1   O9    S    
C12   C28   A    
C3    C9    A    
C15   F1    S    
C4    O10   A    
C36   C37   S    
C16   C19   S    
C1    O8    A    
C38   C39   S    
C46   H37   S    
C38   H24   S    
Cu2   O8    S    
C10   C17   A    
Cu1   N3    S    
C40   C49   S    
C2    N2    A    
C50   O6    S    
C18   C19   D    
C39   H19   S    
C40   H29   S    
C17   N1    S    
Cu2   N4    S    
C47   C48   A    
Cu2   O3    S    
C11   H12   S    
C8    C9    A    
C25   O2    A    
C35   H9    S    
C39   H20   S    
C38   C48   S    
C45   C47   A    
C13   C14   A    
C31   H7    S    
C13   C25   S    
C16   O12   A    
C44   C46   S    
C33   H11   S    
Cu2   O12   S    
C2    O7    S    
C34   C50   A    
C7    H45   S    
Cu1   Cu2   S    
C43   H30   S    
C4    O9    A    
C10   H2    S    
C20   F2    S    
C36   H18   S    
C26   O4    S    
C21   F3    S    
C9    N2    S    
C46   H36   S    
C27   N1    A    
Cu1   O11   S    
C22   N3    D    
C24   H42   S    
C29   C45   A    
C24   N4    D    
C29   C30   A    
C19   H34   S    
C31   C32   S    
Cu1   O1    S    
C23   C34   A    
C41   H26   S    
C34   C45   A    
C39   H21   S    
C12   H1    S    
C4    C6    S    
C48   C49   A    
C30   C49   A    
C50   N2    A    
C37   H16   S    
C22   C24   S    
C42   H33   S    
C42   C43   S    
C32   H5    S    
C16   O11   A    
C25   O3    A    
C15   C17   A    
C22   C33   S    
C28   C29   A    
C43   H31   S    
C8    C44   S    
C3    C5    A    
C35   H8    S    
C26   C30   A    
C6    C7    A    
C38   H22   S    
Cu2   O10   S    
C2    C47   A    
C36   N4    S    
C43   H32   S    
C26   N1    A    
C44   H40   S    
C11   C13   A    
C5    C6    A    
C46   H38   S    
Cu1   O2    S    
C41   H27   S    
C33   C35   S    
C18   C20   S    
C14   H23   S    
C44   H39   S    
C10   C11   A    
C3    H44   S    
C23   H43   S    
C20   C21   D    
C27   O5    S    
H41   N3    S    
C27   C28   A    
C35   H10   S    
C14   C15   A    
C40   C41   S    
C18   C31   S    
C32   H4    S    
C42   H35   S    
C37   H15   S    
C36   H17   S    
C33   H13   S    
C1    O1    A    
