data_mof_unit_47131.cif
_audit_creation_date              2013-03-05T15:40:40-0500
_audit_creation_method            fapswitch 2.2
_symmetry_space_group_name_H-M    P1
_symmetry_Int_Tables_number       1
_space_group_crystal_system       triclinic
_cell_length_a                    18.785345
_cell_length_b                    11.269192
_cell_length_c                    19.673743
_cell_angle_alpha                 89.988977
_cell_angle_beta                  89.360807
_cell_angle_gamma                 90.034448
_cell_volume                      4164.58599667

loop_
_atom_site_label
_atom_site_type_symbol
_atom_site_description
_atom_site_fract_x
_atom_site_fract_y
_atom_site_fract_z
_atom_type_partial_charge
O1    O     O_R   0.043230 0.549300 0.667990 -0.524322
O2    O     O_R   0.956770 0.549300 0.332010 -0.531296
O3    O     O_R   0.543230 0.049300 0.667990 -0.532617
O4    O     O_R   0.456770 0.049300 0.332010 -0.524291
O5    O     O_R   0.178620 0.457600 0.674100 -0.460350
O6    O     O_R   0.821380 0.457600 0.325900 -0.462469
O7    O     O_R   0.678620 0.957600 0.674100 -0.467794
O8    O     O_R   0.321380 0.957600 0.325900 -0.455104
C1    C     C_R   0.241314 0.468302 0.646517 0.621054
C2    C     C_R   0.755919 0.459767 0.351133 0.605921
C3    C     C_R   0.741642 0.968180 0.646676 0.617204
C4    C     C_R   0.256248 0.959987 0.351435 0.602361
O9    O     O_R   0.284680 0.542100 0.669460 -0.479911
O10   O     O_R   0.715320 0.542100 0.330540 -0.476389
O11   O     O_R   0.784680 0.042100 0.669460 -0.479262
O12   O     O_R   0.215320 0.042100 0.330540 -0.477960
O13   O     O_R   0.262860 0.790390 0.676650 -0.528848
O14   O     O_R   0.737140 0.790390 0.323350 -0.522037
O15   O     O_R   0.762860 0.290390 0.676650 -0.524480
O16   O     O_R   0.237140 0.290390 0.323350 -0.525368
C5    C     C_R   0.224915 0.871289 0.646859 0.584114
C6    C     C_R   0.776305 0.868339 0.353958 0.587792
C7    C     C_R   0.724878 0.370919 0.646669 0.584888
C8    C     C_R   0.276752 0.367733 0.354146 0.587345
O17   O     O_R   0.167460 0.907030 0.670940 -0.472875
O18   O     O_R   0.832540 0.907030 0.329060 -0.477700
O19   O     O_R   0.667460 0.407030 0.670940 -0.478853
O20   O     O_R   0.332540 0.407030 0.329060 -0.473594
O21   O     O_R   0.053950 0.750220 0.675100 -0.534635
O22   O     O_R   0.946050 0.750220 0.324900 -0.535151
O23   O     O_R   0.553950 0.250220 0.675100 -0.533922
O24   O     O_R   0.446050 0.250220 0.324900 -0.535562
C9    C     C_R   0.031873 0.653956 0.644792 0.531065
C10   C     C_R   0.967107 0.653660 0.355886 0.531307
C11   C     C_R   0.533028 0.153587 0.644053 0.532515
C12   C     C_R   0.468180 0.153974 0.355174 0.531112
O25   O     O_R   0.043300 0.547370 0.827390 -0.455298
O26   O     O_R   0.956700 0.547370 0.172610 -0.453634
O27   O     O_R   0.543300 0.047370 0.827390 -0.451946
O28   O     O_R   0.456700 0.047370 0.172610 -0.453473
O29   O     O_R   0.178690 0.455820 0.821860 -0.450734
O30   O     O_R   0.821310 0.455820 0.178140 -0.450778
O31   O     O_R   0.678690 0.955820 0.821860 -0.444544
O32   O     O_R   0.321310 0.955820 0.178140 -0.445860
C13   C     C_R   0.231739 0.486009 0.855220 0.585994
C14   C     C_R   0.768197 0.485835 0.144831 0.585021
C15   C     C_R   0.731836 0.986004 0.855336 0.586591
C16   C     C_R   0.267972 0.985185 0.144424 0.583378
O33   O     O_R   0.284750 0.540170 0.828860 -0.521856
O34   O     O_R   0.715250 0.540170 0.171140 -0.524755
O35   O     O_R   0.784750 0.040170 0.828860 -0.530776
O36   O     O_R   0.215250 0.040170 0.171140 -0.533787
O37   O     O_R   0.262920 0.788600 0.824420 -0.487529
O38   O     O_R   0.737080 0.788600 0.175580 -0.487452
O39   O     O_R   0.762920 0.288600 0.824420 -0.486544
O40   O     O_R   0.237080 0.288600 0.175580 -0.485325
C17   C     C_R   0.226199 0.867527 0.853881 0.581105
C18   C     C_R   0.773813 0.867216 0.145998 0.581188
C19   C     C_R   0.725993 0.366144 0.854376 0.581561
C20   C     C_R   0.274049 0.366047 0.145582 0.582600
O41   O     O_R   0.167530 0.905110 0.830340 -0.462024
O42   O     O_R   0.832470 0.905110 0.169660 -0.461190
O43   O     O_R   0.667530 0.405110 0.830340 -0.461131
O44   O     O_R   0.332470 0.405110 0.169660 -0.462552
O45   O     O_R   0.054010 0.748440 0.822860 -0.468066
O46   O     O_R   0.945990 0.748440 0.177140 -0.467609
O47   O     O_R   0.554010 0.248440 0.822860 -0.466406
O48   O     O_R   0.445990 0.248440 0.177140 -0.468486
C21   C     C_R   0.032754 0.651456 0.852214 0.601707
C22   C     C_R   0.967310 0.651499 0.147806 0.602441
C23   C     C_R   0.533032 0.151362 0.852319 0.605331
C24   C     C_R   0.466876 0.151380 0.147636 0.604198
Cr1   Cr    Cr6+3 0.113970 0.508630 0.747920 1.112863
Cr2   Cr    Cr6+3 0.886030 0.508630 0.252080 1.109351
Cr3   Cr    Cr6+3 0.613970 0.008630 0.747920 1.111172
Cr4   Cr    Cr6+3 0.386030 0.008630 0.252080 1.113886
Cr5   Cr    Cr6+3 0.269200 0.666740 0.749850 1.090925
Cr6   Cr    Cr6+3 0.730800 0.666740 0.250150 1.089967
Cr7   Cr    Cr6+3 0.769200 0.166740 0.749850 1.088945
Cr8   Cr    Cr6+3 0.230800 0.166740 0.250150 1.088927
Cr9   Cr    Cr6+3 0.112300 0.820070 0.749800 1.090752
Cr10  Cr    Cr6+3 0.887700 0.820070 0.250200 1.090678
Cr11  Cr    Cr6+3 0.612300 0.320070 0.749800 1.092907
Cr12  Cr    Cr6+3 0.387700 0.320070 0.250200 1.090632
O49   O     O_3   0.165160 0.665150 0.749190 -0.329391
O50   O     O_3   0.834840 0.665150 0.250810 -0.327365
O51   O     O_3   0.665160 0.165150 0.749190 -0.329499
O52   O     O_3   0.334840 0.165150 0.250810 -0.325653
C25   C     C_2   0.236879 0.915594 0.577933 0.222973
C26   C     C_2   0.764582 0.912265 0.422845 0.208146
C27   C     C_2   0.736657 0.413589 0.577241 0.219313
C28   C     C_2   0.265678 0.412324 0.422893 0.204678
C29   C     C_2   0.235540 0.912565 0.418010 0.264610
C30   C     C_2   0.764971 0.919243 0.581521 0.282687
C31   C     C_2   0.733674 0.412792 0.417373 0.272561
C32   C     C_2   0.263367 0.417313 0.581546 0.279366
C33   C     C_2   0.285327 0.866885 0.459606 0.193938
C34   C     C_2   0.719172 0.860289 0.541807 0.186963
C35   C     C_2   0.780377 0.356792 0.457536 0.188666
C36   C     C_2   0.214181 0.369853 0.539899 0.189162
C37   C     C_2   0.274332 0.847956 0.533549 -0.154845
C38   C     C_2   0.728342 0.844399 0.467292 -0.150336
C39   C     C_2   0.771474 0.342591 0.532407 -0.151040
C40   C     C_2   0.225391 0.349558 0.466292 -0.158373
H1    H     H_    0.304146 0.774801 0.554607 0.132421
H2    H     H_    0.698394 0.772853 0.445782 0.150182
H3    H     H_    0.800005 0.268392 0.553818 0.148862
H4    H     H_    0.192646 0.281823 0.444402 0.137277
C41   C     C_R   0.989777 0.656382 0.428012 -0.007988
C42   C     C_R   0.006863 0.657464 0.573678 -0.004654
C43   C     C_R   0.493348 0.157452 0.426234 -0.005862
C44   C     C_R   0.510606 0.156133 0.571864 -0.005857
C45   C     C_R   0.976437 0.873919 0.435509 -0.096329
C46   C     C_R   0.016939 0.875051 0.566597 -0.089617
C47   C     C_R   0.483878 0.374991 0.433253 -0.094423
C48   C     C_R   0.524408 0.373710 0.564308 -0.086609
C49   C     C_R   0.974576 0.975717 0.472343 -0.032973
C50   C     C_R   0.007570 0.978484 0.532402 -0.028576
C51   C     C_R   0.494380 0.478396 0.467186 -0.029850
C52   C     C_R   0.527352 0.475282 0.527255 -0.029367
C53   C     C_R   0.005490 0.763295 0.535774 -0.021933
C54   C     C_R   0.991808 0.762925 0.465577 -0.025401
C55   C     C_R   0.508699 0.262747 0.534298 -0.021268
C56   C     C_R   0.494968 0.263197 0.464120 -0.025378
H5    H     H_    0.945921 0.049537 0.453205 0.230317
H6    H     H_    0.021710 0.058903 0.556257 0.208311
H7    H     H_    0.480923 0.558957 0.443153 0.209138
H8    H     H_    0.556483 0.548772 0.546339 0.228678
H9    H     H_    0.966164 0.896622 0.385200 0.190744
H10   H     H_    0.027000 0.896780 0.617154 0.183614
H11   H     H_    0.473352 0.396696 0.382786 0.184405
H12   H     H_    0.534131 0.396593 0.614699 0.190356
C57   C     C_R   0.995691 0.549290 0.537436 -0.023918
C58   C     C_R   0.995355 0.547851 0.465896 -0.029562
C59   C     C_R   0.505297 0.047517 0.533916 -0.030155
C60   C     C_R   0.504728 0.049281 0.462377 -0.025545
C61   C     C_R   0.984016 0.438348 0.572491 -0.071769
C62   C     C_R   0.000050 0.433450 0.433172 -0.071801
C63   C     C_R   0.501077 0.932728 0.566482 -0.070502
C64   C     C_R   0.516496 0.938684 0.427136 -0.073817
C65   C     C_R   0.980465 0.333513 0.537397 0.260952
C66   C     C_R   0.993707 0.330610 0.469938 0.263386
C67   C     C_R   0.507354 0.830108 0.529395 0.265948
C68   C     C_R   0.520242 0.833650 0.461909 0.262798
H13   H     H_    0.009951 0.409101 0.380682 0.177198
H14   H     H_    0.975026 0.419982 0.625900 0.170357
H15   H     H_    0.525441 0.920771 0.373718 0.170295
H16   H     H_    0.491505 0.907741 0.618977 0.177490
C69   C     C_2   0.252101 0.907791 0.919253 0.138462
C70   C     C_2   0.747104 0.907687 0.080864 0.139212
C71   C     C_2   0.754188 0.406682 0.919006 0.134772
C72   C     C_2   0.245853 0.406554 0.080962 0.135007
C73   C     C_2   0.260364 0.926051 0.080910 0.243820
C74   C     C_2   0.738382 0.929203 0.920092 0.244188
C75   C     C_2   0.762389 0.430849 0.080050 0.256052
C76   C     C_2   0.237615 0.430849 0.919943 0.257259
C77   C     C_2   0.220063 0.990053 0.034468 -0.124301
C78   C     C_2   0.775690 0.992905 0.965796 -0.120778
C79   C     C_2   0.733109 0.501406 0.031481 -0.117576
C80   C     C_2   0.266655 0.501721 0.968611 -0.118434
C81   C     C_2   0.206943 0.961678 0.963846 0.112970
C82   C     C_2   0.791147 0.962520 0.036139 0.112358
C83   C     C_2   0.712483 0.464182 0.964153 0.107056
C84   C     C_2   0.287575 0.463935 0.035749 0.106973
H17   H     H_    0.184863 0.065601 0.053147 0.195537
H18   H     H_    0.808224 0.070382 0.948290 0.188613
H19   H     H_    0.708605 0.587441 0.047010 0.168915
H20   H     H_    0.290883 0.588296 0.953238 0.166811
C85   C     C_2   0.000016 0.658580 0.920483 0.250290
C86   C     C_2   0.000123 0.658648 0.079548 0.249608
C87   C     C_2   0.500312 0.157984 0.920546 0.253282
C88   C     C_2   0.499360 0.157959 0.079304 0.253098
C89   C     C_2   0.995546 0.560476 0.037972 0.226003
C90   C     C_2   0.004635 0.560461 0.962100 0.225801
C91   C     C_2   0.493742 0.060100 0.037606 0.229439
C92   C     C_2   0.505539 0.060064 0.962240 0.228886
O53   O     O_3   0.349784 0.832597 0.430946 -0.688458
H21   H     H_    0.377962 0.787313 0.466251 0.340869
O54   O     O_3   0.660696 0.809044 0.573332 -0.703109
H22   H     H_    0.638320 0.751900 0.540956 0.356534
O55   O     O_3   0.838654 0.305234 0.425934 -0.702026
H23   H     H_    0.863618 0.253102 0.460257 0.353413
O56   O     O_3   0.148840 0.338224 0.567915 -0.689519
H24   H     H_    0.121985 0.289417 0.534237 0.345296
Br1   Br    Br    0.114617 0.025065 0.941231 -0.296826
Br2   Br    Br    0.884441 0.022495 0.056917 -0.298036
Br3   Br    Br    0.617072 0.516460 0.947453 -0.296236
Br4   Br    Br    0.383301 0.515183 0.052068 -0.297182
O57   O     O_3   0.298525 0.820873 0.070477 -0.601430
H25   H     H_    0.265782 0.767841 0.042652 0.324198
O58   O     O_3   0.702310 0.822398 0.930054 -0.611826
H26   H     H_    0.734415 0.770240 0.955844 0.332303
O59   O     O_3   0.791153 0.317538 0.071855 -0.610358
H27   H     H_    0.758013 0.273765 0.041166 0.329648
O60   O     O_3   0.209180 0.317074 0.928007 -0.609236
H28   H     H_    0.242361 0.273695 0.958913 0.330427
Br5   Br    Br    0.350392 0.867476 0.936535 -0.437607
Br6   Br    Br    0.648989 0.865044 0.063895 -0.437526
Br7   Br    Br    0.851253 0.359348 0.936988 -0.437263
Br8   Br    Br    0.148768 0.359136 0.062960 -0.438301
O61   O     O_3   0.982449 0.450348 0.069019 -0.620818
H29   H     H_    0.962881 0.387800 0.038640 0.394132
O62   O     O_3   0.017781 0.450373 0.931089 -0.621111
H30   H     H_    0.037188 0.387762 0.961492 0.394180
O63   O     O_3   0.476933 0.950805 0.067979 -0.618986
H31   H     H_    0.460482 0.887458 0.036596 0.396533
O64   O     O_3   0.521759 0.950594 0.931862 -0.618808
H32   H     H_    0.538668 0.887558 0.963246 0.395667
O65   O     O_3   0.023984 0.768963 0.059019 -0.631123
H33   H     H_    0.074456 0.762151 0.044214 0.333261
O66   O     O_3   0.976141 0.768864 0.940937 -0.629918
H34   H     H_    0.925819 0.761822 0.956147 0.334753
O67   O     O_3   0.524871 0.267336 0.058938 -0.625735
H35   H     H_    0.575329 0.258561 0.044505 0.334705
O68   O     O_3   0.475036 0.267481 0.940865 -0.625012
H36   H     H_    0.424544 0.258948 0.955269 0.335786
O69   O     O_3   0.168019 0.946357 0.440083 -0.676237
H37   H     H_    0.139226 0.875487 0.450858 0.331765
O70   O     O_3   0.832333 0.956090 0.560948 -0.672951
H38   H     H_    0.860266 0.885790 0.544315 0.330630
O71   O     O_3   0.667397 0.451763 0.439642 -0.684226
H39   H     H_    0.637419 0.382641 0.451215 0.329133
O72   O     O_3   0.333017 0.445025 0.562638 -0.667402
H40   H     H_    0.356368 0.374976 0.539799 0.337041
O73   O     O_3   0.196175 0.013211 0.559422 -0.619418
H41   H     H_    0.229465 0.068171 0.527911 0.326176
O74   O     O_3   0.805433 0.008777 0.441529 -0.661519
H42   H     H_    0.772984 0.068802 0.464097 0.338179
O75   O     O_3   0.697232 0.512534 0.558973 -0.642820
H43   H     H_    0.731089 0.566795 0.527687 0.327175
O76   O     O_3   0.309356 0.505072 0.442531 -0.647705
H44   H     H_    0.278516 0.567401 0.465122 0.336646
O77   O     O_3   0.960791 0.233763 0.572044 -0.703007
H45   H     H_    0.992970 0.229138 0.611545 0.323581
O78   O     O_3   0.002904 0.225834 0.436638 -0.711910
H46   H     H_    0.969893 0.227506 0.397690 0.335768
O79   O     O_3   0.498429 0.724894 0.562382 -0.711188
H47   H     H_    0.531262 0.726532 0.601459 0.335861
O80   O     O_3   0.540238 0.734444 0.426947 -0.703428
H48   H     H_    0.507913 0.729696 0.387547 0.322883

loop_
_geom_bond_atom_site_label_1
_geom_bond_atom_site_label_2
_geom_bond_distance
_ccdc_geom_bond_type
C18   O42   1.274440 A    
Cr11  O51   2.008955 S    
C74   O58   1.393629 S    
O4    C12   1.283420 A    
C57   C61   1.443174 A    
C48   C55   1.415291 A    
O39   C19   1.258549 A    
O20   Cr12  2.099299 S    
C28   C40   1.336705 D    
O61   H29   0.996963 S    
C67   O79   1.360931 S    
O37   Cr5   2.012257 S    
O72   H40   1.006782 S    
O8    Cr4   1.968335 S    
C16   C73   1.424817 S    
O26   C22   1.285374 A    
O1    C9    1.283368 A    
C55   C56   1.407386 A    
C5    C25   1.459941 S    
O63   H31   0.995228 S    
O66   H34   0.991492 S    
C59   C63   1.445173 A    
C14   C75   1.422503 S    
C31   O71   1.386902 S    
C45   H9    1.042394 S    
C27   O75   1.388435 S    
O24   C12   1.307581 A    
C92   O64   1.403057 S    
C83   Br3   1.918804 S    
C74   C78   1.352316 D    
O25   C21   1.285285 A    
C42   C53   1.406855 A    
O30   C14   1.246701 A    
C31   C35   1.344716 D    
C43   C60   1.428507 A    
O34   Cr6   2.132249 S    
C30   C34   1.344082 D    
C62   H13   1.082680 S    
C70   Br6   1.937068 S    
C67   C68   1.347521 A    
C85   O66   1.380035 S    
O21   C9    1.307506 A    
C36   C40   1.478894 S    
O23   Cr11  2.004061 S    
C72   Br8   1.936598 S    
C29   O69   1.389550 S    
C20   C72   1.456104 S    
C77   C81   1.449530 S    
O32   Cr4   1.996828 S    
C36   O56   1.386282 S    
C1    O9    1.251613 A    
C26   C38   1.341206 D    
O7    C3    1.300950 A    
C81   Br1   1.932574 S    
C46   C53   1.415242 A    
C3    O11   1.247359 A    
O11   Cr7   2.133048 S    
C45   C54   1.414845 A    
O80   H48   0.991437 S    
C79   H19   1.114788 S    
C34   C38   1.485064 S    
C17   C69   1.452817 S    
C85   C90   1.379092 D    
C79   C83   1.446427 S    
C7    O19   1.243431 A    
O8    C4    1.317748 A    
C15   O35   1.272610 A    
O3    Cr3   2.120348 S    
O77   H45   0.991247 S    
Cr4   O52   2.009746 S    
O47   C23   1.296981 A    
O2    Cr2   2.120130 S    
C88   C91   1.379282 D    
C60   C64   1.442276 A    
C87   O68   1.380048 S    
O2    C10   1.281971 A    
C64   C68   1.369251 A    
O42   Cr10  2.131394 S    
Cr5   O49   1.954687 S    
O18   Cr10  2.099299 S    
C89   C90   1.500511 S    
O79   H47   0.991146 S    
O17   Cr9   2.098436 S    
C46   H10   1.043673 S    
O27   Cr3   2.086168 S    
C63   C67   1.371941 A    
C70   C82   1.350387 D    
C8    C28   1.455755 S    
C64   H15   1.081496 S    
Cr7   O51   1.954687 S    
O6    Cr2   1.968335 S    
O35   Cr7   2.132086 S    
O31   Cr3   1.997097 S    
O24   Cr12  2.004354 S    
O9    Cr5   2.133048 S    
C63   H16   1.083493 S    
O30   Cr2   1.996828 S    
C37   H1    1.081914 S    
C35   O55   1.381422 S    
O22   C10   1.310658 A    
C75   C79   1.363723 D    
O64   H32   0.995600 S    
O48   Cr12  1.970535 S    
C4    O12   1.274414 A    
C26   O74   1.382891 S    
C59   C60   1.407748 A    
C76   O60   1.397000 S    
O32   C16   1.252424 A    
C44   C55   1.411132 A    
O65   H33   0.991778 S    
C35   C39   1.489188 S    
C62   C66   1.370428 A    
C77   H17   1.136873 S    
O70   H38   1.003399 S    
C82   Br2   1.926141 S    
O16   Cr8   2.008530 S    
C73   O57   1.399548 S    
C89   O61   1.403500 S    
C47   H11   1.043587 S    
C28   O76   1.386042 S    
C84   Br4   1.918862 S    
O69   H37   0.985990 S    
O55   H23   1.014039 S    
O13   C5    1.301013 A    
O28   Cr4   2.085709 S    
C47   C51   1.358478 A    
O43   Cr11  2.131108 S    
O48   C24   1.297272 A    
O12   Cr8   2.132420 S    
Cr12  O52   2.007914 S    
O22   Cr10  2.004354 S    
O15   C7    1.300196 A    
O68   H36   0.991519 S    
O56   H24   1.001634 S    
O5    C1    1.296767 A    
O75   H43   1.071422 S    
C75   O59   1.395511 S    
C27   C39   1.354244 D    
C71   Br7   1.936485 S    
O46   Cr10  1.970535 S    
O71   H39   0.986049 S    
O39   Cr7   2.012257 S    
O3    C11   1.281307 A    
C61   H14   1.082301 S    
C29   C33   1.351623 D    
C33   O53   1.385212 S    
O74   H42   1.010365 S    
C48   H12   1.042488 S    
C13   O33   1.273086 A    
O78   H46   0.991297 S    
C32   O72   1.391554 S    
C33   C37   1.482420 S    
C12   C43   1.481298 S    
O13   Cr5   2.008242 S    
O73   H41   1.072260 S    
C6    C26   1.457400 S    
O36   Cr8   2.132249 S    
C13   C76   1.422289 S    
C21   C85   1.473172 S    
O47   Cr11  1.969773 S    
Cr2   O50   2.009746 S    
O15   Cr7   2.008242 S    
C1    C32   1.457541 S    
Cr1   O49   2.008741 S    
C53   C54   1.407572 A    
C46   C50   1.358227 A    
C45   C49   1.357268 A    
C3    C30   1.458538 S    
Cr3   O51   2.008741 S    
O14   Cr6   2.008530 S    
C15   C74   1.432201 S    
O21   Cr9   2.004061 S    
O53   H21   1.015594 S    
C71   C83   1.344560 D    
C61   C65   1.370432 A    
C65   C66   1.347959 A    
C2    O10   1.270541 A    
C57   C58   1.407640 A    
O38   C18   1.260902 A    
C7    C27   1.462459 S    
C4    C29   1.463053 S    
C69   C81   1.357318 D    
C91   O63   1.403141 S    
C44   C59   1.437849 A    
C88   O67   1.379967 S    
C80   C84   1.446368 S    
C40   H4    1.073293 S    
C78   H18   1.117575 S    
C39   H3    1.081338 S    
C41   C54   1.410716 A    
O26   Cr2   2.085709 S    
O58   H26   0.986811 S    
O45   C21   1.296744 A    
C5    O17   1.241277 A    
C66   O78   1.360590 S    
O37   C17   1.262900 A    
C47   C56   1.414985 A    
O28   C24   1.284218 A    
C25   C37   1.351179 D    
C41   C58   1.436621 A    
O14   C6    1.298017 A    
C19   O43   1.278552 A    
O5    Cr1   1.968929 S    
C8    O20   1.235228 A    
C25   O73   1.390862 S    
C72   C84   1.344345 D    
C58   C62   1.443443 A    
O7    Cr3   1.968929 S    
C51   C52   1.340834 A    
C52   H8    1.063243 S    
C17   O41   1.272953 A    
C76   C80   1.365172 D    
C19   C71   1.456347 S    
O54   H22   1.001455 S    
C87   C92   1.379048 D    
C14   O34   1.273372 A    
O25   Cr1   2.086168 S    
O40   Cr8   2.011772 S    
O29   C13   1.246545 A    
O44   Cr12  2.131394 S    
C20   O44   1.278162 A    
O1    Cr1   2.120348 S    
O19   Cr11  2.098436 S    
C22   C86   1.473493 S    
Cr8   O52   1.954706 S    
C91   C92   1.496743 S    
Cr10  O50   2.007914 S    
C49   C50   1.340736 A    
Cr6   O50   1.954706 S    
O46   C22   1.297122 A    
C86   O65   1.380072 S    
O31   C15   1.249219 A    
C2    C31   1.463029 S    
O67   H35   0.991456 S    
C32   C36   1.351873 D    
O23   C11   1.310927 A    
C30   O70   1.387581 S    
O33   Cr5   2.132086 S    
C38   H2    1.072638 S    
C23   C87   1.471990 S    
C90   O62   1.403431 S    
O10   Cr6   2.132420 S    
C73   C77   1.394273 D    
O57   H25   1.020965 S    
O16   C8    1.299986 A    
C80   H20   1.116585 S    
O4    Cr4   2.120130 S    
O6    C2    1.321222 A    
C78   C82   1.457963 S    
O29   Cr1   1.997097 S    
O60   H28   1.002952 S    
C48   C52   1.357701 A    
C16   O36   1.276858 A    
O40   C20   1.257877 A    
C68   O80   1.363488 S    
C65   O77   1.363234 S    
O59   H27   1.001782 S    
C6    O18   1.238479 A    
O76   H44   1.010654 S    
C10   C41   1.486373 S    
O27   C23   1.284323 A    
O45   Cr9   1.969773 S    
C42   C57   1.428935 A    
O41   Cr9   2.131108 S    
C9    C42   1.481357 S    
C50   H6    1.055832 S    
O62   H30   0.996763 S    
C34   O54   1.381563 S    
C43   C56   1.406187 A    
C49   H5    1.062310 S    
C24   C88   1.471971 S    
Cr9   O49   2.008955 S    
C11   C44   1.486138 S    
C18   C70   1.454699 S    
C69   Br5   1.935515 S    
O38   Cr6   2.011772 S    
C86   C89   1.379205 D    
C51   H7    1.055679 S    
