data_mof_unit_31281.cif
_audit_creation_date              2013-03-05T15:52:23-0500
_audit_creation_method            fapswitch 2.2
_symmetry_space_group_name_H-M    P1
_symmetry_Int_Tables_number       1
_space_group_crystal_system       triclinic
_cell_length_a                    19.019032
_cell_length_b                    18.862177
_cell_length_c                    20.616671
_cell_angle_alpha                 107.634418
_cell_angle_beta                  106.51946
_cell_angle_gamma                 110.756905
_cell_volume                      5920.14415076

loop_
_atom_site_label
_atom_site_type_symbol
_atom_site_description
_atom_site_fract_x
_atom_site_fract_y
_atom_site_fract_z
_atom_type_partial_charge
C1    C     C_R   0.085119 0.086464 0.354751 -0.151375
H1    H     H_    0.133633 0.151309 0.378152 0.103647
N1    N     N_R   0.051550 0.054780 0.395070 -0.038636
C2    C     C_R   0.757544 0.928676 0.493048 0.575541
N2    N     N_R   0.835860 0.954800 0.499920 -0.089673
C3    C     C_R   0.839503 0.815862 0.281359 -0.090203
H2    H     H_    0.860107 0.809524 0.237354 0.154058
N3    N     N_R   0.889940 0.849160 0.355180 -0.054134
C4    C     C_R   0.956344 0.202935 0.527334 -0.091335
H3    H     H_    0.913606 0.208794 0.549973 0.152453
N4    N     N_R   0.997480 0.160420 0.539810 -0.054859
C5    C     C_R   0.762254 0.810836 0.345109 -0.197085
H4    H     H_    0.710279 0.801257 0.358436 0.172688
N5    N     N_R   0.842280 0.845520 0.395070 -0.050330
C6    C     C_R   0.032386 0.208522 0.462168 -0.154204
H5    H     H_    0.060558 0.220835 0.425377 0.106318
N6    N     N_R   0.045130 0.164060 0.499920 -0.042296
C7    C     C_R   0.827451 0.069204 0.556389 -0.284762
H6    H     H_    0.845114 0.133833 0.591977 0.131055
N7    N     N_R   0.878630 0.041580 0.539810 -0.068404
C8    C     C_R   0.014953 0.946154 0.289747 -0.114533
H7    H     H_    0.995179 0.881668 0.252137 0.163076
N8    N     N_R   0.008780 0.968000 0.355180 -0.052549
C9    C     C_R   0.063893 0.019618 0.288009 0.091603
C10   C     C_R   0.749281 0.000497 0.522810 -0.105755
C11   C     C_R   0.758499 0.793540 0.273397 0.079927
C12   C     C_R   0.975213 0.232697 0.477417 0.132826
C13   C     C_R   0.231627 0.225241 0.646581 -0.130878
H8    H     H_    0.274924 0.249144 0.624327 0.093088
N9    N     N_R   0.157720 0.154480 0.604930 -0.039841
C14   C     C_R   0.928515 0.758035 0.497780 0.569088
N10   N     N_R   0.954870 0.835940 0.500080 -0.092161
C15   C     C_R   0.170534 0.932365 0.437552 -0.103886
H9    H     H_    0.148586 0.868869 0.395852 0.145028
N11   N     N_R   0.121370 0.958420 0.460190 -0.052408
C16   C     C_R   0.020890 0.052040 0.718812 0.524633
N12   N     N_R   0.991220 0.032000 0.644820 -0.115134
C17   C     C_R   0.956748 0.911520 0.653399 -0.241979
H10   H     H_    0.930400 0.844890 0.638461 0.189342
N13   N     N_R   0.948450 0.945220 0.604930 -0.081900
C18   C     C_R   0.240945 0.073349 0.504071 -0.113975
H11   H     H_    0.285157 0.139638 0.526665 0.147888
N14   N     N_R   0.164140 0.045200 0.500080 -0.053200
C19   C     C_R   0.155338 0.222278 0.710682 -0.063029
H12   H     H_    0.130142 0.244782 0.747877 0.132195
N15   N     N_R   0.110060 0.150840 0.644820 -0.047741
C20   C     C_R   0.009933 0.769585 0.438708 -0.231633
H13   H     H_    0.034368 0.752512 0.398491 0.145302
N16   N     N_R   0.002520 0.839580 0.460190 -0.063022
Ni1   Ni    Ni4+2 0.103690 0.103690 0.500000 0.217156
Ni2   Ni    Ni4+2 0.896310 0.896310 0.500000 0.218000
Ni3   Ni    Ni4+2 0.005600 0.904650 0.408510 0.203138
Ni4   Ni    Ni4+2 0.994400 0.095350 0.591490 0.197316
C21   C     C_R   0.232157 0.270166 0.713688 0.018187
C22   C     C_R   0.963634 0.716250 0.461124 -0.066175
C23   C     C_R   0.246412 0.003420 0.463981 0.210553
C24   C     C_R   0.003920 0.977714 0.725687 0.069018
C25   C     C_R   0.879711 0.372393 0.450696 -0.421719
H14   H     H_    0.865039 0.416548 0.484231 0.182034
C26   C     C_R   0.903262 0.322112 0.479388 0.651493
C27   C     C_R   0.937136 0.276118 0.443199 -0.101589
C28   C     C_R   0.936075 0.273031 0.373876 -0.407555
H15   H     H_    0.958334 0.235262 0.343569 0.171486
C29   C     C_R   0.910629 0.322121 0.344663 0.637834
C30   C     C_R   0.888603 0.377054 0.386954 -0.126913
C31   C     C_R   0.982693 0.518038 0.404978 0.598917
C32   C     C_R   0.001391 0.602695 0.427830 -0.399400
H16   H     H_    0.064857 0.650511 0.446287 0.157102
C33   C     C_R   0.940196 0.626283 0.431692 0.128142
C34   C     C_R   0.857420 0.563754 0.404346 -0.110304
H17   H     H_    0.808224 0.580155 0.403094 0.158965
C35   C     C_R   0.837670 0.478912 0.379552 -0.304690
H18   H     H_    0.774793 0.431818 0.363628 0.156487
C36   C     C_R   0.900548 0.455992 0.382340 0.060797
C37   C     C_R   0.591940 0.074666 0.514753 -0.182258
H19   H     H_    0.577493 0.113020 0.554215 0.110297
C38   C     C_R   0.661879 0.065908 0.542906 -0.218729
H20   H     H_    0.703514 0.101198 0.603008 0.124682
C39   C     C_R   0.675276 0.008249 0.494003 0.172735
C40   C     C_R   0.623147 0.965146 0.415796 -0.204682
H21   H     H_    0.635341 0.922933 0.377156 0.126182
C41   C     C_R   0.553641 0.974806 0.387416 -0.123268
H22   H     H_    0.510083 0.936846 0.327922 0.111804
C42   C     C_R   0.536205 0.026750 0.437524 0.367164
C43   C     C_R   0.434112 0.078845 0.424278 0.346109
C44   C     C_R   0.360271 0.071985 0.430219 0.375453
C45   C     C_R   0.313161 0.004043 0.441968 -0.336297
C46   C     C_R   0.330260 0.935755 0.432955 0.396757
C47   C     C_R   0.395167 0.936462 0.414247 0.327457
C48   C     C_R   0.450938 0.011146 0.417063 -0.346258
C49   C     C_R   0.293743 0.359265 0.768063 0.147112
C50   C     C_R   0.272431 0.410160 0.815414 -0.176061
C51   C     C_R   0.332720 0.492260 0.870333 -0.163046
C52   C     C_R   0.415785 0.524746 0.879020 0.223182
C53   C     C_R   0.435098 0.476484 0.827889 -0.183357
C54   C     C_R   0.374903 0.394171 0.773145 -0.175837
C55   C     C_R   0.614426 0.732841 0.072694 -0.325389
C56   C     C_R   0.687133 0.774836 0.140747 0.613765
C57   C     C_R   0.536744 0.681151 0.067938 0.174878
N17   N     N_2   0.483667 0.597825 0.944492 -0.094245
N18   N     N_2   0.465802 0.621486 0.998005 -0.091114
C58   C     C_R   0.682704 0.761569 0.203834 -0.039222
H23   H     H_    0.619279 0.738218 0.023115 0.157945
H24   H     H_    0.498660 0.500536 0.833973 0.123919
H25   H     H_    0.393180 0.356780 0.737196 0.116048
C59   C     C_R   0.603725 0.716030 0.199993 -0.256872
C60   C     C_R   0.531526 0.677525 0.132997 -0.174780
H26   H     H_    0.597406 0.705704 0.247313 0.152132
H27   H     H_    0.315200 0.528608 0.908075 0.126448
H28   H     H_    0.471960 0.638219 0.129992 0.135681
H29   H     H_    0.209842 0.386557 0.811436 0.111959
C61   C     C_R   0.102109 0.027207 0.235783 -0.011493
C62   C     C_R   0.112093 0.960842 0.191745 0.534711
C63   C     C_R   0.141474 0.969541 0.138395 -0.369165
C64   C     C_R   0.161108 0.043459 0.128232 0.214582
C65   C     C_R   0.161510 0.112497 0.178431 -0.166350
C66   C     C_R   0.130891 0.104144 0.230816 -0.311697
C67   C     C_R   0.040101 0.006858 0.920976 0.500970
C68   C     C_R   0.012222 0.009131 0.852323 -0.364660
C69   C     C_R   0.090972 0.968529 0.934410 -0.154783
N19   N     N_2   0.156897 0.042816 0.058528 -0.020302
N20   N     N_2   0.122146 0.969974 0.005673 -0.056797
C70   C     C_R   0.030416 0.969892 0.795331 -0.131591
H30   H     H_    0.975907 0.041410 0.843499 0.190358
H31   H     H_    0.176137 0.169617 0.170992 0.153542
H32   H     H_    0.125409 0.156684 0.264433 0.156951
C71   C     C_R   0.074668 0.924806 0.805256 0.487018
C72   C     C_R   0.103812 0.922610 0.875155 0.324876
H33   H     H_    0.142007 0.915510 0.100733 0.157568
O1    O     O_3   0.866678 0.719458 0.517379 -0.666864
C73   C     C_3   0.796276 0.728283 0.485212 -0.258343
H34   H     H_    0.774996 0.707163 0.423225 0.143945
H35   H     H_    0.808734 0.794182 0.514725 0.194288
H36   H     H_    0.744075 0.686980 0.492760 0.175719
O2    O     O_3   0.053243 0.131210 0.777487 -0.631926
C74   C     C_3   0.992719 0.158755 0.765001 0.212898
H37   H     H_    0.931271 0.110258 0.755552 0.084482
H38   H     H_    0.983850 0.172381 0.715224 0.094414
C75   C     C_3   0.022011 0.239710 0.834523 -0.869022
H39   H     H_    0.082699 0.290227 0.845484 0.245824
H40   H     H_    0.974919 0.261973 0.825181 0.206353
H41   H     H_    0.029852 0.227368 0.884802 0.267876
O3    O     O_3   0.907781 0.330741 0.549779 -0.627530
C76   C     C_3   0.826276 0.298566 0.545188 -0.323192
H42   H     H_    0.782845 0.233924 0.496911 0.147205
H43   H     H_    0.800848 0.342617 0.541305 0.169589
H44   H     H_    0.829564 0.292925 0.597862 0.177211
O4    O     O_3   0.702881 0.844791 0.471989 -0.672602
C77   C     C_3   0.648611 0.838280 0.507018 -0.290495
H45   H     H_    0.597106 0.849063 0.478587 0.188187
H46   H     H_    0.682685 0.881838 0.568912 0.139857
H47   H     H_    0.619437 0.772610 0.500517 0.173090
O5    O     O_3   0.921075 0.325993 0.281935 -0.596255
C78   C     C_3   0.841452 0.287092 0.220623 0.238307
H48   H     H_    0.807241 0.323018 0.231936 0.096031
H49   H     H_    0.803291 0.220243 0.209011 0.078570
C79   C     C_3   0.852270 0.285841 0.150060 -0.842929
H50   H     H_    0.885236 0.249351 0.136500 0.253556
H51   H     H_    0.790000 0.255355 0.101333 0.201716
H52   H     H_    0.889311 0.351736 0.159503 0.260661
O6    O     O_3   0.045141 0.495915 0.407408 -0.602966
C80   C     C_3   0.097462 0.521755 0.483566 0.249088
H53   H     H_    0.060508 0.501723 0.514207 0.093078
H54   H     H_    0.137918 0.591926 0.513809 0.092202
C81   C     C_3   0.153524 0.480822 0.485210 -0.843191
H55   H     H_    0.192449 0.500358 0.456203 0.256314
H56   H     H_    0.195338 0.501056 0.544813 0.202553
H57   H     H_    0.114797 0.410576 0.456202 0.257354
O7    O     O_3   0.491318 0.150805 0.426029 -0.620859
C82   C     C_3   0.523698 0.223212 0.495307 0.368296
H58   H     H_    0.522297 0.207855 0.543295 0.053439
H59   H     H_    0.487586 0.257678 0.488159 0.134079
C83   C     C_3   0.614246 0.282416 0.516868 -0.997404
H60   H     H_    0.618172 0.301197 0.471362 0.268475
H61   H     H_    0.640147 0.340368 0.570369 0.220598
H62   H     H_    0.652085 0.249845 0.525223 0.258981
O8    O     O_3   0.338158 0.134797 0.431959 -0.637987
C84   C     C_3   0.316286 0.135083 0.360715 -0.196163
H63   H     H_    0.274688 0.070073 0.313059 0.107189
H64   H     H_    0.372706 0.167314 0.353347 0.173821
H65   H     H_    0.282127 0.171841 0.358108 0.163989
O9    O     O_3   0.284952 0.868520 0.444032 -0.616692
C85   C     C_3   0.325526 0.886990 0.520554 -0.152720
H66   H     H_    0.329645 0.945630 0.559502 0.118686
H67   H     H_    0.388999 0.892897 0.535145 0.157079
H68   H     H_    0.288206 0.833731 0.529585 0.152841
O10   O     O_3   0.415445 0.872185 0.410488 -0.602813
C86   C     C_3   0.364131 0.803466 0.337285 0.327296
H69   H     H_    0.362677 0.824649 0.292129 0.054435
H70   H     H_    0.299245 0.769511 0.330305 0.130429
C87   C     C_3   0.398720 0.741596 0.327009 -0.918455
H71   H     H_    0.400000 0.718124 0.370438 0.261517
H72   H     H_    0.358562 0.686703 0.269828 0.213571
H73   H     H_    0.463313 0.773617 0.332848 0.255253
O11   O     O_3   0.762436 0.823263 0.142638 -0.631662
C88   C     C_3   0.779095 0.908416 0.170221 -0.279510
H74   H     H_    0.784767 0.933644 0.228844 0.142777
H75   H     H_    0.730256 0.915505 0.131903 0.141119
H76   H     H_    0.839893 0.947568 0.172314 0.185068
O12   O     O_3   0.020703 0.045990 0.976500 -0.602158
C89   C     C_3   0.948119 0.984299 0.972071 0.270924
H77   H     H_    0.957927 0.932128 0.980140 0.093119
H78   H     H_    0.893768 0.957075 0.916381 0.078687
C90   C     C_3   0.927332 0.025681 0.034342 -0.865447
H79   H     H_    0.916338 0.077644 0.027695 0.252667
H80   H     H_    0.869999 0.977766 0.031082 0.207318
H81   H     H_    0.979798 0.052155 0.090730 0.264998
O13   O     O_3   0.098269 0.893109 0.750102 -0.581556
C91   C     C_3   0.052295 0.803536 0.712688 -0.163512
H82   H     H_    0.988398 0.777269 0.710083 0.086396
H83   H     H_    0.088111 0.776759 0.739702 0.165388
H84   H     H_    0.044266 0.781739 0.653410 0.162450
O14   O     O_3   0.153434 0.884784 0.887688 -0.576597
C92   C     C_3   0.107543 0.808561 0.889823 0.282465
H85   H     H_    0.045167 0.767247 0.839673 0.050687
H86   H     H_    0.098191 0.821703 0.942113 0.100749
C93   C     C_3   0.156320 0.759746 0.889936 -0.879092
H87   H     H_    0.218069 0.798469 0.940492 0.259353
H88   H     H_    0.120868 0.699685 0.891547 0.206489
H89   H     H_    0.166295 0.744343 0.838002 0.250395
O15   O     O_3   0.085246 0.883794 0.193979 -0.640799
C94   C     C_3   0.154881 0.882533 0.240433 0.210348
H90   H     H_    0.181129 0.930906 0.299779 0.107715
H91   H     H_    0.204596 0.894621 0.220399 0.089789
C95   C     C_3   0.126825 0.795574 0.238737 -0.881109
H92   H     H_    0.103587 0.746307 0.180452 0.257904
H93   H     H_    0.180291 0.794903 0.277724 0.212183
H94   H     H_    0.075844 0.780576 0.256798 0.249373

loop_
_geom_bond_atom_site_label_1
_geom_bond_atom_site_label_2
_geom_bond_distance
_ccdc_geom_bond_type
C45   C46   1.409137 A    
C81   H55   1.110596 S    
C64   N19   1.412444 S    
C85   H67   1.112681 S    
C89   H78   1.114471 S    
C89   H77   1.114683 S    
N1    N8    1.370225 A    
C53   C54   1.392362 A    
C9    C61   1.474040 S    
C54   H25   1.082185 S    
C73   H36   1.109004 S    
C67   O12   1.382960 S    
C63   H33   1.083511 S    
C91   H84   1.109435 S    
C55   C56   1.398225 A    
O2    C74   1.413402 S    
C20   N16   1.331263 A    
N2    N7    1.370227 A    
C3    C11   1.390060 A    
C68   H30   1.083757 S    
C19   H12   1.074158 S    
C93   H89   1.110370 S    
C79   H50   1.110839 S    
C59   H26   1.081354 S    
C86   C87   1.520914 S    
C13   H8    1.081160 S    
O3    C76   1.412500 S    
C1    H1    1.081443 S    
N12   N13   1.370225 A    
C77   H46   1.113739 S    
C26   O3    1.384192 S    
C43   C44   1.408069 A    
C61   C66   1.405325 A    
C40   H21   1.083525 S    
C75   H41   1.110794 S    
C92   H86   1.110711 S    
C37   C42   1.401736 A    
C59   C60   1.388374 A    
C25   C26   1.392978 A    
C6    H5    1.079815 S    
C31   C36   1.409501 A    
C95   H94   1.110659 S    
C65   C66   1.387843 A    
C86   H70   1.112091 S    
C7    H6    1.079302 S    
C18   H11   1.080091 S    
C67   C68   1.382911 A    
N17   N18   1.246664 D    
C28   C29   1.394294 A    
C12   C27   1.474047 S    
C15   N11   1.329879 A    
C49   C54   1.404642 A    
O9    C85   1.410643 S    
C46   O9    1.384122 S    
C14   N10   1.354622 A    
C19   N15   1.343506 A    
O12   C89   1.411875 S    
C60   H28   1.083441 S    
C20   H13   1.081933 S    
C34   H17   1.080785 S    
C47   O10   1.384267 S    
C52   N17   1.417432 S    
C64   C65   1.392394 A    
N11   N14   1.370228 A    
C66   H32   1.082380 S    
N3    Ni3   1.854355 S    
C78   H49   1.115174 S    
N4    Ni4   1.849848 S    
C72   O14   1.384494 S    
C35   H18   1.083512 S    
N12   Ni4   1.850123 S    
C15   C23   1.383915 A    
C38   C39   1.393689 A    
C31   C32   1.394514 A    
N9    Ni1   1.853641 S    
C79   H51   1.110478 S    
C10   C39   1.441624 S    
C8    H7    1.077337 S    
C21   C49   1.472949 S    
C90   H79   1.110636 S    
C18   N14   1.333383 A    
C81   H56   1.110432 S    
C33   C34   1.401302 A    
C7    C10   1.369145 A    
C42   C48   1.446344 S    
C76   H44   1.109340 S    
C61   C62   1.416082 A    
C55   C57   1.407723 A    
N1    Ni1   1.853849 S    
C69   N20   1.407038 S    
O6    C80   1.413196 S    
C3    H2    1.077305 S    
C80   H54   1.112628 S    
C83   H61   1.110394 S    
C91   H82   1.115894 S    
C32   H16   1.083720 S    
C84   H65   1.108003 S    
O7    C82   1.416439 S    
C84   H63   1.111410 S    
O4    C77   1.410592 S    
C78   C79   1.520575 S    
C76   H43   1.110770 S    
C16   C24   1.383983 A    
C77   H47   1.109108 S    
N2    Ni2   1.854197 S    
C49   C50   1.404243 A    
C13   C21   1.381302 A    
C92   H85   1.114753 S    
O13   C91   1.412010 S    
C23   C45   1.462209 S    
C3    N3    1.339608 A    
O11   C88   1.409590 S    
C94   C95   1.520069 S    
C93   H87   1.110723 S    
C38   H20   1.083600 S    
C29   O5    1.382162 S    
C44   O8    1.384877 S    
C43   O7    1.388744 S    
C30   C36   1.461504 S    
C87   H71   1.110718 S    
C31   O6    1.384702 S    
C5    C11   1.388739 A    
C26   C27   1.414813 A    
C1    N1    1.337197 A    
C74   C75   1.520936 S    
C37   H19   1.082649 S    
C87   H72   1.110426 S    
N10   Ni2   1.853684 S    
O15   C94   1.409480 S    
C24   C70   1.451511 S    
C17   C24   1.379544 A    
C4    N4    1.332888 A    
C25   C30   1.396127 A    
C6    C12   1.395780 A    
N5    Ni2   1.853642 S    
C90   H81   1.109921 S    
O14   C92   1.414771 S    
C43   C48   1.398834 A    
N16   Ni3   1.849848 S    
C28   H15   1.082440 S    
C95   H92   1.110463 S    
N19   N20   1.245668 D    
C85   H66   1.113115 S    
C52   C53   1.396649 A    
C50   H29   1.081046 S    
C51   C52   1.410621 A    
C22   C33   1.460396 S    
C5    H4    1.069222 S    
C94   H91   1.114878 S    
C37   C38   1.381432 A    
C62   O15   1.379431 S    
C78   H48   1.113547 S    
C55   H23   1.083264 S    
N7    Ni4   1.854783 S    
C35   C36   1.400987 A    
C57   N18   1.414257 S    
C5    N5    1.341608 A    
C41   H22   1.083073 S    
C81   H57   1.110585 S    
C41   C42   1.396062 A    
C65   H31   1.083351 S    
C8    N8    1.338266 A    
C89   C90   1.521191 S    
C85   H68   1.109368 S    
C93   H88   1.110518 S    
C71   C72   1.408505 A    
C47   C48   1.403299 A    
C16   O2    1.379443 S    
C2    C10   1.392296 A    
C70   C71   1.410052 A    
C53   H24   1.083281 S    
C4    C12   1.385746 A    
C74   H38   1.113450 S    
C20   C22   1.373391 A    
C62   C63   1.393856 A    
C4    H3    1.067203 S    
C83   H62   1.109966 S    
C6    N6    1.341698 A    
C71   O13   1.385808 S    
N4    N6    1.384305 A    
N3    N5    1.384458 A    
C88   H76   1.109656 S    
C44   C45   1.414696 A    
C80   C81   1.520844 S    
N9    N15   1.384458 A    
C18   C23   1.385387 A    
C90   H80   1.110549 S    
C88   H74   1.113487 S    
C73   H35   1.105635 S    
C92   C93   1.521168 S    
N6    Ni1   1.853686 S    
C84   H64   1.109204 S    
C75   H39   1.110351 S    
C69   C72   1.407376 A    
N14   Ni1   1.854195 S    
C63   C64   1.407046 A    
C80   H53   1.115635 S    
C68   C70   1.390669 A    
C79   H52   1.110762 S    
C14   O1    1.384819 S    
N13   Ni2   1.853847 S    
C57   C60   1.392868 A    
C76   H42   1.114862 S    
C14   C22   1.392027 A    
C29   C30   1.406167 A    
C13   N9    1.335658 A    
O1    C73   1.407207 S    
C25   H14   1.084005 S    
C87   H73   1.111031 S    
O10   C86   1.410949 S    
C56   C58   1.416306 A    
C77   H45   1.109699 S    
C11   C58   1.477370 S    
C17   N13   1.339318 A    
C75   H40   1.110465 S    
N8    Ni3   1.850123 S    
C17   H10   1.075548 S    
C82   H59   1.110427 S    
N15   Ni4   1.854355 S    
C50   C51   1.391251 A    
C95   H93   1.109384 S    
C40   C41   1.385112 A    
C15   H9    1.079584 S    
C56   O11   1.380743 S    
C58   C59   1.406069 A    
C7    N7    1.332872 A    
C27   C28   1.406680 A    
C67   C69   1.414292 A    
N10   N16   1.384307 A    
C88   H75   1.113336 S    
C83   H60   1.110724 S    
C39   C40   1.403222 A    
C19   C21   1.390500 A    
C2    N2    1.341243 A    
C46   C47   1.391059 A    
C1    C9    1.384998 A    
C16   N12   1.341007 A    
O8    C84   1.410469 S    
C82   H58   1.116489 S    
C8    C9    1.386597 A    
N11   Ni3   1.854783 S    
C91   H83   1.108075 S    
C86   H69   1.116098 S    
C34   C35   1.390135 A    
C32   C33   1.398986 A    
O5    C78   1.411158 S    
C94   H90   1.110008 S    
C74   H37   1.115942 S    
C73   H34   1.113016 S    
C51   H27   1.082910 S    
C82   C83   1.520260 S    
C2    O4    1.390694 S    
