data_mof_unit_42409.cif
_audit_creation_date              2012-12-10T16:54:05-0500
_audit_creation_method            fapswitch 2.2
_symmetry_space_group_name_H-M    P1
_symmetry_Int_Tables_number       1
_space_group_crystal_system       triclinic
_cell_length_a                    9.815093
_cell_length_b                    11.072881
_cell_length_c                    13.463725
_cell_angle_alpha                 89.489054
_cell_angle_beta                  73.012619
_cell_angle_gamma                 86.456923
_cell_volume                      1396.67395395

loop_
_atom_site_label
_atom_site_type_symbol
_atom_type_description
_atom_site_fract_x
_atom_site_fract_y
_atom_site_fract_z
_atom_type_partial_charge
C1    C     C_R   0.496379 0.734157 0.496980 0.819507
C2    C     C_R   0.456719 0.473468 0.975627 0.044206
C3    C     C_R   0.487522 0.445858 0.868588 -0.068735
C4    C     C_R   0.559765 0.444953 0.028436 -0.071197
C5    C     C_R   0.703514 0.411435 0.972915 -0.084571
C6    C     C_R   0.732214 0.377045 0.867236 0.399570
C7    C     C_R   0.620552 0.381165 0.820749 0.343598
C8    C     C_R   0.519462 0.442443 0.137332 -0.073668
C9    C     C_R   0.765663 0.447276 0.132921 -0.184928
C10   C     C_R   0.383954 0.483992 0.815454 -0.128254
C11   C     C_2   0.516484 0.063605 0.555089 0.312156
C12   C     C_R   0.424478 0.492596 0.699975 0.874413
C13   C     C_2   0.529950 0.140413 0.476138 0.123053
C14   C     C_2   0.561544 0.936842 0.532325 -0.130193
C15   C     C_2   0.475222 0.866252 0.500297 -0.243005
C16   C     C_2   0.053047 0.586019 0.539687 0.107923
C17   C     C_2   0.895779 0.567163 0.560911 0.505948
C18   C     C_R   0.505906 0.267463 0.496123 0.866190
C19   C     C_R   0.576829 0.490442 0.300900 0.811923
C20   C     C_R   0.806448 0.407204 0.029538 0.471642
C21   C     C_R   0.621237 0.465029 0.188293 -0.158535
C22   C     C_R   0.247175 0.532021 0.875243 0.434239
C23   C     C_R   0.220788 0.557719 0.979919 -0.102023
C24   C     C_R   0.325378 0.534144 0.028207 -0.154094
Cu1   Cu    Cu3+1 0.361370 0.499980 0.499980 1.162390
Cu2   Cu    Cu3+1 0.638630 0.500020 0.500020 1.168069
H1    H     H_    0.846292 0.451784 0.172950 0.224352
H2    H     H_    0.302603 0.565749 0.107406 0.206450
H3    H     H_    0.118800 0.599953 0.024162 0.197638
N1    N     N_2   0.152660 0.501340 0.501130 -0.026729
N2    N     N_2   0.846520 0.501370 0.501160 -0.002841
O1    O     O_R   0.382960 0.678040 0.499980 -0.596613
O2    O     O_R   0.617100 0.678080 0.500020 -0.540913
O3    O     O_R   0.325800 0.499940 0.650950 -0.503892
O4    O     O_R   0.559930 0.499980 0.650990 -0.544330
O5    O     O_R   0.382900 0.321920 0.499980 -0.514014
O6    O     O_R   0.617040 0.321960 0.500020 -0.531549
O7    O     O_R   0.440070 0.500020 0.349010 -0.559157
O8    O     O_R   0.674200 0.500060 0.349050 -0.532132
Cl1   Cl    Cl    0.614409 0.097188 0.345300 -0.501612
C25   C     C_2   0.714651 0.903208 0.516628 0.988221
O9    O     O_2   0.772366 0.931940 0.581241 -0.464089
O10   O     O_R   0.794973 0.848963 0.422554 -0.691544
H4    H     H_    0.900670 0.840525 0.414557 0.381775
C26   C     C_2   0.345717 0.918751 0.474048 0.928878
O11   O     O_2   0.324349 0.887930 0.393144 -0.495889
O12   O     O_R   0.249264 0.001772 0.540676 -0.687154
H5    H     H_    0.167717 0.030896 0.512748 0.396919
C27   C     C_2   0.089032 0.706682 0.565027 0.907345
O13   O     O_2   0.062021 0.794189 0.516948 -0.576023
O14   O     O_R   0.143553 0.722518 0.648364 -0.662839
H6    H     H_    0.155995 0.810475 0.661731 0.371888
Cl2   Cl    Cl    0.097186 0.353609 0.518392 -0.327197
Cl3   Cl    Cl    0.778893 0.640031 0.671835 -0.524445
Cl4   Cl    Cl    0.951328 0.489559 0.372284 -0.454422
Cl5   Cl    Cl    0.903280 0.324328 0.788492 -0.310381
Cl6   Cl    Cl    0.982223 0.342296 0.985383 -0.439265
C28   C     C_2   0.401211 0.364716 0.188460 0.905754
O15   O     O_2   0.419952 0.255005 0.175982 -0.490327
O16   O     O_R   0.269641 0.414994 0.248811 -0.700688
H7    H     H_    0.200284 0.350459 0.277870 0.392999
Cl7   Cl    Cl    0.103132 0.568238 0.825243 -0.440544
Cl8   Cl    Cl    0.642659 0.280001 0.715998 -0.429444
Cl9   Cl    Cl    0.416094 0.102727 0.683677 -0.399811

loop_
_geom_bond_atom_site_label_1
_geom_bond_atom_site_label_2
_ccdc_geom_bond_type
C2    C4    A    
O10   H4    S    
C18   O5    A    
Cu2   O6    S    
C6    C7    A    
C1    C15   S    
C19   O7    A    
Cu1   O7    S    
C22   Cl7   S    
C11   C13   D    
C25   O9    D    
C9    C20   A    
O12   H5    S    
Cu1   O3    S    
C4    C8    A    
Cu1   Cu2   S    
C7    Cl8   S    
Cu1   O1    S    
C2    C3    A    
C20   Cl6   S    
C1    O2    A    
Cu2   N2    S    
C3    C10   A    
C26   O11   D    
C10   C22   A    
C12   O4    A    
C25   O10   S    
C9    C21   A    
C10   C12   S    
C13   C18   S    
C14   C25   S    
C4    C5    A    
C23   H3    S    
C19   C21   S    
C18   O6    A    
C11   Cl9   S    
C3    C7    A    
C26   O12   S    
C2    C24   A    
C5    C6    A    
C17   N2    D    
C11   C14   S    
Cu2   O8    S    
C15   C26   S    
C23   C24   A    
C28   O16   S    
O14   H6    S    
Cu2   O4    S    
C1    O1    A    
C16   C27   S    
C9    H1    S    
N1    Cl2   S    
C27   O13   D    
Cu1   N1    S    
C5    C20   A    
C19   O8    A    
C16   C17   S    
C13   Cl1   S    
C8    C28   S    
Cu1   O5    S    
C12   O3    A    
N2    Cl4   S    
C28   O15   D    
C14   C15   D    
C16   N1    D    
C17   Cl3   S    
C22   C23   A    
C24   H2    S    
Cu2   O2    S    
C6    Cl5   S    
O16   H7    S    
C27   O14   S    
C8    C21   A    
