data_mof_unit_47217.cif
_audit_creation_date              2012-10-26T20:50:47-0400
_audit_creation_method            fapswitch 2.2
_symmetry_space_group_name_H-M    P1
_symmetry_Int_Tables_number       1
_space_group_crystal_system       triclinic
_cell_length_a                    11.098231
_cell_length_b                    10.836544
_cell_length_c                    9.604347
_cell_angle_alpha                 89.986688
_cell_angle_beta                  102.89981
_cell_angle_gamma                 94.243631
_cell_volume                      1122.68444183

loop_
_atom_site_label
_atom_site_type_symbol
_atom_type_description
_atom_site_fract_x
_atom_site_fract_y
_atom_site_fract_z
_atom_type_partial_charge
C1    C     C_R   0.509721 0.263806 0.502501 0.563262
C2    C     C_R   0.441317 0.403153 0.055329 0.373832
C3    C     C_R   0.444666 0.404760 0.908381 0.021616
C4    C     C_R   0.262124 0.495164 0.440852 0.551717
C5    C     C_R   0.533094 0.605147 0.934806 0.125626
C6    C     C_3   0.645791 0.690667 0.950503 -0.243455
C7    C     C_3   0.646984 0.698509 0.110287 -0.148340
C8    C     C_R   0.497485 0.737223 0.498741 0.527134
C9    C     C_R   0.736979 0.497998 0.558503 0.526159
C10   C     C_2   0.125576 0.475033 0.404313 0.189394
C11   C     C_2   0.064319 0.488851 0.509535 -0.142374
C12   C     C_R   0.514713 0.130679 0.502949 -0.019018
C13   C     C_2   0.872339 0.499953 0.591649 -0.152828
C14   C     C_2   0.930104 0.463435 0.492228 -0.108763
C15   C     C_R   0.436349 0.061273 0.573761 -0.000352
C16   C     C_3   0.546257 0.094243 0.843020 -0.242892
C17   C     C_3   0.667798 0.055451 0.811535 -0.395081
C18   C     C_3   0.769073 0.658843 0.202488 -0.240389
C19   C     C_3   0.813866 0.737120 0.338814 -0.419055
C20   C     C_R   0.583218 0.067549 0.420429 0.218663
C21   C     C_R   0.569328 0.937839 0.414183 -0.120253
C22   C     C_R   0.494966 0.870510 0.492763 -0.036273
C23   C     C_R   0.420861 0.934071 0.562622 -0.005336
C24   C     C_3   0.396998 0.919603 0.708632 -0.234466
C25   C     C_3   0.426011 0.059054 0.727594 -0.113931
C26   C     C_R   0.534672 0.605647 0.080680 0.116398
Cu1   Cu    Cu3+1 0.499990 0.499980 0.640670 0.949777
Cu2   Cu    Cu3+1 0.500010 0.500020 0.359330 1.085304
H1    H     H_    0.875678 0.418701 0.395752 0.256434
H2    H     H_    0.462328 0.862606 0.779589 0.147920
H3    H     H_    0.345006 0.106835 0.744360 0.180304
H4    H     H_    0.658369 0.959622 0.768435 0.143961
H5    H     H_    0.699391 0.119318 0.734658 0.161755
H6    H     H_    0.740928 0.061012 0.911779 0.199613
H7    H     H_    0.556680 0.195551 0.861599 0.188011
H8    H     H_    0.535138 0.051230 0.944789 0.210526
H9    H     H_    0.266098 0.191133 0.259781 0.362232
H10   H     H_    0.827825 0.835878 0.312013 0.201602
H11   H     H_    0.746996 0.727062 0.408670 0.168220
H12   H     H_    0.401466 0.328829 0.837655 0.150977
H13   H     H_    0.904414 0.707653 0.398371 0.150450
H14   H     H_    0.758136 0.559967 0.226857 0.241277
H15   H     H_    0.844057 0.671781 0.142912 0.183895
H16   H     H_    0.134316 0.544362 0.098623 0.325720
H17   H     H_    0.798823 0.226365 0.558284 0.320181
H18   H     H_    0.722851 0.643522 0.921890 0.165987
H19   H     H_    0.628476 0.779601 0.896558 0.110549
H20   H     H_    0.622255 0.791149 0.139417 0.158420
H21   H     H_    0.115288 0.524005 0.613790 0.132871
H22   H     H_    0.924575 0.538440 0.693673 0.128155
H23   H     H_    0.624675 0.888927 0.357216 0.144256
H24   H     H_    0.298016 0.890557 0.704314 0.141528
N1    N     N_R   0.500780 0.500930 0.148120 -0.245366
N2    N     N_R   0.500790 0.500890 0.852210 -0.269559
O1    O     O_R   0.500000 0.319640 0.618810 -0.531797
O2    O     O_2   0.444959 0.165472 0.130241 -0.311588
O3    O     O_3   0.287156 0.277632 0.235052 -0.414535
O4    O     O_2   0.927303 0.463006 0.174105 -0.352004
O5    O     O_2   0.034795 0.277236 0.236195 -0.166570
O6    O     O_3   0.137717 0.453694 0.109544 -0.428131
O7    O     O_2   0.748142 0.053562 0.254064 -0.274758
O8    O     O_2   0.679461 0.258245 0.278665 -0.221023
O9    O     O_3   0.829508 0.170031 0.495110 -0.497287
O10   O     O_R   0.500010 0.319680 0.381230 -0.386499
O11   O     O_R   0.320680 0.500000 0.575130 -0.525616
O12   O     O_R   0.320690 0.500040 0.337550 -0.425370
O13   O     O_R   0.499990 0.680320 0.618770 -0.509948
O14   O     O_R   0.500000 0.680360 0.381190 -0.521380
O15   O     O_R   0.679310 0.499960 0.662450 -0.492205
O16   O     O_R   0.679320 0.500000 0.424870 -0.502723
O17   O     O_2   0.257702 0.225652 0.970330 -0.290519
S1    S     S_3+6 0.357435 0.266147 0.098990 0.068346
S2    S     S_3+6 0.051862 0.415756 0.229256 0.057570
S3    S     S_3+6 0.709263 0.139910 0.355428 0.040043

loop_
_geom_bond_atom_site_label_1
_geom_bond_atom_site_label_2
_ccdc_geom_bond_type
C25   H3    S    
O2    S1    D    
C8    C22   S    
Cu2   N1    S    
C26   N1    A    
C24   C25   S    
C24   H24   S    
C6    C7    S    
C11   H21   S    
C19   H10   S    
O7    S3    D    
O5    S2    D    
Cu1   O1    S    
Cu2   O12   S    
Cu1   O15   S    
C12   C15   A    
C23   C24   S    
C7    C18   S    
C7    H20   S    
C12   C20   A    
C15   C23   A    
C2    C3    A    
C1    O1    A    
Cu1   N2    S    
C20   S3    S    
O17   S1    D    
C17   H5    S    
C13   C14   D    
C16   H8    S    
C4    O12   A    
C1    C12   S    
C5    C6    S    
C7    C26   S    
C19   H11   S    
C3    N2    A    
H16   O6    S    
Cu1   O11   S    
O6    S2    S    
Cu2   O10   S    
C21   C22   A    
C13   H22   S    
C11   C14   S    
C9    O15   A    
C3    H12   S    
C8    O14   A    
C24   H2    S    
C10   C11   D    
C18   H14   S    
C16   H7    S    
C4    O11   A    
C10   S2    S    
C2    S1    S    
C15   C25   S    
Cu1   O13   S    
C6    H19   S    
C14   H1    S    
C4    C10   S    
C5    C26   A    
C1    O10   A    
C5    N2    A    
C21   H23   S    
C9    O16   A    
O9    S3    S    
C8    O13   A    
C18   C19   S    
C17   H6    S    
C16   C25   S    
C17   H4    S    
C9    C13   S    
O3    S1    S    
O8    S3    D    
C6    H18   S    
Cu2   O14   S    
C20   C21   A    
C18   H15   S    
H9    O3    S    
H17   O9    S    
C22   C23   A    
Cu2   O16   S    
C19   H13   S    
O4    S2    D    
C16   C17   S    
Cu1   Cu2   S    
C2    N1    A    
