data_mof_unit_9841.cif
_audit_creation_date              2013-03-05T15:43:04-0500
_audit_creation_method            fapswitch 2.2
_symmetry_space_group_name_H-M    P1
_symmetry_Int_Tables_number       1
_space_group_crystal_system       triclinic
_cell_length_a                    9.752248
_cell_length_b                    10.909032
_cell_length_c                    15.404894
_cell_angle_alpha                 90.291174
_cell_angle_beta                  73.889147
_cell_angle_gamma                 90.269048
_cell_volume                      1574.49518902

loop_
_atom_site_label
_atom_site_type_symbol
_atom_site_description
_atom_site_fract_x
_atom_site_fract_y
_atom_site_fract_z
_atom_type_partial_charge
O1    O     O_R   0.117050 0.321960 0.499980 -0.580713
O2    O     O_R   0.882890 0.321920 0.500020 -0.574877
C1    C     C_R   0.999398 0.265530 0.500965 0.849888
O3    O     O_R   0.052910 0.500040 0.629810 -0.594925
O4    O     O_R   0.818750 0.499990 0.629840 -0.582680
C2    C     C_R   0.917043 0.501874 0.672326 0.793889
Cu1   Cu    Cu3+1 0.138640 0.500020 0.499980 0.927222
Cu2   Cu    Cu3+1 0.861360 0.499980 0.500020 0.924853
O5    O     O_R   0.117110 0.678080 0.499980 -0.591018
O6    O     O_R   0.882950 0.678040 0.500020 -0.568107
O7    O     O_R   0.181250 0.500010 0.370160 -0.580711
O8    O     O_R   0.947090 0.499960 0.370190 -0.585063
C3    C     C_R   0.000880 0.734473 0.498710 0.847860
C4    C     C_R   0.082925 0.498059 0.327719 0.814410
C5    C     C_R   0.870484 0.513976 0.771199 -0.072748
C6    C     C_R   0.129549 0.488479 0.228794 -0.169226
C7    C     C_R   0.912026 0.574334 0.913071 -0.084765
C8    C     C_R   0.962979 0.555299 0.820100 -0.227547
C9    C     C_R   0.727117 0.492856 0.816035 -0.173868
C10   C     C_R   0.670384 0.522353 0.907707 -0.007139
C11   C     C_R   0.766846 0.554758 0.958047 0.014351
C12   C     C_R   0.521340 0.514838 0.951324 -0.127106
C13   C     C_R   0.475444 0.512376 0.047325 -0.116846
C14   C     C_R   0.580202 0.516928 0.095575 0.341806
C15   C     C_R   0.718797 0.559280 0.052558 0.339419
C16   C     C_R   0.415765 0.508827 0.902916 0.460603
C17   C     C_R   0.277987 0.469937 0.946982 -0.277896
C18   C     C_R   0.232763 0.462192 0.040993 -0.057000
C19   C     C_R   0.327424 0.497647 0.091428 0.061193
C20   C     C_R   0.092746 0.423771 0.085795 0.530423
C21   C     C_R   0.041252 0.438653 0.179806 -0.246563
C22   C     C_R   0.270027 0.520313 0.184013 -0.179445
H1    H     H_    0.332239 0.566931 0.222202 0.202361
H2    H     H_    0.933083 0.410956 0.214128 0.151434
H3    H     H_    0.203580 0.453984 0.907331 0.194984
H4    H     H_    0.986932 0.602850 0.949667 0.174916
H5    H     H_    0.074394 0.571893 0.786632 0.142770
H6    H     H_    0.661893 0.449407 0.778548 0.202164
C23   C     C_2   0.887341 0.932438 0.500165 -0.161076
C24   C     C_2   0.005476 0.866567 0.493677 -0.323319
H7    H     H_    0.785222 0.887254 0.507560 0.165847
H8    H     H_    0.109943 0.907990 0.482361 0.145831
C25   C     C_2   0.888999 0.066507 0.495909 -0.163333
C26   C     C_2   0.999281 0.133452 0.505579 -0.319066
H9    H     H_    0.794912 0.110762 0.486040 0.165347
H10   H     H_    0.092223 0.092800 0.519038 0.147407
C27   C     C_2   0.453520 0.457804 0.436728 0.027631
N1    N     N_2   0.346430 0.498660 0.500980 -0.162487
H11   H     H_    0.430967 0.406006 0.382066 0.134866
C28   C     C_2   0.607796 0.484142 0.430223 -0.099921
N2    N     N_2   0.652550 0.498630 0.501000 -0.290744
H12   H     H_    0.683292 0.490109 0.363898 0.156480
H13   H     H_    0.589103 0.459673 0.558971 0.219678
O9    O     O_3   0.815132 0.582527 0.102174 -0.599372
C29   C     C_3   0.772663 0.686672 0.158355 0.069786
H14   H     H_    0.829082 0.683275 0.211831 0.171173
H15   H     H_    0.656510 0.687177 0.194144 0.156876
C30   C     C_3   0.815459 0.805503 0.104631 -0.392118
H16   H     H_    0.932628 0.805829 0.072824 0.229823
H17   H     H_    0.761043 0.810553 0.050219 0.208611
C31   C     C_3   0.774525 0.918071 0.165505 -0.935783
H18   H     H_    0.657714 0.918804 0.198400 0.257920
H19   H     H_    0.803021 0.002630 0.124571 0.254607
H20   H     H_    0.832389 0.918312 0.218281 0.258385
O10   O     O_3   0.005552 0.374905 0.036977 -0.609434
C32   C     C_3   0.992788 0.246437 0.050127 0.015606
H21   H     H_    0.899155 0.215371 0.027973 0.165451
H22   H     H_    0.970357 0.220418 0.122637 0.122255
C33   C     C_3   0.125329 0.179116 0.992709 -0.345475
H23   H     H_    0.145474 0.205934 0.920733 0.230595
H24   H     H_    0.220121 0.204830 0.015531 0.211991
C34   C     C_3   0.106055 0.040411 0.000580 -0.935816
H25   H     H_    0.085819 0.011744 0.072129 0.263880
H26   H     H_    0.204592 0.994577 0.960154 0.262651
H27   H     H_    0.015576 0.010725 0.974692 0.259511
C35   C     C_3   0.365819 0.602138 0.558125 -0.059765
C36   C     C_3   0.426079 0.717825 0.504025 -0.837163
H28   H     H_    0.544258 0.715996 0.480890 0.244814
H29   H     H_    0.384488 0.727405 0.444241 0.262905
H30   H     H_    0.394873 0.800132 0.547708 0.211458
H31   H     H_    0.260335 0.627375 0.602985 0.201287
H32   H     H_    0.424368 0.578678 0.607430 0.130464
O11   O     O_3   0.550341 0.474695 0.183557 -0.628226
C37   C     C_3   0.615792 0.359303 0.185894 0.118686
H33   H     H_    0.664746 0.362036 0.242792 0.101468
H34   H     H_    0.705273 0.337601 0.125015 0.156049
C38   C     C_3   0.504283 0.255728 0.204651 -0.382626
H35   H     H_    0.538010 0.183461 0.244984 0.173656
H36   H     H_    0.399074 0.290894 0.245231 0.239879
C39   C     C_3   0.488311 0.196393 0.117927 -0.843008
H37   H     H_    0.452702 0.264107 0.075577 0.265602
H38   H     H_    0.407429 0.121902 0.135254 0.241841
H39   H     H_    0.591443 0.156244 0.078521 0.236263
O12   O     O_3   0.442797 0.538428 0.812327 -0.641940
C40   C     C_3   0.468995 0.665923 0.799469 0.054754
H40   H     H_    0.543071 0.678508 0.730838 0.174708
H41   H     H_    0.522748 0.708002 0.847555 0.139174
C41   C     C_3   0.330156 0.734031 0.804443 -0.371857
H42   H     H_    0.279300 0.693248 0.754976 0.210116
H43   H     H_    0.255629 0.724729 0.873272 0.213196
C42   C     C_3   0.357983 0.869721 0.782745 -0.924023
H44   H     H_    0.409468 0.913172 0.831114 0.255526
H45   H     H_    0.255267 0.916779 0.787954 0.260451
H46   H     H_    0.428313 0.881046 0.712899 0.255748

loop_
_geom_bond_atom_site_label_1
_geom_bond_atom_site_label_2
_geom_bond_distance
_ccdc_geom_bond_type
C16   O12   1.385951 S    
C5    C8    1.397926 A    
C32   H22   1.114963 S    
C29   H14   1.111207 S    
C42   H44   1.110770 S    
C31   H20   1.110850 S    
N1    C35   1.471485 S    
C40   H40   1.111381 S    
C37   C38   1.536273 S    
C38   H35   1.112019 S    
C40   C41   1.530523 S    
Cu1   Cu2   2.703930 S    
C27   H11   1.083300 S    
C36   H28   1.108098 S    
C6    C21   1.399476 A    
Cu1   O7    1.926373 S    
C16   C17   1.391957 A    
C13   C19   1.423304 A    
C18   C19   1.413194 A    
C14   O11   1.385677 S    
C37   H34   1.114713 S    
C19   C22   1.401187 A    
C34   H27   1.110767 S    
C20   C21   1.403796 A    
O7    C4    1.301909 A    
C32   C33   1.536318 S    
C30   H17   1.111244 S    
C31   H19   1.109971 S    
C33   H24   1.110759 S    
O5    C3    1.297171 A    
C3    C24   1.443313 S    
C2    C5    1.469082 S    
C37   H33   1.108556 S    
C27   N1    1.302006 D    
C28   H12   1.083038 S    
C13   C14   1.420996 A    
C7    H4    1.083001 S    
C30   C31   1.527061 S    
C24   H8    1.081863 S    
C32   H21   1.110869 S    
C42   H45   1.110490 S    
C33   H23   1.111494 S    
O3    Cu1   1.941915 S    
C26   H10   1.081763 S    
C28   N2    1.290725 D    
C27   C28   1.506245 S    
C36   H29   1.110094 S    
C1    C26   1.442936 S    
C14   C15   1.406979 A    
C34   H26   1.109272 S    
C35   H32   1.101114 S    
C23   C24   1.340452 D    
C23   C25   1.464177 S    
C17   H3    1.083356 S    
C30   H16   1.111313 S    
C7    C11   1.408707 A    
O1    C1    1.295932 A    
C33   C34   1.525179 S    
C5    C9    1.395569 A    
C25   C26   1.338897 D    
C9    H6    1.077499 S    
C39   H38   1.110457 S    
O11   C37   1.419182 S    
Cu2   O8    1.941918 S    
C7    C8    1.394356 A    
C21   H2    1.082925 S    
O12   C40   1.417862 S    
C35   C36   1.537712 S    
C25   H9    1.086480 S    
Cu2   N2    2.032214 S    
C15   O9    1.387600 S    
O3    C2    1.305184 A    
C10   C12   1.424190 A    
O10   C32   1.416995 S    
C42   H46   1.111034 S    
C41   H43   1.111534 S    
C29   H15   1.113796 S    
C4    C6    1.467754 S    
C38   C39   1.527685 S    
C39   H39   1.111079 S    
C36   H30   1.111049 S    
Cu1   O5    1.954756 S    
C11   C15   1.400941 A    
O9    C29   1.416627 S    
O1    Cu1   1.952857 S    
C8    H5    1.080447 S    
O2    Cu2   1.954757 S    
O8    C4    1.304772 A    
C34   H25   1.110766 S    
O6    C3    1.297188 A    
C35   H31   1.103531 S    
O4    Cu2   1.926373 S    
C40   H41   1.115354 S    
C6    C22   1.395266 A    
C41   C42   1.525586 S    
C22   H1    1.079332 S    
C9    C10   1.402625 A    
C38   H36   1.111744 S    
O2    C1    1.298255 A    
Cu1   N1    2.030874 S    
C39   H37   1.106758 S    
O4    C2    1.302127 A    
C18   C20   1.411054 A    
C31   H18   1.110958 S    
C20   O10   1.385426 S    
C10   C11   1.417835 A    
C23   H7    1.086612 S    
Cu2   O6    1.952856 S    
C41   H42   1.108523 S    
C12   C16   1.430189 A    
C29   C30   1.534178 S    
C17   C18   1.394786 A    
C12   C13   1.421657 A    
N2    H13   1.027469 S    
