data_mof_unit_67848.cif
_audit_creation_date              2013-03-05T15:41:50-0500
_audit_creation_method            fapswitch 2.2
_symmetry_space_group_name_H-M    P1
_symmetry_Int_Tables_number       1
_space_group_crystal_system       triclinic
_cell_length_a                    8.037509
_cell_length_b                    8.698293
_cell_length_c                    10.71172
_cell_angle_alpha                 93.856778
_cell_angle_beta                  87.909137
_cell_angle_gamma                 91.85747
_cell_volume                      746.353682519

loop_
_atom_site_label
_atom_site_type_symbol
_atom_site_description
_atom_site_fract_x
_atom_site_fract_y
_atom_site_fract_z
_atom_type_partial_charge
O1    O     O_R   0.389250 0.738570 0.508410 -0.584798
O2    O     O_R   0.610750 0.261430 0.491590 -0.584905
O3    O     O_R   0.678390 0.711620 0.486450 -0.583337
O4    O     O_R   0.321610 0.288380 0.513550 -0.582563
C1    C     C_R   0.542758 0.792628 0.498513 0.918707
C2    C     C_R   0.457249 0.207375 0.501510 0.919126
O5    O     O_R   0.355460 0.513510 0.697030 -0.579315
O6    O     O_R   0.644540 0.486490 0.302970 -0.578927
O7    O     O_R   0.644600 0.486560 0.675070 -0.599149
O8    O     O_R   0.355400 0.513440 0.324930 -0.599000
C3    C     C_R   0.506846 0.514548 0.741685 0.914805
C4    C     C_R   0.493159 0.485465 0.258310 0.915867
Zn1   Zn    Zn3+2 0.306940 0.517990 0.514670 1.073784
Zn2   Zn    Zn3+2 0.693060 0.482010 0.485330 1.073611
N1    N     N_2   0.950320 0.457950 0.465730 -0.200676
N2    N     N_2   0.049680 0.542050 0.534270 -0.200796
C5    C     C_3   0.388469 0.599131 0.967560 -0.150630
C6    C     C_3   0.611594 0.400886 0.032431 -0.150383
C7    C     C_3   0.525159 0.633081 0.062918 -0.170055
C8    C     C_3   0.474896 0.366935 0.937067 -0.169865
C9    C     C_3   0.482797 0.479772 0.121916 -0.205002
C10   C     C_3   0.517235 0.520248 0.878071 -0.204809
C11   C     C_3   0.343341 0.445739 0.027020 0.187052
C12   C     C_3   0.656701 0.554281 0.972950 0.187408
C13   C     C_2   0.564241 0.952683 0.486488 -0.073741
C14   C     C_2   0.435787 0.047327 0.513566 -0.073790
C15   C     C_2   0.532858 0.788942 0.136095 0.993310
O9    O     O_2   0.624686 0.892983 0.100680 -0.577471
O10   O     O_R   0.417448 0.819303 0.234423 -0.748234
H1    H     H_    0.414958 0.932955 0.261903 0.344697
C16   C     C_2   0.467185 0.211112 0.863820 0.992954
O11   O     O_2   0.374904 0.107189 0.898953 -0.577372
O12   O     O_R   0.582924 0.180661 0.765697 -0.747647
H2    H     H_    0.585244 0.067024 0.738138 0.344616
C17   C     C_2   0.280929 0.730852 0.942107 1.028039
O13   O     O_2   0.228142 0.815680 0.029244 -0.527679
O14   O     O_R   0.244435 0.760444 0.820519 -0.773428
H3    H     H_    0.161617 0.845529 0.820260 0.383933
C18   C     C_2   0.719079 0.269127 0.057913 1.028436
O15   O     O_2   0.771856 0.184263 0.970798 -0.527324
O16   O     O_R   0.755516 0.239527 0.179506 -0.773439
H4    H     H_    0.838334 0.154443 0.179778 0.383296
I1    I     I_    0.115236 0.326072 0.009536 -0.117219
I2    I     I_    0.884631 0.674375 0.990023 -0.117216
C19   C     C_2   0.021269 0.405864 0.350012 1.156408
O17   O     O_2   0.013943 0.485594 0.261098 -0.577949
O18   O     O_R   0.098957 0.264139 0.338806 -0.780267
H5    H     H_    0.157864 0.241258 0.255090 0.336137
C20   C     C_2   0.978611 0.593976 0.649988 1.156726
O19   O     O_2   0.984657 0.513590 0.738563 -0.577680
O20   O     O_R   0.901595 0.736012 0.661417 -0.780236
H6    H     H_    0.840269 0.757715 0.744237 0.336020
I3    I     I_    0.807037 0.007785 0.406342 -0.090524
I4    I     I_    0.193015 0.992241 0.593728 -0.089508

loop_
_geom_bond_atom_site_label_1
_geom_bond_atom_site_label_2
_geom_bond_distance
_ccdc_geom_bond_type
O5    Zn1   2.009017 S    
O7    Zn2   2.053414 S    
C16   O12   1.395504 S    
O10   H1    1.012933 S    
C6    C12   1.543969 S    
C15   O10   1.395254 S    
C6    C9    1.531810 S    
C7    C15   1.520326 S    
O16   H4    1.011524 S    
C3    C10   1.463775 S    
C5    C10   1.531661 S    
C5    C11   1.543869 S    
C8    C11   1.549229 S    
O6    C4    1.323080 A    
C6    C18   1.502605 S    
C19   O18   1.395900 S    
O12   H2    1.012947 S    
O2    Zn2   2.013764 S    
O20   H6    1.008573 S    
C18   O16   1.387916 S    
C2    C14   1.411201 S    
C19   O17   1.219474 D    
O5    C3    1.323093 A    
O7    C3    1.315591 A    
O2    C2    1.309237 A    
O3    Zn2   2.003710 S    
O8    C4    1.315632 A    
O1    C1    1.309277 A    
C14   I4    2.155665 S    
C10   C12   1.548618 S    
C7    C9    1.536831 S    
O14   H3    1.011528 S    
C13   I3    2.155798 S    
C7    C12   1.549239 S    
C6    C8    1.535627 S    
C9    C11   1.548685 S    
C12   I2    2.086998 S    
C1    C13   1.411229 S    
O1    Zn1   2.013764 S    
N1    C19   1.398762 S    
N1    N2    1.282415 D    
O18   H5    1.009479 S    
O3    C1    1.314868 A    
C15   O9    1.220701 D    
C11   I1    2.086863 S    
N2    C20   1.398746 S    
C17   O14   1.387969 S    
O4    C2    1.314893 A    
C20   O19   1.219135 D    
Zn1   N2    2.086588 S    
C18   O15   1.222435 D    
Zn2   N1    2.086587 S    
O6    Zn2   2.009015 S    
C17   O13   1.222459 D    
C5    C17   1.502530 S    
C5    C7    1.535530 S    
C13   C14   1.352382 D    
C4    C9    1.463839 S    
C8    C16   1.520388 S    
C16   O11   1.220988 D    
O4    Zn1   2.003710 S    
C8    C10   1.536816 S    
C20   O20   1.395797 S    
O8    Zn1   2.053414 S    
