data_mof_unit_55401.cif
_audit_creation_date              2013-03-05T15:50:08-0500
_audit_creation_method            fapswitch 2.2
_symmetry_space_group_name_H-M    P1
_symmetry_Int_Tables_number       1
_space_group_crystal_system       triclinic
_cell_length_a                    12.074608
_cell_length_b                    12.828329
_cell_length_c                    15.514011
_cell_angle_alpha                 86.309348
_cell_angle_beta                  116.038581
_cell_angle_gamma                 93.188683
_cell_volume                      2153.67744304

loop_
_atom_site_label
_atom_site_type_symbol
_atom_site_description
_atom_site_fract_x
_atom_site_fract_y
_atom_site_fract_z
_atom_type_partial_charge
O1    O     O_R   0.580150 0.341050 0.504560 -0.641980
O2    O     O_R   0.419850 0.658950 0.495440 -0.640456
O3    O     O_R   0.388090 0.353760 0.493600 -0.580416
O4    O     O_R   0.611910 0.646240 0.506400 -0.578591
C1    C     C_R   0.478792 0.299692 0.501513 0.940137
C2    C     C_R   0.521180 0.700294 0.498438 0.943298
O5    O     O_R   0.650890 0.490020 0.640860 -0.651847
O6    O     O_R   0.349110 0.509980 0.359140 -0.654448
O7    O     O_R   0.458830 0.502730 0.629890 -0.604206
O8    O     O_R   0.541170 0.497270 0.370110 -0.603121
C3    C     C_R   0.576242 0.492746 0.680482 0.900489
C4    C     C_R   0.423297 0.503811 0.319489 0.913059
Zn1   Zn    Zn3+2 0.628240 0.491510 0.507320 0.960170
Zn2   Zn    Zn3+2 0.371760 0.508490 0.492680 0.958823
C5    C     C_R   0.620718 0.474558 0.784159 -0.043736
C6    C     C_R   0.375472 0.492282 0.216064 -0.047783
C7    C     C_R   0.781331 0.441969 0.944511 -0.190470
C8    C     C_R   0.211034 0.457703 0.059391 -0.190491
C9    C     C_R   0.745403 0.460866 0.846368 -0.208364
C10   C     C_R   0.249441 0.479318 0.155638 -0.206221
C11   C     C_R   0.532698 0.465396 0.819985 -0.185628
C12   C     C_R   0.461622 0.483715 0.179805 -0.220830
C13   C     C_R   0.565569 0.442227 0.916839 0.087801
C14   C     C_R   0.426238 0.454346 0.086338 0.079868
C15   C     C_R   0.692500 0.434973 0.980401 0.172992
C16   C     C_R   0.298649 0.445743 0.024183 0.177758
C17   C     C_R   0.475516 0.434075 0.952490 0.070004
C18   C     C_R   0.515128 0.438693 0.052339 0.069807
C19   C     C_R   0.642033 0.427327 0.114729 -0.214763
C20   C     C_R   0.347521 0.422440 0.891850 -0.203140
C21   C     C_R   0.728870 0.423366 0.078878 -0.223424
C22   C     C_R   0.260740 0.426349 0.927834 -0.230410
H1    H     H_    0.825269 0.415428 0.128622 0.146961
H2    H     H_    0.163606 0.417318 0.879457 0.141670
H3    H     H_    0.557222 0.501883 0.225472 0.169271
H4    H     H_    0.438089 0.480749 0.771643 0.157130
H5    H     H_    0.181313 0.485147 0.182715 0.152053
H6    H     H_    0.814673 0.466088 0.819542 0.149234
H7    H     H_    0.878413 0.434532 0.992473 0.129960
H8    H     H_    0.113254 0.449624 0.012730 0.129414
H9    H     H_    0.676275 0.418499 0.191741 0.148966
H10   H     H_    0.312143 0.407103 0.816623 0.159762
C23   C     C_R   0.531522 0.811792 0.491815 -0.186092
C24   C     C_R   0.468348 0.188176 0.507956 -0.185172
C25   C     C_R   0.418446 0.026843 0.573320 -0.261009
C26   C     C_R   0.581164 0.973071 0.426198 -0.260432
C27   C     C_R   0.416558 0.135357 0.565017 0.310229
C28   C     C_R   0.582833 0.864519 0.434391 0.308220
C29   C     C_R   0.519472 0.133956 0.459996 -0.300081
C30   C     C_R   0.480614 0.866056 0.539882 -0.300258
C31   C     C_R   0.525288 0.026885 0.471279 0.123056
C32   C     C_R   0.474621 0.973092 0.528447 0.122965
H11   H     H_    0.442918 0.824258 0.584654 0.164172
H12   H     H_    0.557360 0.175797 0.415369 0.164113
H13   H     H_    0.380415 0.984828 0.617641 0.179763
H14   H     H_    0.618995 0.015065 0.381736 0.179457
N1    N     N_R   0.799120 0.480200 0.517090 -0.116984
N2    N     N_R   0.200880 0.519800 0.482910 -0.115879
C33   C     C_R   0.998911 0.598756 0.409682 -0.305750
C34   C     C_R   0.001173 0.401304 0.590464 -0.309567
C35   C     C_R   0.119870 0.591947 0.418576 0.242106
C36   C     C_R   0.880199 0.408151 0.581558 0.246325
C37   C     C_R   0.162087 0.456964 0.539683 -0.057870
C38   C     C_R   0.837929 0.542978 0.460312 -0.057973
C39   C     C_R   0.041291 0.464258 0.532956 0.053362
C40   C     C_R   0.958737 0.535680 0.467077 0.050702
H15   H     H_    0.775020 0.598822 0.409651 0.187567
H16   H     H_    0.225019 0.401132 0.590354 0.182831
H17   H     H_    0.936186 0.654075 0.357777 0.171417
H18   H     H_    0.063986 0.346142 0.642527 0.165123
C41   C     C_3   0.847365 0.333231 0.646679 -0.412322
C42   C     C_3   0.839150 0.219669 0.617865 -0.349352
C43   C     C_3   0.798795 0.144972 0.680139 -0.815335
H19   H     H_    0.867602 0.147434 0.756577 0.259297
H20   H     H_    0.707622 0.166500 0.673817 0.269363
H21   H     H_    0.791078 0.063978 0.656265 0.258615
H22   H     H_    0.772102 0.212833 0.541403 0.241279
H23   H     H_    0.930292 0.195570 0.625921 0.235203
H24   H     H_    0.919120 0.340693 0.721853 0.167822
H25   H     H_    0.760750 0.351075 0.647413 0.264169
C44   C     C_3   0.152837 0.667144 0.353716 -0.410252
C45   C     C_3   0.161316 0.780543 0.383053 -0.349135
C46   C     C_3   0.201407 0.855663 0.320897 -0.815047
H26   H     H_    0.292479 0.834267 0.326906 0.268918
H27   H     H_    0.132385 0.853540 0.244487 0.260379
H28   H     H_    0.209232 0.936514 0.345143 0.258309
H29   H     H_    0.070306 0.804576 0.375346 0.235489
H30   H     H_    0.228562 0.787022 0.459502 0.241702
H31   H     H_    0.239313 0.649206 0.352746 0.263974
H32   H     H_    0.080989 0.660074 0.278535 0.175576
N3    N     N_R   0.629105 0.809712 0.379658 0.204311
O9    O     O_R   0.725913 0.846463 0.370058 -0.410265
O10   O     O_R   0.563207 0.734519 0.326017 -0.431330
N4    N     N_R   0.369538 0.190034 0.619301 0.203624
O11   O     O_R   0.271972 0.153468 0.627882 -0.413090
O12   O     O_R   0.435520 0.264619 0.673749 -0.434546

loop_
_geom_bond_atom_site_label_1
_geom_bond_atom_site_label_2
_geom_bond_distance
_ccdc_geom_bond_type
C24   C29   1.391432 A    
C15   C21   1.392149 A    
C37   C39   1.423847 A    
C16   C22   1.392925 A    
C43   H19   1.111051 S    
C8    C16   1.406139 A    
C41   H24   1.112645 S    
C44   C45   1.536745 S    
N1    C36   1.391053 A    
C11   H4    1.077075 S    
O5    C3    1.297774 A    
C12   H3    1.077992 S    
O1    C1    1.289087 A    
C18   C19   1.417993 A    
C14   C16   1.416320 A    
C33   C40   1.387696 A    
Zn1   N1    2.014241 S    
C45   H29   1.111091 S    
C34   C36   1.412808 A    
C7    H7    1.083702 S    
O4    Zn1   2.004108 S    
C8    H8    1.083697 S    
C42   H23   1.111040 S    
C3    C5    1.461914 S    
C4    C6    1.462006 S    
C29   C31   1.375203 A    
C28   N3    1.436863 S    
C30   C32   1.374962 A    
C21   H1    1.084070 S    
C13   C17   1.416719 A    
C23   C28   1.412595 A    
C24   C27   1.412621 A    
C6    C10   1.400614 A    
C44   H31   1.088317 S    
N2    C35   1.390765 A    
C17   C20   1.418373 A    
C43   H20   1.110564 S    
O2    C2    1.288979 A    
C41   H25   1.088005 S    
C25   C27   1.390239 A    
Zn2   N2    2.014243 S    
C26   C28   1.390618 A    
C33   C35   1.412632 A    
C30   H11   1.086105 S    
C31   C32   1.409852 A    
C38   H15   1.082514 S    
O4    C2    1.284900 A    
N3    O9    1.301272 A    
C25   C32   1.395909 A    
C26   C31   1.396128 A    
C6    C12   1.394631 A    
C38   C40   1.423772 A    
C5    C9    1.400299 A    
O7    Zn2   1.914577 S    
C42   H22   1.110235 S    
C9    H6    1.083069 S    
N3    O10   1.301046 A    
C46   H26   1.110651 S    
C34   H18   1.084751 S    
O6    C4    1.298084 A    
N4    O12   1.300826 A    
O7    C3    1.293312 A    
O3    Zn2   2.004106 S    
O8    C4    1.293428 A    
C33   H17   1.084645 S    
C44   H32   1.112546 S    
C46   H27   1.111220 S    
C1    C24   1.430043 S    
C34   C39   1.387802 A    
C39   C40   1.401525 A    
C2    C23   1.429853 S    
C11   C13   1.391290 A    
C43   H21   1.110819 S    
C12   C14   1.391259 A    
O1    Zn1   1.982074 S    
N1    C38   1.368635 A    
N2    C37   1.368846 A    
C37   H16   1.082590 S    
O6    Zn2   1.966038 S    
C19   H9    1.079516 S    
C14   C18   1.416049 A    
C42   C43   1.526827 S    
O3    C1    1.284952 A    
O8    Zn1   1.914578 S    
C23   C30   1.391188 A    
C7    C15   1.405605 A    
C41   C42   1.536487 S    
C19   C21   1.390277 A    
C35   C44   1.511787 S    
C20   C22   1.391099 A    
C10   H5    1.083067 S    
C5    C11   1.395922 A    
C45   H30   1.110210 S    
C7    C9    1.396244 A    
C27   N4    1.436558 S    
C36   C41   1.511889 S    
C8    C10   1.397347 A    
C13   C15   1.416768 A    
N4    O11   1.301453 A    
O2    Zn2   1.982074 S    
O5    Zn1   1.966039 S    
C46   H28   1.110988 S    
C25   H13   1.084502 S    
C45   C46   1.526806 S    
C26   H14   1.084484 S    
C17   C18   1.410687 A    
C20   H10   1.079705 S    
C29   H12   1.086120 S    
C22   H2    1.084227 S    
