data_mof_unit_25821.cif
_audit_creation_date              2012-12-10T16:44:15-0500
_audit_creation_method            fapswitch 2.2
_symmetry_space_group_name_H-M    P1
_symmetry_Int_Tables_number       1
_space_group_crystal_system       triclinic
_cell_length_a                    7.533899
_cell_length_b                    8.700799
_cell_length_c                    13.413127
_cell_angle_alpha                 96.107417
_cell_angle_beta                  77.531928
_cell_angle_gamma                 103.678527
_cell_volume                      832.738008414

loop_
_atom_site_label
_atom_site_type_symbol
_atom_type_description
_atom_site_fract_x
_atom_site_fract_y
_atom_site_fract_z
_atom_type_partial_charge
C1    C     C_R   0.546114 0.800151 0.502533 0.858463
C2    C     C_R   0.418192 0.503910 0.975625 0.076483
C3    C     C_R   0.466133 0.551043 0.873439 0.083110
C4    C     C_R   0.557749 0.541065 0.036655 0.068977
C5    C     C_R   0.736227 0.635216 0.997791 0.157578
C6    C     C_R   0.772607 0.695027 0.901530 -0.241262
C7    C     C_R   0.638389 0.656350 0.841331 -0.191560
C8    C     C_R   0.525704 0.487810 0.135372 -0.247642
C9    C     C_R   0.836534 0.623698 0.156418 -0.205802
C10   C     C_R   0.339272 0.493346 0.806401 -0.109967
C11   C     C_2   0.570293 0.968997 0.506017 -0.369403
C12   C     C_R   0.400458 0.497397 0.694258 0.756589
C13   C     C_2   0.439932 0.031849 0.482797 -0.379464
C14   C     C_R   0.456751 0.200016 0.493507 0.877847
C15   C     C_R   0.600495 0.510567 0.306361 0.785048
C16   C     C_R   0.874936 0.672838 0.057033 -0.183503
C17   C     C_R   0.659672 0.535018 0.196781 -0.049670
C18   C     C_R   0.156698 0.413953 0.846151 -0.191164
C19   C     C_R   0.103083 0.382563 0.948909 -0.139840
C20   C     C_R   0.232161 0.423521 0.012746 -0.189476
Cu1   Cu    Cu3+1 0.321300 0.483160 0.488710 0.943886
Cu2   Cu    Cu3+1 0.678700 0.516840 0.511290 0.959058
H1    H     H_    0.941745 0.661115 0.202998 0.157027
H2    H     H_    0.321241 0.959442 0.454364 0.172924
H3    H     H_    0.989208 0.377057 0.421289 0.196065
H4    H     H_    0.905149 0.773038 0.872744 0.146119
H5    H     H_    0.011422 0.744278 0.027476 0.142721
H6    H     H_    0.395486 0.411795 0.167752 0.144383
H7    H     H_    0.056220 0.371625 0.797086 0.165766
H8    H     H_    0.180203 0.393684 0.091178 0.129685
H9    H     H_    0.961420 0.321826 0.978827 0.151245
H10   H     H_    0.669639 0.713744 0.770374 0.163433
H11   H     H_    0.693558 0.041700 0.530685 0.173508
N1    N     N_2   0.947230 0.542220 0.528320 0.012264
N2    N     N_2   0.052770 0.457780 0.471680 -0.189073
O1    O     O_R   0.383920 0.714220 0.492660 -0.575505
O2    O     O_R   0.685730 0.742660 0.511730 -0.595260
O3    O     O_R   0.275440 0.478800 0.636790 -0.608128
O4    O     O_R   0.577250 0.507240 0.655860 -0.557328
O5    O     O_R   0.314270 0.257340 0.488270 -0.587891
O6    O     O_R   0.616080 0.285780 0.507340 -0.582740
O7    O     O_R   0.422750 0.492760 0.344140 -0.583701
O8    O     O_R   0.724560 0.521200 0.363210 -0.596121
N3    N     N_2   0.016861 0.657655 0.598086 -0.294141
H12   H     H_    0.128871 0.652181 0.625621 0.290645
C21   C     C_3   0.004130 0.817967 0.588096 -0.554624
H13   H     H_    0.118197 0.902767 0.618250 0.169265
H14   H     H_    0.873306 0.841712 0.636140 0.209694
H15   H     H_    0.016248 0.840658 0.506778 0.231482

loop_
_geom_bond_atom_site_label_1
_geom_bond_atom_site_label_2
_ccdc_geom_bond_type
C2    C4    A    
C6    C7    A    
Cu1   N2    S    
C15   O7    A    
C8    C17   A    
C1    C11   S    
C1    O2    A    
C4    C8    A    
C19   H9    S    
C12   O4    A    
C2    C3    A    
C15   O8    A    
C18   H7    S    
C20   H8    S    
C13   C14   S    
C11   C13   D    
C21   H15   S    
C6    H4    S    
Cu1   O5    S    
C10   C12   S    
H3    N2    S    
C14   O6    A    
Cu2   N1    S    
Cu2   O4    S    
C9    C17   A    
C9    C16   A    
C10   C18   A    
C18   C19   A    
C3    C7    A    
C12   O3    A    
C5    C6    A    
C8    H6    S    
C21   H14   S    
C3    C10   A    
Cu2   O6    S    
C14   O5    A    
Cu1   O7    S    
C11   H11   S    
N1    N3    S    
N3    H12   S    
C13   H2    S    
C15   C17   S    
N1    N2    D    
C16   H5    S    
Cu1   O1    S    
C21   H13   S    
C9    H1    S    
C5    C16   A    
C7    H10   S    
Cu1   Cu2   S    
Cu2   O2    S    
C2    C20   A    
Cu2   O8    S    
Cu1   O3    S    
C19   C20   A    
C1    O1    A    
N3    C21   S    
C4    C5    A    
