data_mof_unit_15483.cif
_audit_creation_date              2013-03-05T16:18:41-0500
_audit_creation_method            fapswitch 2.2
_symmetry_space_group_name_H-M    P1
_symmetry_Int_Tables_number       1
_space_group_crystal_system       triclinic
_cell_length_a                    33.277512
_cell_length_b                    33.179083
_cell_length_c                    22.168374
_cell_angle_alpha                 89.795544
_cell_angle_beta                  89.942971
_cell_angle_gamma                 90.105376
_cell_volume                      24476.2764522

loop_
_atom_site_label
_atom_site_type_symbol
_atom_site_description
_atom_site_fract_x
_atom_site_fract_y
_atom_site_fract_z
_atom_type_partial_charge
O1    O     O_R   0.041070 0.458950 0.550320 -0.587809
O2    O     O_R   0.958930 0.541050 0.449680 -0.583276
O3    O     O_R   0.958930 0.541050 0.550320 -0.587322
O4    O     O_R   0.041070 0.458950 0.449680 -0.584871
O5    O     O_R   0.958930 0.458950 0.449680 -0.582564
O6    O     O_R   0.041070 0.541050 0.550320 -0.577337
O7    O     O_R   0.041070 0.541050 0.449680 -0.584317
O8    O     O_R   0.958930 0.458950 0.550320 -0.575365
O9    O     O_R   0.541070 0.958950 0.550320 -0.579967
O10   O     O_R   0.458930 0.041050 0.449680 -0.579151
O11   O     O_R   0.458930 0.041050 0.550320 -0.581674
O12   O     O_R   0.541070 0.958950 0.449680 -0.581019
O13   O     O_R   0.458930 0.958950 0.449680 -0.593679
O14   O     O_R   0.541070 0.041050 0.550320 -0.582036
O15   O     O_R   0.541070 0.041050 0.449680 -0.580981
O16   O     O_R   0.458930 0.958950 0.550320 -0.583593
C1    C     C_R   0.001770 0.464206 0.321187 -0.110076
C2    C     C_R   0.002295 0.464458 0.679892 -0.071084
C3    C     C_R   0.998773 0.535420 0.319812 -0.096874
C4    C     C_R   0.997622 0.535593 0.679376 -0.092110
C5    C     C_R   0.532066 0.015229 0.319843 -0.070204
C6    C     C_R   0.535593 0.002175 0.679287 -0.072392
C7    C     C_R   0.468171 0.984075 0.320261 -0.086070
C8    C     C_R   0.464640 0.997452 0.679956 -0.072209
C9    C     C_R   0.054661 0.445396 0.500027 0.859383
C10   C     C_R   0.945473 0.554764 0.499958 0.858775
C11   C     C_R   0.945249 0.445348 0.500122 0.862454
C12   C     C_R   0.054466 0.554727 0.499900 0.859221
C13   C     C_R   0.554907 0.945620 0.500000 0.858978
C14   C     C_R   0.445312 0.054628 0.499866 0.854703
C15   C     C_R   0.445033 0.945680 0.500020 0.863829
C16   C     C_R   0.554684 0.054347 0.499938 0.850475
Cu1   Cu    Cu3+1 0.000000 0.500000 0.559570 0.942434
Cu2   Cu    Cu3+1 0.000000 0.500000 0.440430 0.938532
Cu3   Cu    Cu3+1 0.500000 0.000000 0.559570 0.943868
Cu4   Cu    Cu3+1 0.500000 0.000000 0.440430 0.937555
H1    H     H_    0.003848 0.436886 0.347619 0.136171
H2    H     H_    0.003794 0.436450 0.655157 0.162857
H3    H     H_    0.996757 0.563312 0.344682 0.140045
H4    H     H_    0.996583 0.563437 0.653941 0.154328
H5    H     H_    0.557309 0.027727 0.344007 0.169995
H6    H     H_    0.563400 0.003553 0.654023 0.147823
H7    H     H_    0.442948 0.971664 0.344708 0.153377
H8    H     H_    0.436649 0.995960 0.655269 0.146972
N1    N     N_R   1.000000 0.500000 0.350920 -0.192803
N2    N     N_R   0.000000 0.500000 0.649080 -0.209417
N3    N     N_R   0.500000 0.000000 0.350920 -0.212441
N4    N     N_R   0.500000 0.000000 0.649080 -0.205275
C17   C     C_R   0.163031 0.716221 0.506702 0.631908
C18   C     C_R   0.818052 0.299524 0.567247 0.584309
C19   C     C_R   0.838300 0.718061 0.505062 0.584513
C20   C     C_R   0.164587 0.284741 0.490372 0.617525
C21   C     C_R   0.707968 0.171436 0.456711 0.631222
C22   C     C_R   0.332472 0.788106 0.489107 0.597277
C23   C     C_R   0.334273 0.213725 0.504778 0.626753
C24   C     C_R   0.668493 0.789175 0.493423 0.624877
N5    N     N_R   0.174619 0.677061 0.498967 -0.432127
N6    N     N_R   0.837142 0.310277 0.514393 -0.460825
N7    N     N_R   0.826681 0.678737 0.498480 -0.437675
N8    N     N_R   0.176000 0.324075 0.497549 -0.437793
N9    N     N_R   0.681715 0.169329 0.504211 -0.430963
N10   N     N_R   0.320852 0.827316 0.496024 -0.429285
N11   N     N_R   0.322867 0.174673 0.495044 -0.429313
N12   N     N_R   0.680187 0.828616 0.497491 -0.429710
C25   C     C_R   0.213917 0.666771 0.490441 0.559168
C26   C     C_R   0.837390 0.281475 0.469793 0.617486
C27   C     C_R   0.787277 0.668303 0.491034 0.590866
C28   C     C_R   0.215512 0.334778 0.502904 0.609212
C29   C     C_R   0.686021 0.193242 0.553857 0.554277
C30   C     C_R   0.281444 0.837848 0.502111 0.602190
C31   C     C_R   0.283866 0.164506 0.483464 0.576131
C32   C     C_R   0.719755 0.839351 0.500679 0.606191
C33   C     C_R   0.243670 0.696579 0.489011 -0.041434
C34   C     C_R   0.805850 0.253437 0.465645 -0.076587
C35   C     C_R   0.757441 0.697985 0.490561 -0.050077
C36   C     C_R   0.245513 0.305215 0.502564 -0.049668
C37   C     C_R   0.718467 0.220042 0.558037 -0.039480
C38   C     C_R   0.251553 0.808121 0.502422 -0.047883
C39   C     C_R   0.253944 0.194100 0.483594 -0.042490
C40   C     C_R   0.749667 0.809689 0.501060 -0.043595
C41   C     C_R   0.232590 0.737248 0.495899 -0.064631
C42   C     C_R   0.778086 0.250630 0.513147 -0.063020
C43   C     C_R   0.768575 0.738760 0.496188 -0.064462
C44   C     C_R   0.234663 0.264623 0.493788 -0.065986
C45   C     C_R   0.745535 0.223336 0.509408 -0.058619
C46   C     C_R   0.262571 0.767464 0.495015 -0.063257
C47   C     C_R   0.264777 0.234614 0.493287 -0.061713
C48   C     C_R   0.738542 0.768870 0.495880 -0.063945
C49   C     C_R   0.191657 0.747652 0.503946 -0.069138
C50   C     C_R   0.784763 0.273076 0.566117 -0.078502
C51   C     C_R   0.809620 0.749382 0.502319 -0.062046
C52   C     C_R   0.193767 0.254050 0.485701 -0.065755
C53   C     C_R   0.740433 0.199055 0.457557 -0.068530
C54   C     C_R   0.303498 0.757031 0.486964 -0.056031
C55   C     C_R   0.305612 0.245074 0.502557 -0.064169
C56   C     C_R   0.697462 0.758177 0.490541 -0.064359
C57   C     C_R   0.284051 0.686410 0.480044 -0.240595
C58   C     C_R   0.801290 0.228940 0.414786 -0.233330
C59   C     C_R   0.716879 0.687564 0.484027 -0.228662
C60   C     C_R   0.286006 0.315613 0.510242 -0.227767
C61   C     C_R   0.724783 0.242862 0.610321 -0.233336
C62   C     C_R   0.211030 0.818394 0.509488 -0.235270
C63   C     C_R   0.213629 0.183898 0.473694 -0.233541
C64   C     C_R   0.790321 0.820179 0.505899 -0.232694
C65   C     C_R   0.758108 0.268455 0.615525 0.240623
C66   C     C_R   0.180993 0.788867 0.509462 0.252058
C67   C     C_R   0.183564 0.213296 0.473912 0.254143
C68   C     C_R   0.820351 0.790723 0.505963 0.258385
C69   C     C_R   0.313922 0.716049 0.477955 0.257257
C70   C     C_R   0.768533 0.202569 0.409510 0.257270
C71   C     C_R   0.686902 0.717036 0.483197 0.253153
C72   C     C_R   0.316119 0.286241 0.509854 0.255831
O17   O     O_2   0.124018 0.724305 0.517810 -0.482438
O18   O     O_2   0.833244 0.310927 0.620746 -0.449137
O19   O     O_2   0.877443 0.726503 0.514521 -0.496354
O20   O     O_2   0.125088 0.275602 0.488750 -0.486399
O21   O     O_2   0.702681 0.146534 0.409429 -0.485356
O22   O     O_2   0.371999 0.779516 0.485331 -0.512517
O23   O     O_2   0.373171 0.221809 0.516876 -0.498312
O24   O     O_2   0.628923 0.780290 0.492982 -0.490699
O25   O     O_2   0.224074 0.627716 0.483171 -0.581508
O26   O     O_2   0.868933 0.278016 0.432007 -0.483479
O27   O     O_2   0.777025 0.629175 0.484539 -0.546827
O28   O     O_2   0.225668 0.373989 0.508589 -0.542739
O29   O     O_2   0.659189 0.190663 0.599410 -0.585509
O30   O     O_2   0.271320 0.877022 0.507826 -0.563581
O31   O     O_2   0.274128 0.125770 0.472069 -0.567805
O32   O     O_2   0.730038 0.878665 0.503342 -0.569715
H9    H     H_    0.292684 0.655246 0.473525 0.184899
H10   H     H_    0.822320 0.231324 0.377574 0.183689
H11   H     H_    0.708140 0.656301 0.478642 0.184862
H12   H     H_    0.294660 0.346856 0.516139 0.183556
H13   H     H_    0.704242 0.240420 0.648129 0.185745
H14   H     H_    0.202276 0.849672 0.514220 0.184404
H15   H     H_    0.205185 0.152903 0.464954 0.184925
H16   H     H_    0.799168 0.851557 0.508989 0.183242
C73   C     C_R   0.874945 0.361983 0.450712 0.481618
C74   C     C_R   0.119372 0.641534 0.448748 0.444929
C75   C     C_R   0.137698 0.375506 0.552959 0.472656
C76   C     C_R   0.875090 0.636511 0.553592 0.460922
C77   C     C_R   0.368602 0.870949 0.442712 0.443079
C78   C     C_R   0.657617 0.099647 0.516433 0.453179
C79   C     C_R   0.639976 0.878438 0.552525 0.458394
C80   C     C_R   0.366128 0.128350 0.551860 0.440255
C81   C     C_R   0.904205 0.392422 0.448898 -0.310901
C82   C     C_R   0.089462 0.611769 0.449756 -0.313342
C83   C     C_R   0.107787 0.405806 0.552436 -0.364743
C84   C     C_R   0.905139 0.606913 0.553207 -0.320101
C85   C     C_R   0.398728 0.900467 0.444338 -0.326212
C86   C     C_R   0.626173 0.071426 0.513832 -0.331382
C87   C     C_R   0.607775 0.905996 0.552971 -0.342848
C88   C     C_R   0.397357 0.100059 0.552862 -0.318385
H17   H     H_    0.918318 0.399864 0.406203 0.177692
H18   H     H_    0.068429 0.609587 0.412643 0.157327
H19   H     H_    0.101225 0.423512 0.591984 0.168777
H20   H     H_    0.921168 0.600095 0.594486 0.162318
H21   H     H_    0.411244 0.911621 0.402512 0.164163
H22   H     H_    0.632139 0.039673 0.520945 0.145026
H23   H     H_    0.597902 0.919870 0.594319 0.172224
H24   H     H_    0.409506 0.090065 0.595642 0.178501
C89   C     C_R   0.913854 0.414014 0.500912 -0.188259
C90   C     C_R   0.085573 0.585956 0.499543 -0.140285
C91   C     C_R   0.086005 0.414263 0.499872 -0.140105
C92   C     C_R   0.914733 0.586518 0.499801 -0.154791
C93   C     C_R   0.412740 0.915489 0.499513 -0.144518
C94   C     C_R   0.587141 0.083835 0.500149 -0.127014
C95   C     C_R   0.587504 0.915745 0.499605 -0.141205
C96   C     C_R   0.413464 0.085334 0.498959 -0.147399
C97   C     C_R   0.890644 0.408009 0.552683 -0.280226
C98   C     C_R   0.111160 0.590333 0.549204 -0.338938
C99   C     C_R   0.094172 0.393045 0.446924 -0.313150
C100  C     C_R   0.895069 0.596837 0.446052 -0.324183
C101  C     C_R   0.395224 0.902115 0.553538 -0.326379
C102  C     C_R   0.579191 0.124249 0.487231 -0.327987
C103  C     C_R   0.598679 0.897410 0.445372 -0.342113
C104  C     C_R   0.399247 0.100092 0.443593 -0.358312
H25   H     H_    0.893767 0.428137 0.590798 0.193907
H26   H     H_    0.107356 0.570955 0.588175 0.170380
H27   H     H_    0.076529 0.398844 0.406913 0.163142
H28   H     H_    0.901360 0.580436 0.404966 0.179042
H29   H     H_    0.405939 0.913358 0.596419 0.166009
H30   H     H_    0.548951 0.133187 0.475336 0.151883
H31   H     H_    0.581844 0.904680 0.405184 0.174818
H32   H     H_    0.413055 0.089009 0.402848 0.177584
C105  C     C_R   0.860402 0.378769 0.553962 0.477176
C106  C     C_R   0.141548 0.619756 0.548769 0.445520
C107  C     C_R   0.124680 0.364032 0.445380 0.442058
C108  C     C_R   0.867031 0.628283 0.444832 0.451376
C109  C     C_R   0.363595 0.874146 0.552462 0.431401
C110  C     C_R   0.610181 0.153082 0.489930 0.452031
C111  C     C_R   0.630390 0.869347 0.443520 0.448562
C112  C     C_R   0.368580 0.129435 0.441296 0.459187
C113  C     C_R   0.858396 0.349222 0.507141 0.053704
C114  C     C_R   0.144661 0.645966 0.499065 0.206851
C115  C     C_R   0.145704 0.354896 0.498717 0.201205
C116  C     C_R   0.856607 0.647609 0.498983 0.177076
C117  C     C_R   0.351053 0.858090 0.497043 0.216178
C118  C     C_R   0.649570 0.140358 0.502926 0.200732
C119  C     C_R   0.649962 0.859435 0.497825 0.220039
C120  C     C_R   0.352799 0.143634 0.496111 0.209996
C121  C     C_R   0.000656 0.499188 0.224461 0.246298
C122  C     C_R   0.999960 0.500107 0.775661 0.201823
C123  C     C_R   0.500322 0.998891 0.224034 0.167902
C124  C     C_R   0.500502 0.999472 0.775592 0.209582
C125  C     C_R   0.033797 0.512266 0.871864 0.576805
C126  C     C_R   0.966977 0.486674 0.128138 0.599344
C127  C     C_R   0.966414 0.487612 0.872232 0.593736
C128  C     C_R   0.034447 0.511101 0.127765 0.587429
C129  C     C_R   0.493447 0.034529 0.871789 0.579766
C130  C     C_R   0.506393 0.963492 0.127762 0.564188
C131  C     C_R   0.508072 0.964171 0.871926 0.574576
C132  C     C_R   0.494082 0.034304 0.127581 0.567426
N13   N     N_R   0.000034 0.500052 0.841273 -0.419948
N14   N     N_R   0.000725 0.498928 0.158779 -0.407948
N15   N     N_R   0.500714 0.999387 0.841130 -0.415834
N16   N     N_R   0.500260 0.998869 0.158440 -0.427831
C133  C     C_R   0.965922 0.487040 0.936049 -0.045030
C134  C     C_R   0.034930 0.511685 0.063949 -0.037536
C135  C     C_R   0.034611 0.512268 0.935674 -0.036795
C136  C     C_R   0.966232 0.486508 0.064324 -0.040784
C137  C     C_R   0.507756 0.963281 0.935723 -0.034049
C138  C     C_R   0.493769 0.035053 0.063800 -0.035403
C139  C     C_R   0.493519 0.035187 0.935579 -0.035556
C140  C     C_R   0.506913 0.962943 0.063966 -0.034773
C141  C     C_R   0.000346 0.499514 0.967895 -0.012391
C142  C     C_R   0.000501 0.499241 0.032102 -0.007758
C143  C     C_R   0.500555 0.999171 0.967675 -0.012643
C144  C     C_R   0.500413 0.999054 0.031860 -0.013834
C145  C     C_R   0.931887 0.474353 0.968764 -0.159468
C146  C     C_R   0.068984 0.524334 0.031234 -0.172306
C147  C     C_R   0.068825 0.524624 0.968019 -0.161144
C148  C     C_R   0.932041 0.474085 0.031978 -0.166848
C149  C     C_R   0.514417 0.927439 0.968313 -0.165418
C150  C     C_R   0.486957 0.070867 0.031219 -0.164541
C151  C     C_R   0.486712 0.070909 0.968018 -0.165156
C152  C     C_R   0.513862 0.927246 0.031522 -0.167538
O33   O     O_2   0.066609 0.524180 0.840751 -0.542236
O34   O     O_2   0.934088 0.474913 0.159199 -0.550635
O35   O     O_2   0.933448 0.475979 0.841481 -0.529168
O36   O     O_2   0.067568 0.522367 0.158442 -0.565814
O37   O     O_2   0.486244 0.068796 0.840759 -0.550072
O38   O     O_2   0.512261 0.928957 0.158770 -0.554410
O39   O     O_2   0.515587 0.930056 0.841035 -0.550620
O40   O     O_2   0.488001 0.068730 0.158416 -0.549602
H33   H     H_    0.904953 0.464573 0.945624 0.186184
H34   H     H_    0.095920 0.534105 0.054378 0.182942
H35   H     H_    0.095652 0.534583 0.944586 0.184618
H36   H     H_    0.905217 0.464114 0.055410 0.183597
H37   H     H_    0.519973 0.899337 0.945076 0.185477
H38   H     H_    0.481685 0.099026 0.054457 0.184285
H39   H     H_    0.481259 0.099097 0.944670 0.185576
H40   H     H_    0.519031 0.899005 0.054875 0.182980
C153  C     C_R   0.001228 0.462709 0.257204 0.317722
C154  C     C_R   0.003061 0.463762 0.743441 0.314209
C155  C     C_R   0.999980 0.535951 0.256035 0.310683
C156  C     C_R   0.996554 0.536442 0.743143 0.329383
C157  C     C_R   0.533307 0.014445 0.256388 0.339965
C158  C     C_R   0.536610 0.002880 0.742870 0.313679
C159  C     C_R   0.467307 0.983617 0.256800 0.334113
C160  C     C_R   0.464141 0.996312 0.743527 0.311499
N17   N     N_2   0.763110 0.291032 0.669415 -0.387481
H41   H     H_    0.737101 0.305245 0.683019 0.238299
C161  C     C_3   0.781330 0.268493 0.718189 -0.571135
H42   H     H_    0.786913 0.288893 0.756887 0.228187
H43   H     H_    0.810535 0.255542 0.703648 0.253151
H44   H     H_    0.761041 0.243754 0.733196 0.191336
N18   N     N_2   0.140199 0.801296 0.514000 -0.376614
H45   H     H_    0.135918 0.825206 0.542930 0.246066
C162  C     C_3   0.121012 0.807978 0.456289 -0.584582
H46   H     H_    0.088750 0.814994 0.463431 0.228578
H47   H     H_    0.123092 0.780585 0.427754 0.252447
H48   H     H_    0.135429 0.833746 0.432421 0.197480
N19   N     N_2   0.143432 0.201462 0.460480 -0.374605
H49   H     H_    0.135847 0.173374 0.477122 0.246076
C163  C     C_3   0.132870 0.205841 0.397485 -0.595077
H50   H     H_    0.151017 0.184922 0.369478 0.198687
H51   H     H_    0.138064 0.237300 0.381910 0.250465
H52   H     H_    0.100549 0.198599 0.391346 0.228110
N20   N     N_2   0.861201 0.803346 0.508624 -0.368831
H53   H     H_    0.865914 0.827587 0.536793 0.248196
C164  C     C_3   0.879479 0.809484 0.450053 -0.614014
H54   H     H_    0.864762 0.835009 0.426190 0.202737
H55   H     H_    0.876848 0.781838 0.422231 0.236369
H56   H     H_    0.911869 0.816560 0.455769 0.232135
N21   N     N_2   0.354152 0.704102 0.465682 -0.369752
H57   H     H_    0.361981 0.677039 0.485470 0.246874
C165  C     C_3   0.364555 0.705281 0.402307 -0.615427
H58   H     H_    0.396940 0.698193 0.396780 0.227974
H59   H     H_    0.358990 0.735757 0.383147 0.233666
H60   H     H_    0.346586 0.682689 0.377014 0.200947
N22   N     N_2   0.764069 0.180323 0.355181 -0.374656
H61   H     H_    0.790936 0.170071 0.337804 0.249008
C166  C     C_3   0.740215 0.200697 0.309901 -0.600148
H62   H     H_    0.735995 0.180538 0.270535 0.231245
H63   H     H_    0.755653 0.228664 0.294572 0.195517
H64   H     H_    0.710122 0.208500 0.328189 0.247435
N23   N     N_2   0.646413 0.704759 0.473621 -0.375339
H65   H     H_    0.639170 0.677809 0.494346 0.246117
C167  C     C_3   0.634349 0.705387 0.410931 -0.591930
H66   H     H_    0.651746 0.682756 0.384906 0.200028
H67   H     H_    0.639249 0.735771 0.390943 0.250299
H68   H     H_    0.601881 0.697984 0.407543 0.226778
N24   N     N_2   0.356827 0.298780 0.516033 -0.374120
H69   H     H_    0.360666 0.322230 0.545942 0.247249
C168  C     C_3   0.376900 0.306440 0.459196 -0.611749
H70   H     H_    0.362919 0.332600 0.435880 0.201987
H71   H     H_    0.375178 0.279549 0.429560 0.245412
H72   H     H_    0.409073 0.313320 0.467607 0.224376
O41   O     O_3   0.860227 0.348070 0.396311 -0.565679
C169  C     C_3   0.828217 0.372950 0.376541 0.039434
H73   H     H_    0.833014 0.379327 0.327825 0.173417
H74   H     H_    0.826624 0.402892 0.399466 0.119064
C170  C     C_3   0.788154 0.350732 0.384042 -0.343478
H75   H     H_    0.789468 0.321436 0.359939 0.235142
H76   H     H_    0.782545 0.344616 0.432566 0.199965
C171  C     C_3   0.753297 0.375508 0.359190 -0.906223
H77   H     H_    0.751002 0.404638 0.383489 0.254974
H78   H     H_    0.724765 0.358597 0.365468 0.259236
H79   H     H_    0.757649 0.381434 0.310269 0.260829
O42   O     O_3   0.121720 0.669513 0.402226 -0.595244
C172  C     C_3   0.131470 0.650743 0.346876 0.021604
H80   H     H_    0.124938 0.672851 0.310499 0.182223
H81   H     H_    0.112635 0.623781 0.337276 0.128278
C173  C     C_3   0.176254 0.640094 0.343784 -0.345764
H82   H     H_    0.194534 0.667241 0.354343 0.231493
H83   H     H_    0.183139 0.616278 0.377534 0.239602
C174  C     C_3   0.187730 0.624715 0.281331 -0.895038
H84   H     H_    0.170012 0.597338 0.270130 0.260640
H85   H     H_    0.220159 0.616912 0.280634 0.263654
H86   H     H_    0.182107 0.648305 0.246684 0.254644
O43   O     O_3   0.161013 0.364776 0.603087 -0.589918
C175  C     C_3   0.149187 0.381977 0.658605 0.075654
H87   H     H_    0.160214 0.361790 0.695055 0.164656
H88   H     H_    0.116017 0.382504 0.664724 0.118981
C176  C     C_3   0.169205 0.423281 0.667478 -0.345512
H89   H     H_    0.202087 0.419005 0.673435 0.233900
H90   H     H_    0.164805 0.442720 0.627173 0.223803
C177  C     C_3   0.152292 0.444854 0.722549 -0.915431
H91   H     H_    0.119893 0.451410 0.715839 0.249578
H92   H     H_    0.168447 0.473826 0.729058 0.264728
H93   H     H_    0.156155 0.426024 0.763645 0.260657
O44   O     O_3   0.865770 0.657567 0.605692 -0.579695
C178  C     C_3   0.848835 0.631663 0.649872 0.027932
H94   H     H_    0.849106 0.648220 0.693300 0.182663
H95   H     H_    0.866815 0.603856 0.657396 0.125419
C179  C     C_3   0.805089 0.621018 0.634830 -0.346179
H96   H     H_    0.787797 0.649149 0.626697 0.234729
H97   H     H_    0.804128 0.602403 0.593318 0.238369
C180  C     C_3   0.785384 0.597332 0.686052 -0.890161
H98   H     H_    0.801964 0.568823 0.694398 0.256950
H99   H     H_    0.753927 0.589857 0.673657 0.264241
H100  H     H_    0.785038 0.615525 0.728018 0.256672
O45   O     O_3   0.352989 0.856938 0.388636 -0.583889
C181  C     C_3   0.383333 0.840965 0.350664 0.085681
H101  H     H_    0.374337 0.809859 0.338028 0.157305
H102  H     H_    0.413410 0.837990 0.372492 0.110190
C182  C     C_3   0.387428 0.866255 0.292919 -0.357112
H103  H     H_    0.396769 0.897465 0.304070 0.220452
H104  H     H_    0.411241 0.852883 0.264101 0.192625
C183  C     C_3   0.348279 0.867751 0.257128 -0.732835
H105  H     H_    0.338471 0.836826 0.244900 0.233987
H106  H     H_    0.353016 0.885400 0.215051 0.232441
H107  H     H_    0.324305 0.882593 0.283889 0.276166
O46   O     O_3   0.697147 0.087662 0.524919 -0.584647
C184  C     C_3   0.702524 0.069077 0.581964 0.043180
H108  H     H_    0.730732 0.051298 0.579545 0.183681
H109  H     H_    0.678376 0.047243 0.593945 0.127295
C185  C     C_3   0.707046 0.100700 0.631732 -0.349773
H110  H     H_    0.729987 0.123373 0.618097 0.239135
H111  H     H_    0.677897 0.116297 0.638495 0.237271
C186  C     C_3   0.719719 0.081327 0.691247 -0.922963
H112  H     H_    0.697102 0.058636 0.705808 0.261405
H113  H     H_    0.722170 0.104846 0.726563 0.266942
H114  H     H_    0.749397 0.066430 0.686283 0.261901
O47   O     O_3   0.660798 0.866382 0.604185 -0.597364
C187  C     C_3   0.666180 0.897175 0.647682 0.083193
H115  H     H_    0.682394 0.883344 0.686310 0.175753
H116  H     H_    0.637295 0.907572 0.667099 0.141671
C188  C     C_3   0.692178 0.932284 0.624128 -0.349141
H117  H     H_    0.721985 0.920532 0.610096 0.260683
H118  H     H_    0.677871 0.946829 0.584424 0.216918
C189  C     C_3   0.698188 0.964238 0.672648 -0.943442
H119  H     H_    0.668850 0.977637 0.685580 0.260366
H120  H     H_    0.717970 0.988528 0.654961 0.257693
H121  H     H_    0.712589 0.950837 0.713185 0.266731
O48   O     O_3   0.351188 0.144987 0.604665 -0.587490
C190  C     C_3   0.332824 0.115261 0.641624 0.048513
H122  H     H_    0.329266 0.128488 0.687280 0.185492
H123  H     H_    0.351590 0.087851 0.647689 0.131887
C191  C     C_3   0.291062 0.103827 0.617904 -0.350912
H124  H     H_    0.272873 0.131556 0.611273 0.237809
H125  H     H_    0.294148 0.088270 0.573879 0.242705
C192  C     C_3   0.269213 0.075727 0.661650 -0.893327
H126  H     H_    0.286692 0.047567 0.668335 0.254110
H127  H     H_    0.239291 0.067779 0.642983 0.265387
H128  H     H_    0.264844 0.090751 0.705867 0.257248
O49   O     O_3   0.831406 0.382964 0.598355 -0.549913
C193  C     C_3   0.794389 0.395109 0.572516 0.081053
H129  H     H_    0.770374 0.388274 0.605885 0.182947
H130  H     H_    0.786567 0.377899 0.531124 0.103720
C194  C     C_3   0.794087 0.440558 0.559427 -0.394425
H131  H     H_    0.801647 0.457289 0.601268 0.238588
H132  H     H_    0.816954 0.447923 0.524516 0.210443
C195  C     C_3   0.753065 0.454274 0.536671 -0.882540
H133  H     H_    0.745247 0.438274 0.494325 0.252620
H134  H     H_    0.753834 0.487173 0.527357 0.268827
H135  H     H_    0.729587 0.448157 0.571178 0.255932
O50   O     O_3   0.166650 0.625899 0.597901 -0.589685
C196  C     C_3   0.185046 0.589447 0.616132 0.077441
H136  H     H_    0.193386 0.570260 0.576769 0.159104
H137  H     H_    0.164405 0.572403 0.646407 0.144243
C197  C     C_3   0.223351 0.599290 0.651048 -0.297751
H138  H     H_    0.244205 0.616595 0.621456 0.237918
H139  H     H_    0.215751 0.618252 0.690682 0.228654
C198  C     C_3   0.244295 0.561021 0.672788 -0.913351
H140  H     H_    0.224153 0.543518 0.703152 0.256738
H141  H     H_    0.271902 0.569188 0.698072 0.261799
H142  H     H_    0.252919 0.541975 0.633764 0.263524
O51   O     O_3   0.132097 0.341150 0.394185 -0.576407
C199  C     C_3   0.138220 0.365346 0.342102 0.071162
H143  H     H_    0.167433 0.356638 0.321687 0.159323
H144  H     H_    0.140684 0.398313 0.351239 0.096608
C200  C     C_3   0.104823 0.357899 0.295828 -0.347417
H145  H     H_    0.075182 0.365961 0.315292 0.206964
H146  H     H_    0.110069 0.377573 0.255897 0.188865
C201  C     C_3   0.103599 0.314042 0.275215 -0.743899
H147  H     H_    0.132857 0.305331 0.254981 0.232956
H148  H     H_    0.079705 0.310298 0.240739 0.224032
H149  H     H_    0.096782 0.293747 0.313859 0.279237
O52   O     O_3   0.846576 0.637968 0.392295 -0.582216
C202  C     C_3   0.873092 0.654445 0.348645 0.059347
H150  H     H_    0.858175 0.651718 0.304032 0.182586
H151  H     H_    0.901970 0.637730 0.344905 0.129438
C203  C     C_3   0.881089 0.699191 0.360907 -0.374848
H152  H     H_    0.852021 0.715320 0.365800 0.227385
H153  H     H_    0.898291 0.702317 0.403522 0.241287
C204  C     C_3   0.905268 0.718546 0.309943 -0.895422
H154  H     H_    0.934656 0.703099 0.304749 0.259837
H155  H     H_    0.910867 0.750760 0.320497 0.257274
H156  H     H_    0.888397 0.716771 0.266821 0.258432
O53   O     O_3   0.346048 0.860157 0.605222 -0.594996
C205  C     C_3   0.327208 0.892346 0.635805 0.061231
H157  H     H_    0.312322 0.913832 0.604017 0.170671
H158  H     H_    0.349797 0.908956 0.663111 0.127880
C206  C     C_3   0.295033 0.875174 0.677897 -0.300326
H159  H     H_    0.272967 0.857540 0.651082 0.235819
H160  H     H_    0.309258 0.854574 0.711219 0.222668
C207  C     C_3   0.272920 0.908603 0.711356 -0.922666
H161  H     H_    0.294337 0.926846 0.738289 0.258430
H162  H     H_    0.250341 0.895099 0.742343 0.262389
H163  H     H_    0.257138 0.928583 0.678822 0.265044
O54   O     O_3   0.603701 0.193182 0.474780 -0.598704
C208  C     C_3   0.572334 0.210343 0.509522 0.092229
H164  H     H_    0.584606 0.237539 0.532140 0.176448
H165  H     H_    0.560578 0.190472 0.546327 0.136828
C209  C     C_3   0.538031 0.223434 0.467896 -0.378410
H166  H     H_    0.549434 0.246201 0.435162 0.233631
H167  H     H_    0.526777 0.197139 0.442030 0.223768
C210  C     C_3   0.503247 0.241554 0.503539 -0.856903
H168  H     H_    0.490662 0.218902 0.535422 0.270749
H169  H     H_    0.479103 0.251050 0.472019 0.267643
H170  H     H_    0.513596 0.268335 0.529172 0.251768
O55   O     O_3   0.641815 0.848217 0.391811 -0.600874
C211  C     C_3   0.633932 0.868547 0.336813 0.059593
H171  H     H_    0.659211 0.862008 0.305603 0.165799
H172  H     H_    0.633710 0.901995 0.341090 0.135831
C212  C     C_3   0.595325 0.852070 0.308125 -0.364353
H173  H     H_    0.600485 0.820490 0.293485 0.226087
H174  H     H_    0.570451 0.851621 0.341524 0.229711
C213  C     C_3   0.582508 0.877290 0.253814 -0.863986
H175  H     H_    0.576197 0.908756 0.267856 0.257651
H176  H     H_    0.554722 0.864356 0.234001 0.282459
H177  H     H_    0.606429 0.877265 0.218857 0.248823
O56   O     O_3   0.354324 0.147592 0.388388 -0.599147
C214  C     C_3   0.362790 0.126428 0.334546 0.077523
H178  H     H_    0.338058 0.132856 0.302319 0.167602
H179  H     H_    0.362175 0.093091 0.340454 0.137599
C215  C     C_3   0.401997 0.141961 0.306113 -0.384479
H180  H     H_    0.397244 0.173116 0.288987 0.227027
H181  H     H_    0.426322 0.143280 0.340286 0.228966
C216  C     C_3   0.415626 0.115195 0.254216 -0.855093
H182  H     H_    0.421714 0.084199 0.270900 0.254005
H183  H     H_    0.443713 0.127555 0.234332 0.289019
H184  H     H_    0.392252 0.114162 0.218545 0.247270
O57   O     O_3   0.004380 0.426927 0.224979 -0.597369
C217  C     C_3   0.981491 0.395516 0.251301 0.070645
H185  H     H_    0.951926 0.406588 0.268318 0.153675
H186  H     H_    0.998740 0.381461 0.288797 0.128001
C218  C     C_3   0.973549 0.363334 0.203683 -0.315138
H187  H     H_    0.956706 0.376932 0.165421 0.238539
H188  H     H_    0.002660 0.351749 0.186304 0.221172
C219  C     C_3   0.949257 0.328290 0.229736 -0.882734
H189  H     H_    0.965925 0.313786 0.267369 0.264501
H190  H     H_    0.943938 0.305488 0.194075 0.255805
H191  H     H_    0.919731 0.339084 0.246575 0.269069
O58   O     O_3   0.004831 0.427532 0.774138 -0.575934
C220  C     C_3   0.045303 0.415031 0.776650 0.033657
H192  H     H_    0.064743 0.439049 0.796358 0.163650
H193  H     H_    0.056334 0.407334 0.730647 0.129099
C221  C     C_3   0.048248 0.377619 0.816702 -0.287070
H194  H     H_    0.036918 0.384882 0.862589 0.226661
H195  H     H_    0.029238 0.353217 0.797618 0.232640
C222  C     C_3   0.091507 0.362790 0.821489 -0.929839
H196  H     H_    0.103208 0.354654 0.776228 0.250358
H197  H     H_    0.092608 0.335662 0.850903 0.263919
H198  H     H_    0.110932 0.386501 0.841457 0.259240
O59   O     O_3   0.997460 0.571594 0.223443 -0.597095
C223  C     C_3   0.028320 0.598525 0.240702 0.064262
H199  H     H_    0.057256 0.582590 0.249726 0.161122
H200  H     H_    0.019026 0.615314 0.281741 0.124970
C224  C     C_3   0.035251 0.628677 0.189485 -0.279969
H201  H     H_    0.043501 0.612139 0.147740 0.238144
H202  H     H_    0.007049 0.645631 0.180787 0.220064
C225  C     C_3   0.068720 0.658389 0.204791 -0.950101
H203  H     H_    0.060911 0.675559 0.246087 0.255952
H204  H     H_    0.072769 0.679992 0.166900 0.265496
H205  H     H_    0.097461 0.642101 0.212028 0.258171
O60   O     O_3   0.994364 0.572416 0.774397 -0.577492
C226  C     C_3   0.957703 0.591958 0.761163 0.041688
H206  H     H_    0.931831 0.570472 0.762507 0.144270
H207  H     H_    0.959298 0.606435 0.715866 0.140378
C227  C     C_3   0.950391 0.624608 0.808288 -0.285833
H208  H     H_    0.948263 0.610447 0.853715 0.223979
H209  H     H_    0.976091 0.646063 0.808315 0.235185
C228  C     C_3   0.911748 0.647748 0.795375 -0.928946
H210  H     H_    0.913804 0.663133 0.750889 0.268169
H211  H     H_    0.907070 0.670873 0.830759 0.265087
H212  H     H_    0.885564 0.626926 0.795451 0.250955
O61   O     O_3   0.565691 0.031384 0.226464 -0.579265
C229  C     C_3   0.593930 0.001073 0.211877 0.057691
H213  H     H_    0.610631 0.011549 0.171318 0.180993
H214  H     H_    0.579731 0.971806 0.199335 0.148459
C230  C     C_3   0.623916 0.994854 0.263605 -0.374526
H215  H     H_    0.635489 0.024565 0.278851 0.251888
H216  H     H_    0.608607 0.979902 0.302228 0.197318
C231  C     C_3   0.659272 0.968736 0.244075 -0.902035
H217  H     H_    0.648494 0.939006 0.227936 0.251505
H218  H     H_    0.679686 0.963816 0.282992 0.261981
H219  H     H_    0.676407 0.983870 0.207391 0.264087
O62   O     O_3   0.572827 0.004906 0.773129 -0.592744
C232  C     C_3   0.587100 0.044975 0.770438 0.044424
H220  H     H_    0.564306 0.066250 0.788911 0.180263
H221  H     H_    0.594431 0.053670 0.723073 0.132634
C233  C     C_3   0.625286 0.048364 0.808225 -0.317172
H222  H     H_    0.618977 0.038059 0.855075 0.233933
H223  H     H_    0.648907 0.028638 0.788735 0.219398
C234  C     C_3   0.640635 0.091723 0.809929 -0.914201
H224  H     H_    0.645968 0.103207 0.763480 0.266004
H225  H     H_    0.669336 0.092948 0.835364 0.260167
H226  H     H_    0.618391 0.111433 0.832720 0.265905
O63   O     O_3   0.435612 0.965238 0.227389 -0.594628
C235  C     C_3   0.406184 0.994256 0.212131 0.054467
H227  H     H_    0.390771 0.983426 0.170802 0.177353
H228  H     H_    0.419088 0.024368 0.200523 0.150671
C236  C     C_3   0.374996 0.998188 0.262765 -0.385890
H229  H     H_    0.364488 0.967724 0.276700 0.240797
H230  H     H_    0.388860 0.013121 0.302396 0.201100
C237  C     C_3   0.338871 0.023027 0.242538 -0.901262
H231  H     H_    0.348567 0.053571 0.227994 0.251989
H232  H     H_    0.317442 0.026141 0.280657 0.262937
H233  H     H_    0.323247 0.007902 0.204564 0.260125
O64   O     O_3   0.428124 0.993965 0.774337 -0.592832
C238  C     C_3   0.415510 0.953318 0.775411 0.050840
H234  H     H_    0.439280 0.933582 0.794993 0.182687
H235  H     H_    0.408183 0.942817 0.728997 0.122363
C239  C     C_3   0.377863 0.949645 0.814509 -0.322025
H236  H     H_    0.383971 0.962454 0.859873 0.234390
H237  H     H_    0.353047 0.967081 0.793431 0.216353
C240  C     C_3   0.364934 0.905734 0.821697 -0.918402
H238  H     H_    0.359910 0.891807 0.776885 0.260903
H239  H     H_    0.336522 0.904178 0.847911 0.260776
H240  H     H_    0.388388 0.888413 0.846168 0.267434

loop_
_geom_bond_atom_site_label_1
_geom_bond_atom_site_label_2
_geom_bond_distance
_ccdc_geom_bond_type
C226  C227  1.527316 S    
C17   O17   1.348776 S    
C210  H168  1.110980 S    
C182  H103  1.109436 S    
C16   C94   1.456059 S    
C166  H62   1.110262 S    
C80   O48   1.388034 S    
C37   C61   1.402495 A    
N22   H61   1.031880 S    
C231  H219  1.110721 S    
C76   O44   1.387106 S    
C190  C191  1.533854 S    
C39   C63   1.400748 A    
C150  H38   1.083000 S    
C39   C47   1.408340 A    
O15   C16   1.282550 A    
N24   C168  1.446963 S    
C23   O23   1.348822 S    
C204  H154  1.111014 S    
C164  H56   1.110215 S    
C124  N15   1.452888 S    
C66   N18   1.423076 S    
C98   H26   1.082249 S    
C226  H207  1.112761 S    
C199  H143  1.111043 S    
O16   Cu3   1.939254 S    
C77   O45   1.388332 S    
C4    H4    1.081217 S    
C7    H7    1.078893 S    
N10   C30   1.364459 A    
Cu4   N3    1.984291 S    
C104  H32   1.079072 S    
C229  H213  1.110954 S    
C194  H132  1.111098 S    
C18   C50   1.412253 A    
C235  C236  1.534075 S    
C122  C156  1.407242 A    
Cu3   Cu4   2.641138 S    
C173  H82   1.111715 S    
C49   C66   1.419042 A    
C195  H135  1.110807 S    
C83   H19   1.079431 S    
C240  H238  1.109801 S    
C41   C46   1.413144 A    
C146  H34   1.082980 S    
C187  C188  1.539188 S    
C53   C70   1.420994 A    
C30   O30   1.349687 S    
C79   C87   1.409946 A    
C43   C48   1.414403 A    
C77   C117  1.402758 A    
C140  C144  1.408551 A    
C33   C41   1.408283 A    
C185  H110  1.111712 S    
C56   C71   1.418887 A    
C123  C159  1.408976 A    
C203  H152  1.111741 S    
C200  C201  1.527220 S    
O4    Cu2   1.941753 S    
C222  H197  1.110251 S    
C169  H74   1.118829 S    
C127  C133  1.414850 A    
C130  C140  1.414523 A    
C238  H234  1.115112 S    
C188  H117  1.111028 S    
C130  O38   1.348730 S    
O14   C16   1.281431 A    
C176  H90   1.110085 S    
O44   C178  1.416544 S    
C240  H240  1.110849 S    
C191  H125  1.110421 S    
O7    C12   1.283718 A    
C171  H77   1.110897 S    
O16   C15   1.286411 A    
C84   C92   1.402607 A    
C208  C209  1.531107 S    
C207  H163  1.110884 S    
C214  H179  1.113502 S    
C220  C221  1.526933 S    
O10   C14   1.284291 A    
N24   H69   1.031885 S    
C80   C120  1.406668 A    
C163  H52   1.110246 S    
O64   C238  1.411817 S    
C126  O34   1.348805 S    
C195  H133  1.110984 S    
N12   C119  1.435671 S    
C3    C155  1.414416 A    
C212  H174  1.110059 S    
N11   C31   1.365189 A    
C182  C183  1.526832 S    
C230  H216  1.110819 S    
C190  H122  1.110917 S    
C214  H178  1.110832 S    
C103  H31   1.079672 S    
C204  H156  1.110775 S    
C109  C117  1.404353 A    
C161  H43   1.111308 S    
C137  C143  1.408518 A    
C237  H231  1.109675 S    
C138  C150  1.407215 A    
C54   C69   1.418705 A    
O63   C235  1.414996 S    
O3    C10   1.285361 A    
C147  H35   1.082964 S    
C50   C65   1.416435 A    
C106  O50   1.388678 S    
C27   O27   1.349915 S    
O47   C187  1.418600 S    
C60   H12   1.083773 S    
O60   C226  1.413202 S    
C61   H13   1.083715 S    
C36   C60   1.401026 A    
C42   C45   1.413297 A    
C43   C51   1.416774 A    
C192  H126  1.111056 S    
C8    C160  1.409728 A    
N6    C113  1.480082 S    
O6    Cu1   1.937934 S    
C110  O54   1.388360 S    
C207  H161  1.110233 S    
O11   Cu3   1.941753 S    
C2    H2    1.081877 S    
C159  O63   1.382470 S    
C40   C48   1.408474 A    
C184  H108  1.110940 S    
C233  H222  1.111940 S    
C5    C157  1.407581 A    
O56   C214  1.415330 S    
C122  C154  1.407655 A    
C81   C89   1.397033 A    
C173  C174  1.525674 S    
C87   C95   1.399609 A    
C112  C120  1.406444 A    
C206  H159  1.112045 S    
C67   N19   1.423418 S    
C121  N14   1.456110 S    
C176  H89   1.111594 S    
N21   C165  1.447001 S    
C172  H80   1.110092 S    
C63   C67   1.398555 A    
C220  H193  1.114196 S    
C196  H136  1.117087 S    
C71   N23   1.423202 S    
C134  C142  1.408368 A    
C185  C186  1.525705 S    
C74   O42   1.387170 S    
C123  C157  1.409893 A    
C160  O64   1.380818 S    
C214  C215  1.535819 S    
C70   N22   1.422569 S    
C180  H98   1.110967 S    
O12   C13   1.284628 A    
N18   C162  1.446962 S    
C29   C37   1.400836 A    
O51   C199  1.418233 S    
C198  H140  1.111057 S    
C102  H30   1.082221 S    
C31   C39   1.399736 A    
C194  H131  1.111498 S    
C34   C58   1.400440 A    
C75   O43   1.401258 S    
C2    C154  1.409153 A    
C210  H169  1.110604 S    
O57   C217  1.413771 S    
C171  H79   1.110787 S    
C231  H218  1.110407 S    
C197  H138  1.111989 S    
N22   C166  1.446847 S    
C1    N1    1.361646 A    
C145  C148  1.401354 A    
C107  C115  1.406899 A    
C211  C212  1.534740 S    
N17   H41   1.031726 S    
C139  C143  1.408644 A    
C170  H76   1.109540 S    
C131  C137  1.414509 A    
C17   N5    1.367338 A    
C221  H194  1.111910 S    
C217  C218  1.527045 S    
C20   N8    1.368402 A    
N7    C27   1.365897 A    
O5    C11   1.286849 A    
C45   C53   1.416183 A    
O6    C12   1.283995 A    
C15   C93   1.467828 S    
C209  H166  1.111611 S    
C168  H71   1.111312 S    
C47   C55   1.417242 A    
C6    H6    1.081980 S    
C198  H141  1.110320 S    
C112  O56   1.400286 S    
C145  H33   1.082957 S    
C172  C173  1.533763 S    
C235  H228  1.115855 S    
C224  C225  1.525314 S    
C37   C45   1.407935 A    
C228  H210  1.110826 S    
N23   C167  1.447044 S    
C99   H27   1.081056 S    
C217  H185  1.116598 S    
C152  H40   1.082994 S    
C97   H25   1.083820 S    
C183  H105  1.110758 S    
C187  H116  1.108894 S    
N19   H49   1.031900 S    
C192  H128  1.110810 S    
C111  C119  1.407526 A    
C7    N3    1.365631 A    
C8    N4    1.363036 A    
C233  C234  1.526311 S    
C234  H226  1.110969 S    
C85   C93   1.402331 A    
C175  H87   1.110774 S    
C23   C55   1.413295 A    
C184  C185  1.532570 S    
C129  O37   1.348701 S    
C174  H85   1.110347 S    
C213  H175  1.110808 S    
C211  H171  1.110858 S    
C188  C189  1.526036 S    
C148  H36   1.082967 S    
C87   H23   1.078422 S    
C206  C207  1.526314 S    
C232  H220  1.115676 S    
C156  O60   1.384243 S    
C167  H67   1.111432 S    
C179  H97   1.110588 S    
C202  H150  1.110912 S    
C105  O49   1.385107 S    
C186  H114  1.110735 S    
C59   C71   1.398265 A    
C26   O26   1.347615 S    
C216  H182  1.110683 S    
C136  C142  1.408432 A    
C196  C197  1.527368 S    
C218  H188  1.111888 S    
C227  H209  1.111717 S    
C180  H100  1.110856 S    
C155  O59   1.386366 S    
C178  H95   1.112737 S    
C193  H130  1.113302 S    
C92   C100  1.401657 A    
C27   C35   1.399764 A    
C224  H201  1.112002 S    
O15   Cu4   1.939249 S    
C194  C195  1.525493 S    
C179  C180  1.525527 S    
C95   C103  1.399643 A    
C96   C104  1.402768 A    
C239  H236  1.111936 S    
C125  C135  1.414848 A    
C64   H16   1.083799 S    
C137  C149  1.407280 A    
C106  C114  1.404882 A    
C197  C198  1.526356 S    
C139  C151  1.407128 A    
N10   C117  1.431622 S    
C135  C147  1.407306 A    
O54   C208  1.417972 S    
C190  H123  1.111981 S    
C213  H177  1.110383 S    
C222  H196  1.110293 S    
C3    N1    1.361159 A    
C24   O24   1.348913 S    
C28   C36   1.400905 A    
C177  H93   1.110545 S    
C108  O52   1.386612 S    
C177  H92   1.110467 S    
C221  C222  1.525842 S    
N5    C114  1.433319 S    
C154  O58   1.380590 S    
C199  H144  1.116024 S    
C57   C69   1.397609 A    
C32   C40   1.401078 A    
C83   C91   1.400746 A    
O49   C193  1.417555 S    
C11   C89   1.472597 S    
C126  N14   1.374660 A    
C9    C91   1.469350 S    
C209  C210  1.526370 S    
C10   C92   1.469820 S    
N19   C163  1.447269 S    
C229  H214  1.115335 S    
C215  H180  1.111576 S    
C149  C152  1.401340 A    
C227  H208  1.111892 S    
C29   O29   1.349705 S    
C107  O51   1.389841 S    
C173  H83   1.110617 S    
C181  H101  1.111011 S    
C228  H212  1.111006 S    
C44   C52   1.416490 A    
C205  H157  1.117394 S    
C162  H46   1.110266 S    
C183  H107  1.110638 S    
C4    N2    1.363031 A    
N8    C115  1.437593 S    
C133  C141  1.408511 A    
C223  H199  1.117262 S    
C5    N3    1.364788 A    
C239  C240  1.526122 S    
C6    N4    1.363138 A    
C48   C56   1.416865 A    
C189  H119  1.111279 S    
C58   C70   1.401776 A    
C38   C62   1.400301 A    
C229  C230  1.534464 S    
C163  H50   1.111639 S    
C175  C176  1.536019 S    
C36   C44   1.407944 A    
C224  H202  1.111714 S    
O45   C181  1.418648 S    
C149  H37   1.082967 S    
C161  H42   1.110229 S    
C200  H146  1.111435 S    
C6    C158  1.410255 A    
C82   C90   1.400349 A    
C40   C64   1.400630 A    
C125  O33   1.348775 S    
C73   C81   1.402023 A    
O62   C232  1.411958 S    
C79   O47   1.396790 S    
C166  H64   1.111347 S    
C55   C72   1.419154 A    
C239  H237  1.111581 S    
C240  H239  1.110334 S    
C201  H147  1.110760 S    
O3    Cu1   1.941753 S    
C186  H112  1.110489 S    
C216  H184  1.110349 S    
N11   C120  1.434199 S    
C171  H78   1.110388 S    
C208  H165  1.117131 S    
C134  C146  1.407371 A    
C19   C51   1.413448 A    
C124  C158  1.407117 A    
O11   C14   1.287436 A    
C75   C115  1.410804 A    
N20   H53   1.031873 S    
C4    C156  1.414405 A    
C25   O25   1.349946 S    
C68   N20   1.423039 S    
C91   C99   1.397563 A    
C236  C237  1.525592 S    
C157  O61   1.382369 S    
C127  O35   1.348702 S    
C41   C49   1.417087 A    
C100  H28   1.083109 S    
C204  H155  1.110404 S    
C101  H29   1.082915 S    
C182  H104  1.111412 S    
C230  H215  1.111558 S    
Cu1   N2    1.984291 S    
C31   O31   1.349653 S    
C219  H189  1.110988 S    
C34   C42   1.402950 A    
Cu3   N4    1.984291 S    
C2    N2    1.362973 A    
C88   C96   1.399187 A    
O4    C9    1.284777 A    
C74   C114  1.405933 A    
C128  C134  1.414840 A    
C237  H232  1.110392 S    
C94   C102  1.395969 A    
C77   C85   1.400802 A    
C18   N6    1.377834 A    
C131  O39   1.348665 S    
C123  N16   1.454112 S    
C226  H206  1.117078 S    
C202  H151  1.113564 S    
C17   C49   1.412272 A    
C132  C138  1.414097 A    
C22   N10   1.366973 A    
C189  H121  1.110708 S    
C126  C136  1.414938 A    
C19   O19   1.348612 S    
O55   C211  1.416243 S    
C233  H223  1.111830 S    
C196  H137  1.112201 S    
C236  H229  1.111590 S    
N21   H57   1.031898 S    
C165  H58   1.110247 S    
C90   C98   1.400244 A    
C138  C144  1.408371 A    
N18   H45   1.031893 S    
C75   C83   1.416062 A    
C28   O28   1.349933 S    
C98   C106  1.404268 A    
C78   O46   1.387726 S    
C165  H60   1.111693 S    
C129  N15   1.373436 A    
C217  H186  1.112231 S    
C102  C110  1.406798 A    
C223  C224  1.527629 S    
C5    H5    1.079704 S    
C60   C72   1.399128 A    
C129  C139  1.414364 A    
O7    Cu2   1.939249 S    
C20   C52   1.412371 A    
C164  H55   1.110544 S    
C150  C151  1.401095 A    
C64   C68   1.399086 A    
C110  C118  1.407599 A    
C222  H198  1.110786 S    
C20   O20   1.348954 S    
C199  C200  1.533503 S    
C169  H73   1.111057 S    
C128  N14   1.374757 A    
C86   H22   1.083427 S    
C163  H51   1.111408 S    
O2    Cu2   1.942492 S    
C51   C68   1.419339 A    
O13   C15   1.283672 A    
N5    C25   1.365309 A    
N9    C118  1.437192 S    
C176  C177  1.525074 S    
C158  O62   1.381535 S    
C191  H124  1.111625 S    
C99   C107  1.400788 A    
N7    C116  1.436051 S    
C42   C50   1.410336 A    
C219  H191  1.111108 S    
C13   C95   1.470814 S    
C197  H139  1.111697 S    
O48   C190  1.417210 S    
C140  C152  1.407247 A    
C14   C96   1.471528 S    
C174  H84   1.111016 S    
O43   C175  1.414267 S    
N20   C164  1.446869 S    
C237  H233  1.110743 S    
C124  C160  1.407897 A    
C35   C43   1.408038 A    
C170  H75   1.111763 S    
C121  C153  1.409240 A    
C234  H224  1.110655 S    
C221  H195  1.111648 S    
C225  H203  1.110820 S    
C153  O57   1.391814 S    
C122  N13   1.454495 S    
C24   C56   1.412480 A    
C146  C147  1.401390 A    
C73   O41   1.382642 S    
O1    Cu1   1.942492 S    
C57   H9    1.083809 S    
C212  C213  1.525391 S    
O50   C196  1.414415 S    
N8    C28   1.366737 A    
C209  H167  1.110417 S    
C168  H70   1.111653 S    
C162  H48   1.111693 S    
O9    Cu3   1.942492 S    
O8    C11   1.285720 A    
O10   Cu4   1.942492 S    
C84   H20   1.083049 S    
C18   O18   1.345011 S    
C85   H21   1.079976 S    
C80   C88   1.401819 A    
C207  H162  1.110257 S    
C169  C170  1.530852 S    
C26   C34   1.404507 A    
C161  H44   1.111668 S    
C131  N15   1.373664 A    
C178  H94   1.110185 S    
C88   H24   1.082506 S    
C30   C38   1.399518 A    
N23   H65   1.031903 S    
C44   C47   1.414032 A    
C151  H39   1.082963 S    
C78   C86   1.404251 A    
C167  H66   1.111684 S    
C76   C84   1.402858 A    
C128  O36   1.348623 S    
C191  C192  1.525771 S    
C183  H106  1.110550 S    
C179  H96   1.111656 S    
C12   C90   1.463267 S    
O59   C223  1.413972 S    
C111  O55   1.398552 S    
O41   C169  1.417661 S    
O46   C184  1.416596 S    
C33   C57   1.400233 A    
C192  H127  1.110381 S    
C1    C153  1.419588 A    
C32   O32   1.349451 S    
C234  H225  1.110349 S    
C188  H118  1.110370 S    
C175  H88   1.112170 S    
C184  H109  1.112251 S    
C103  C111  1.409263 A    
C21   O21   1.348452 S    
C104  C112  1.412547 A    
C93   C101  1.401748 A    
C127  N13   1.374003 A    
C72   N24   1.423276 S    
C25   C33   1.398424 A    
C220  H192  1.116055 S    
C232  C233  1.526912 S    
C206  H160  1.111413 S    
C63   H15   1.083769 S    
O52   C202  1.416541 S    
C46   C54   1.417115 A    
C133  C145  1.407288 A    
C200  H145  1.109788 S    
C143  C144  1.422883 A    
C172  H81   1.112626 S    
C82   H18   1.083235 S    
C35   C59   1.400571 A    
C125  N13   1.374138 A    
O12   Cu4   1.941753 S    
C218  H187  1.111900 S    
O9    C13   1.286551 A    
C166  H63   1.111825 S    
C69   N21   1.423151 S    
C38   C46   1.408669 A    
C109  O53   1.384952 S    
C165  H59   1.111265 S    
C7    C159  1.407287 A    
C180  H99   1.110381 S    
O1    C9    1.285744 A    
C78   C118  1.408714 A    
C193  C194  1.534645 S    
C58   H10   1.083838 S    
C21   N9    1.369068 A    
C167  H68   1.110265 S    
N6    C26   1.377548 A    
C202  C203  1.533111 S    
C238  H235  1.114575 S    
C89   C97   1.396210 A    
C61   C65   1.400616 A    
C210  H170  1.110831 S    
C73   C113  1.428767 A    
C86   C94   1.396590 A    
C136  C148  1.407352 A    
C21   C53   1.415547 A    
C132  N16   1.374032 A    
C231  H217  1.109566 S    
O13   Cu4   1.937938 S    
O2    C10   1.285788 A    
C24   N12   1.367897 A    
O14   Cu3   1.937934 S    
N17   C161  1.446764 S    
C170  C171  1.525231 S    
C76   C116  1.406614 A    
C215  C216  1.525021 S    
C186  H113  1.110292 S    
C164  H54   1.111635 S    
C121  C155  1.408695 A    
C23   N11   1.367441 A    
C225  H204  1.110235 S    
C62   H14   1.083806 S    
C185  H111  1.110519 S    
C52   C67   1.418793 A    
C212  H173  1.111624 S    
C168  H72   1.110388 S    
O5    Cu2   1.937938 S    
O61   C229  1.415719 S    
Cu1   Cu2   2.641138 S    
C198  H142  1.110923 S    
Cu2   N1    1.984291 S    
C1    H1    1.079957 S    
C135  C141  1.408519 A    
C215  H181  1.110144 S    
C236  H230  1.110541 S    
C3    H3    1.081073 S    
C211  H172  1.114175 S    
C235  H227  1.110970 S    
C130  N16   1.374123 A    
C181  H102  1.116547 S    
C228  H211  1.110265 S    
C225  H205  1.110935 S    
C19   N7    1.368503 A    
C205  H158  1.112219 S    
C22   O22   1.348977 S    
C187  H115  1.110901 S    
C223  H200  1.112346 S    
N9    C29   1.366530 A    
C81   H17   1.083694 S    
C189  H120  1.109900 S    
C141  C142  1.423369 A    
C105  C113  1.431810 A    
C227  C228  1.525740 S    
C174  H86   1.110892 S    
C203  H153  1.110156 S    
C181  C182  1.533915 S    
C79   C119  1.408491 A    
C59   H11   1.083779 S    
C74   C82   1.400948 A    
C238  C239  1.527116 S    
O42   C172  1.415654 S    
C195  H134  1.110430 S    
C205  C206  1.527627 S    
C162  H47   1.111414 S    
C97   C105  1.396780 A    
C132  O40   1.348722 S    
O53   C205  1.414280 S    
C230  C231  1.525824 S    
C201  H148  1.110549 S    
C100  C108  1.401185 A    
C8    H8    1.081946 S    
C101  C109  1.402192 A    
O58   C220  1.411064 S    
C216  H183  1.110220 S    
C219  H190  1.110297 S    
C62   C66   1.398342 A    
O8    Cu1   1.939254 S    
N12   C32   1.365349 A    
C208  H164  1.111171 S    
C218  C219  1.526350 S    
C22   C54   1.411280 A    
C203  C204  1.525550 S    
C232  H221  1.114596 S    
C108  C116  1.406402 A    
C65   N17   1.422083 S    
C177  H91   1.110329 S    
C178  C179  1.534607 S    
C193  H129  1.110984 S    
C213  H176  1.110291 S    
C201  H149  1.110737 S    
