data_mof_unit_63523.cif
_audit_creation_date              2012-12-10T19:29:24-0500
_audit_creation_method            fapswitch 2.2
_symmetry_space_group_name_H-M    P1
_symmetry_Int_Tables_number       1
_space_group_crystal_system       triclinic
_cell_length_a                    22.256113
_cell_length_b                    22.251511
_cell_length_c                    14.953708
_cell_angle_alpha                 89.999112
_cell_angle_beta                  89.978333
_cell_angle_gamma                 90.000072
_cell_volume                      7405.55633176

loop_
_atom_site_label
_atom_site_type_symbol
_atom_type_description
_atom_site_fract_x
_atom_site_fract_y
_atom_site_fract_z
_atom_type_partial_charge
C1    C     C_R   0.418743 0.918739 0.499997 0.904223
C2    C     C_R   0.581257 0.081261 0.500002 0.904221
C3    C     C_R   0.581257 0.918738 0.500003 0.904229
C4    C     C_R   0.418743 0.081261 0.499997 0.904227
C5    C     C_R   0.918743 0.418739 0.499997 0.904221
C6    C     C_R   0.081257 0.581261 0.500002 0.904224
C7    C     C_R   0.081257 0.418739 0.500003 0.904227
C8    C     C_R   0.918743 0.581261 0.499997 0.904228
C9    C     C_1   0.336648 0.163353 0.500011 -0.067070
C10   C     C_1   0.663352 0.836647 0.499989 -0.067074
C11   C     C_1   0.663351 0.163353 0.499987 -0.066881
C12   C     C_1   0.336649 0.836646 0.500012 -0.066893
C13   C     C_1   0.836648 0.663353 0.500011 -0.067090
C14   C     C_1   0.163352 0.336647 0.499989 -0.067085
C15   C     C_1   0.163351 0.663353 0.499987 -0.066878
C16   C     C_1   0.836648 0.336647 0.500013 -0.066865
C17   C     C_1   0.500087 0.000001 0.189781 0.140367
C18   C     C_1   0.499912 0.999999 0.810219 0.140362
C19   C     C_1   0.000087 0.500001 0.189781 0.140362
C20   C     C_1   0.999912 0.499999 0.810219 0.140366
C21   C     C_3   0.471932 0.950370 0.969821 -0.222275
C22   C     C_3   0.528068 0.049630 0.030179 -0.222282
C23   C     C_3   0.528889 0.950844 0.030181 -0.222307
C24   C     C_3   0.471111 0.049156 0.969819 -0.222316
C25   C     C_3   0.972055 0.450301 0.969821 -0.222283
C26   C     C_3   0.027945 0.549699 0.030179 -0.222276
C27   C     C_3   0.029011 0.450916 0.030181 -0.222312
C28   C     C_3   0.970989 0.549084 0.969819 -0.222303
C29   C     C_3   0.701063 0.729153 0.542587 -0.162226
C30   C     C_3   0.299022 0.270933 0.457723 -0.162258
C31   C     C_3   0.299630 0.728459 0.460037 -0.162550
C32   C     C_3   0.701002 0.270907 0.542366 -0.162236
C33   C     C_3   0.200978 0.229067 0.542276 -0.162270
C34   C     C_3   0.798937 0.770847 0.457413 -0.162238
C35   C     C_3   0.798998 0.229093 0.457633 -0.162224
C36   C     C_3   0.200370 0.771541 0.539964 -0.162538
C37   C     C_3   0.229183 0.201063 0.457400 -0.158230
C38   C     C_3   0.770903 0.799022 0.542290 -0.158274
C39   C     C_3   0.770842 0.201037 0.542509 -0.158211
C40   C     C_3   0.229831 0.798291 0.455135 -0.157935
C41   C     C_3   0.729097 0.700978 0.457711 -0.158292
C42   C     C_3   0.270817 0.298937 0.542600 -0.158250
C43   C     C_3   0.270168 0.701709 0.544866 -0.157916
C44   C     C_3   0.729158 0.298963 0.457491 -0.158192
C45   C     C_1   0.374285 0.125718 0.500009 -0.169079
C46   C     C_1   0.625715 0.874282 0.499991 -0.169082
C47   C     C_1   0.625715 0.125718 0.499988 -0.168938
C48   C     C_1   0.374285 0.874282 0.500012 -0.168938
C49   C     C_1   0.874285 0.625718 0.500009 -0.169100
C50   C     C_1   0.125715 0.374282 0.499990 -0.169097
C51   C     C_1   0.125715 0.625718 0.499988 -0.168920
C52   C     C_1   0.874285 0.374282 0.500012 -0.168920
C53   C     C_3   0.263933 0.235867 0.584882 -0.155104
C54   C     C_3   0.735896 0.763963 0.415118 -0.155084
C55   C     C_3   0.736018 0.235919 0.415117 -0.154936
C56   C     C_3   0.262677 0.765387 0.584835 -0.155015
C57   C     C_3   0.764104 0.736037 0.584882 -0.155069
C58   C     C_3   0.236067 0.264133 0.415118 -0.155089
C59   C     C_3   0.237322 0.734613 0.415165 -0.155030
C60   C     C_3   0.763982 0.264081 0.584882 -0.154951
C61   C     C_3   0.291240 0.208760 0.500005 0.196153
C62   C     C_3   0.708759 0.791240 0.499995 0.196153
C63   C     C_3   0.708759 0.208760 0.499993 0.195991
C64   C     C_3   0.291241 0.791239 0.500007 0.196024
C65   C     C_3   0.791241 0.708760 0.500006 0.196152
C66   C     C_3   0.208759 0.291240 0.499994 0.196152
C67   C     C_3   0.208759 0.708761 0.499994 0.196024
C68   C     C_3   0.791241 0.291240 0.500007 0.195991
C69   C     C_3   0.443780 0.999532 0.029897 0.349425
C70   C     C_3   0.556220 0.000467 0.970102 0.349425
C71   C     C_3   0.943781 0.499393 0.029897 0.349424
C72   C     C_3   0.056219 0.500607 0.970103 0.349423
C73   C     C_3   0.500149 0.000001 0.089462 -0.000006
C74   C     C_3   0.499851 0.999998 0.910538 -0.000013
C75   C     C_3   0.000149 0.500002 0.089462 -0.000013
C76   C     C_3   0.999851 0.499998 0.910538 -0.000005
H1    H     H_    0.213273 0.159971 0.422591 0.145620
H2    H     H_    0.786882 0.840184 0.576845 0.145579
H3    H     H_    0.786771 0.159924 0.577243 0.145704
H4    H     H_    0.214452 0.838855 0.418475 0.145975
H5    H     H_    0.713118 0.659816 0.423156 0.145571
H6    H     H_    0.286727 0.340029 0.577408 0.145612
H7    H     H_    0.285548 0.661145 0.581525 0.145982
H8    H     H_    0.713229 0.340076 0.422756 0.145710
H9    H     H_    0.659971 0.713217 0.577386 0.142584
H10   H     H_    0.340183 0.286938 0.423178 0.142568
H11   H     H_    0.341287 0.711957 0.427381 0.142498
H12   H     H_    0.659861 0.286890 0.576985 0.142663
H13   H     H_    0.159817 0.213062 0.576821 0.142565
H14   H     H_    0.840028 0.786783 0.422614 0.142581
H15   H     H_    0.840139 0.213110 0.423015 0.142666
H16   H     H_    0.158713 0.788043 0.572619 0.142502
H17   H     H_    0.723270 0.776475 0.345757 0.146202
H18   H     H_    0.276421 0.223215 0.654243 0.146202
H19   H     H_    0.274139 0.779063 0.654158 0.146400
H20   H     H_    0.723490 0.223310 0.345755 0.146385
H21   H     H_    0.223579 0.276784 0.345757 0.146201
H22   H     H_    0.776730 0.723525 0.654243 0.146201
H23   H     H_    0.776510 0.276690 0.654244 0.146387
H24   H     H_    0.225861 0.720936 0.345842 0.146402
H25   H     H_    0.553141 0.910447 0.054536 0.171039
H26   H     H_    0.446859 0.089553 0.945464 0.171033
H27   H     H_    0.448355 0.909575 0.945469 0.171073
H28   H     H_    0.551645 0.090425 0.054531 0.171065
H29   H     H_    0.053363 0.410578 0.054535 0.171034
H30   H     H_    0.946637 0.589422 0.945465 0.171039
H31   H     H_    0.948579 0.409447 0.945469 0.171063
H32   H     H_    0.051421 0.590553 0.054531 0.171071
N1    N     N_1   0.500020 0.000000 0.268010 -0.086343
N2    N     N_1   0.499980 1.000000 0.731990 -0.086342
N3    N     N_1   0.000020 0.500000 0.268010 -0.086343
N4    N     N_1   0.999980 0.500000 0.731990 -0.086343
O1    O     O_R   0.438390 0.938390 0.574460 -0.614187
O2    O     O_R   0.561610 0.061610 0.425540 -0.614187
O3    O     O_R   0.561610 0.938390 0.425540 -0.614146
O4    O     O_R   0.438390 0.061610 0.574460 -0.614153
O5    O     O_R   0.938390 0.438390 0.574460 -0.614194
O6    O     O_R   0.061610 0.561610 0.425540 -0.614194
O7    O     O_R   0.061610 0.438390 0.425540 -0.614146
O8    O     O_R   0.938390 0.561610 0.574460 -0.614139
O9    O     O_R   0.438400 0.938390 0.425520 -0.602539
O10   O     O_R   0.561600 0.061610 0.574480 -0.602536
O11   O     O_R   0.561600 0.938390 0.574480 -0.602702
O12   O     O_R   0.438400 0.061610 0.425520 -0.602709
O13   O     O_R   0.938400 0.438390 0.425520 -0.602511
O14   O     O_R   0.061600 0.561610 0.574480 -0.602515
O15   O     O_R   0.061600 0.438390 0.574480 -0.602734
O16   O     O_R   0.938400 0.561610 0.425520 -0.602727
Zn1   Zn    Zn3+2 0.500000 1.000000 0.599450 1.000008
Zn2   Zn    Zn3+2 0.500000 1.000000 0.400550 1.000007
Zn3   Zn    Zn3+2 1.000000 0.500000 0.599450 1.000007
Zn4   Zn    Zn3+2 0.000000 0.500000 0.400550 1.000008
Br1   Br    Br    0.638413 0.001151 0.927770 -0.514133
Br2   Br    Br    0.361587 0.998849 0.072230 -0.514213
Br3   Br    Br    0.138411 0.501495 0.927771 -0.514213
Br4   Br    Br    0.861589 0.498505 0.072229 -0.514133

loop_
_geom_bond_atom_site_label_1
_geom_bond_atom_site_label_2
_ccdc_geom_bond_type
C56   H19   S    
C9    C45   T    
C69   Br2   S    
O8    Zn3   S    
C26   C72   S    
C11   C47   T    
C42   H6    S    
O9    Zn2   S    
C72   C76   S    
C60   H23   S    
C36   C67   S    
C13   C65   S    
C4    O12   A    
O1    Zn1   S    
C9    C61   S    
O14   Zn3   S    
C11   C63   S    
C42   C53   S    
C12   C64   S    
C27   H29   S    
C32   H12   S    
C43   H7    S    
C22   H28   S    
C20   C76   S    
N2    Zn1   S    
C31   C59   S    
C54   H17   S    
C59   C67   S    
C20   N4    T    
C53   C61   S    
C58   C66   S    
O4    Zn1   S    
C28   H30   S    
C55   C63   S    
C70   C74   S    
C70   Br1   S    
C56   C64   S    
C5    C52   S    
C69   C73   S    
C16   C68   S    
C15   C51   T    
C6    C51   S    
C30   H10   S    
O10   Zn1   S    
C29   H9    S    
C37   C58   S    
C12   C48   T    
C36   H16   S    
C15   C67   S    
C18   C74   S    
C40   C59   S    
O11   Zn1   S    
C17   C73   S    
C59   H24   S    
O2    Zn2   S    
C23   C70   S    
C10   C62   S    
C58   H21   S    
C1    O1    A    
C23   C73   S    
C27   C75   S    
O16   Zn4   S    
C34   C65   S    
C3    O11   A    
C24   C69   S    
O7    Zn4   S    
C1    O9    A    
C4    C45   S    
C2    O10   A    
C33   C53   S    
C31   H11   S    
C35   C55   S    
C7    O7    A    
C36   C40   S    
C6    O14   A    
C26   H32   S    
C71   Br4   S    
C72   Br3   S    
C41   C65   S    
C38   H2    S    
C37   H1    S    
C21   C74   S    
C33   C37   S    
C5    O5    A    
C39   H3    S    
C35   C39   S    
C34   H14   S    
C10   C46   T    
C36   C56   S    
C33   H13   S    
C38   C57   S    
C8    O16   A    
C43   C56   S    
C24   H26   S    
C41   H5    S    
C33   C66   S    
C40   H4    S    
C26   C75   S    
C14   C66   S    
O12   Zn2   S    
C31   C43   S    
C25   C71   S    
C39   C60   S    
C43   C67   S    
C29   C57   S    
C34   C54   S    
C21   C23   S    
C13   C49   T    
C44   C68   S    
C28   C71   S    
C32   C60   S    
C5    O13   A    
C28   C76   S    
N1    Zn2   S    
C8    O8    A    
C32   C44   S    
C29   C62   S    
C29   C41   S    
C53   H18   S    
C34   C38   S    
C31   C64   S    
C4    O4    A    
C30   C42   S    
C16   C52   T    
C32   C63   S    
C57   C65   S    
C55   H20   S    
C44   H8    S    
C17   N1    T    
C37   C61   S    
C1    C48   S    
C19   N3    T    
C2    C47   S    
C25   C27   S    
C39   C63   S    
C3    C46   S    
C26   C28   S    
C40   C64   S    
C25   C76   S    
C19   C75   S    
C3    O3    A    
C71   C75   S    
C2    O2    A    
O13   Zn4   S    
C24   C74   S    
C14   C50   T    
C35   C68   S    
C57   H22   S    
C30   C58   S    
C22   C70   S    
C44   C55   S    
C22   C24   S    
N4    Zn3   S    
O5    Zn3   S    
O15   Zn3   S    
C41   C54   S    
O6    Zn4   S    
C23   H25   S    
C21   H27   S    
N3    Zn4   S    
C60   C68   S    
C18   N2    T    
C30   C61   S    
C21   C69   S    
C7    C50   S    
C42   C66   S    
C54   C62   S    
C22   C73   S    
C7    O15   A    
C8    C49   S    
C6    O6    A    
C25   H31   S    
C27   C72   S    
C38   C62   S    
O3    Zn2   S    
C35   H15   S    
