data_mof_unit_5306.cif
_audit_creation_date              2012-10-26T20:22:28-0400
_audit_creation_method            fapswitch 2.2
_symmetry_space_group_name_H-M    P1
_symmetry_Int_Tables_number       1
_space_group_crystal_system       triclinic
_cell_length_a                    9.50019
_cell_length_b                    10.820491
_cell_length_c                    17.220926
_cell_angle_alpha                 90.198778
_cell_angle_beta                  86.783264
_cell_angle_gamma                 90.058015
_cell_volume                      1767.45430048

loop_
_atom_site_label
_atom_site_type_symbol
_atom_type_description
_atom_site_fract_x
_atom_site_fract_y
_atom_site_fract_z
_atom_type_partial_charge
C1    C     C_R   0.500070 0.737966 0.500044 0.542779
C2    C     C_R   0.078688 0.415050 0.457232 0.003760
C3    C     C_R   0.070292 0.585183 0.542511 0.000316
C4    C     C_R   0.929759 0.415129 0.457213 0.005531
C5    C     C_R   0.482732 0.496447 0.649983 0.578431
C6    C     C_R   0.516859 0.495673 0.349634 0.562037
C7    C     C_R   0.474840 0.478218 0.733931 -0.010104
C8    C     C_R   0.521998 0.474668 0.265120 -0.022954
C9    C     C_R   0.562016 0.390092 0.767613 0.260316
C10   C     C_R   0.402683 0.427947 0.228760 0.265846
C11   C     C_R   0.537565 0.361390 0.847205 0.275851
C12   C     C_R   0.499917 0.262037 0.500029 0.564011
C13   C     C_R   0.417979 0.387477 0.151211 0.262986
C14   C     C_R   0.446933 0.437468 0.894068 -0.007468
C15   C     C_R   0.541085 0.417622 0.105859 -0.014153
C16   C     C_R   0.363714 0.526291 0.859668 -0.193581
C17   C     C_R   0.657070 0.467601 0.141584 -0.188799
C18   C     C_R   0.375128 0.544408 0.779881 -0.204835
C19   C     C_R   0.648810 0.492975 0.220975 -0.200770
C20   C     C_2   0.436529 0.428221 0.979236 -0.088445
C21   C     C_2   0.548796 0.404303 0.020725 -0.088402
C22   C     C_3   0.798388 0.336232 0.743973 0.026997
C23   C     C_R   0.627511 0.936284 0.503294 -0.143979
C24   C     C_3   0.850347 0.471007 0.745988 -0.284502
C25   C     C_3   0.008617 0.477648 0.756482 -0.485477
C26   C     C_3   0.169358 0.486930 0.244905 0.021163
C27   C     C_3   0.177326 0.616485 0.281019 -0.268225
C28   C     C_3   0.060408 0.699870 0.253972 -0.498184
C29   C     C_3   0.328732 0.194462 0.138074 0.021789
C30   C     C_3   0.206038 0.120314 0.107971 -0.258627
C31   C     C_3   0.223706 0.982190 0.122292 -0.496930
C32   C     C_3   0.538727 0.149378 0.855160 0.017216
C33   C     C_3   0.418631 0.111508 0.913217 -0.268848
C34   C     C_R   0.372432 0.063745 0.496952 -0.142910
C35   C     C_3   0.356032 0.986890 0.891706 -0.498214
C36   C     C_R   0.627444 0.064062 0.503306 -0.135737
C37   C     C_R   0.372493 0.935966 0.496961 -0.146464
C38   C     C_R   0.499910 0.128234 0.500107 0.025238
C39   C     C_R   0.500042 0.871787 0.500102 0.019449
C40   C     C_R   0.921437 0.585663 0.542145 0.001026
Cu1   Cu    Cu3+1 0.359340 0.499980 0.500000 0.937256
Cu2   Cu    Cu3+1 0.640660 0.500020 0.500000 0.944502
H1    H     H_    0.740977 0.529048 0.247603 0.134186
H2    H     H_    0.272869 0.887734 0.494375 0.122457
H3    H     H_    0.861965 0.654333 0.575875 0.096406
H4    H     H_    0.138286 0.347240 0.422849 0.141377
H5    H     H_    0.123085 0.653097 0.576809 0.106427
H6    H     H_    0.876969 0.347335 0.422826 0.107206
H7    H     H_    0.867508 0.284694 0.700951 0.148007
H8    H     H_    0.812271 0.290920 0.800645 0.170166
H9    H     H_    0.827490 0.517690 0.691056 0.190044
H10   H     H_    0.794657 0.521525 0.794878 0.142938
H11   H     H_    0.034643 0.431981 0.811541 0.152364
H12   H     H_    0.308741 0.612590 0.754104 0.125469
H13   H     H_    0.041847 0.575921 0.758813 0.138256
H14   H     H_    0.067924 0.432103 0.706847 0.168860
H15   H     H_    0.065931 0.445434 0.263525 0.138987
H16   H     H_    0.170707 0.494087 0.180386 0.157304
H17   H     H_    0.166643 0.609676 0.345376 0.202263
H18   H     H_    0.280849 0.659422 0.264243 0.154582
H19   H     H_    0.069026 0.709609 0.189683 0.142132
H20   H     H_    0.069785 0.792929 0.280584 0.148231
H21   H     H_    0.955502 0.660954 0.272099 0.149518
H22   H     H_    0.329621 0.180727 0.202206 0.158045
H23   H     H_    0.652072 0.391572 0.991505 0.157875
H24   H     H_    0.429452 0.159193 0.110061 0.126218
H25   H     H_    0.105801 0.152248 0.137882 0.171127
H26   H     H_    0.199550 0.136365 0.044602 0.167313
H27   H     H_    0.321979 0.947806 0.091546 0.145468
H28   H     H_    0.132805 0.931143 0.100007 0.142341
H29   H     H_    0.227916 0.963733 0.185541 0.148732
H30   H     H_    0.620895 0.076307 0.853835 0.146218
H31   H     H_    0.499995 0.153586 0.795238 0.152301
H32   H     H_    0.459435 0.105277 0.972249 0.176489
H33   H     H_    0.334211 0.182567 0.914246 0.167170
H34   H     H_    0.338343 0.458302 0.008684 0.153108
H35   H     H_    0.313186 0.991308 0.833073 0.147127
H36   H     H_    0.268982 0.962526 0.934657 0.145314
H37   H     H_    0.437680 0.913509 0.892121 0.147451
H38   H     H_    0.290367 0.582620 0.894821 0.117197
H39   H     H_    0.753803 0.488316 0.107775 0.118559
H40   H     H_    0.727160 0.888304 0.505880 0.122545
H41   H     H_    0.272791 0.111729 0.494338 0.124097
H42   H     H_    0.727063 0.112296 0.505898 0.127826
N1    N     N_R   0.147930 0.499970 0.499980 -0.234229
N2    N     N_R   0.852070 0.500030 0.500020 -0.222007
O1    O     O_R   0.381260 0.680340 0.500000 -0.521049
O2    O     O_3   0.276163 0.408326 0.271346 -0.561571
O3    O     O_3   0.310767 0.320358 0.119815 -0.592969
O4    O     O_3   0.601900 0.260516 0.879583 -0.603074
O5    O     O_R   0.618740 0.319660 0.500000 -0.500746
O6    O     O_R   0.618830 0.680370 0.500010 -0.515345
O7    O     O_R   0.381170 0.319630 0.499990 -0.509775
O8    O     O_R   0.367440 0.500000 0.613600 -0.512194
O9    O     O_R   0.632560 0.500000 0.386400 -0.515533
O10   O     O_R   0.605010 0.500030 0.613600 -0.473520
O11   O     O_R   0.394990 0.499970 0.386400 -0.460943
O12   O     O_3   0.658392 0.324253 0.719843 -0.565637

loop_
_geom_bond_atom_site_label_1
_geom_bond_atom_site_label_2
_ccdc_geom_bond_type
C24   H10   S    
C1    O1    A    
C9    O12   S    
C22   O12   S    
C23   H40   S    
C3    N1    A    
C34   C37   A    
Cu1   Cu2   S    
C12   O5    A    
C25   H14   S    
C29   O3    S    
C5    O8    A    
C32   H30   S    
C2    H4    S    
C10   O2    S    
C26   C27   S    
Cu2   O10   S    
C22   C24   S    
C25   H11   S    
C27   H18   S    
C30   C31   S    
C11   C14   A    
C4    N2    A    
C20   H34   S    
C2    N1    A    
C15   C17   A    
Cu2   O5    S    
C40   N2    A    
C33   C35   S    
C33   H33   S    
C31   H28   S    
Cu1   O7    S    
Cu2   N2    S    
C14   C16   A    
C3    H5    S    
Cu2   O6    S    
C30   H25   S    
C22   H8    S    
C13   O3    S    
C28   H19   S    
C24   H9    S    
C31   H29   S    
C29   H22   S    
C19   H1    S    
C40   H3    S    
Cu1   O1    S    
C32   O4    S    
C8    C19   A    
Cu2   O9    S    
C6    O11   A    
C14   C20   S    
C24   C25   S    
C32   H31   S    
C5    C7    S    
C18   H12   S    
C6    C8    S    
C35   H35   S    
C16   H38   S    
C2    C4    A    
C29   C30   S    
C26   H16   S    
Cu1   O8    S    
C31   H27   S    
C7    C18   A    
C16   C18   A    
C9    C11   A    
C22   H7    S    
C26   O2    S    
C3    C40   A    
C23   C36   A    
C1    O6    A    
C13   C15   A    
Cu1   O11   S    
C12   O7    A    
C34   H41   S    
C5    O10   A    
C4    H6    S    
C7    C9    A    
C21   H23   S    
C34   C38   A    
C25   H13   S    
C10   C13   A    
Cu1   N1    S    
C35   H36   S    
C32   C33   S    
C37   H2    S    
C36   C38   A    
C37   C39   A    
C27   H17   S    
C11   O4    S    
C36   H42   S    
C23   C39   A    
C35   H37   S    
C17   C19   A    
C17   H39   S    
C12   C38   S    
C26   H15   S    
C1    C39   S    
C29   H24   S    
C28   H21   S    
C33   H32   S    
C15   C21   S    
C20   C21   D    
C8    C10   A    
C6    O9    A    
C27   C28   S    
C30   H26   S    
C28   H20   S    
