data_mof_unit_65189.cif
_audit_creation_date              2012-12-10T19:21:26-0500
_audit_creation_method            fapswitch 2.2
_symmetry_space_group_name_H-M    P1
_symmetry_Int_Tables_number       1
_space_group_crystal_system       triclinic
_cell_length_a                    38.939301
_cell_length_b                    38.921801
_cell_length_c                    32.034018
_cell_angle_alpha                 89.999786
_cell_angle_beta                  90.000081
_cell_angle_gamma                 90.000629
_cell_volume                      48550.3644471

loop_
_atom_site_label
_atom_site_type_symbol
_atom_type_description
_atom_site_fract_x
_atom_site_fract_y
_atom_site_fract_z
_atom_type_partial_charge
C1    C     C_R   0.000000 0.567152 0.000000 0.973002
C2    C     C_R   0.567140 0.000000 0.999999 0.975672
C3    C     C_R   1.000000 0.432848 0.000000 0.972999
C4    C     C_R   0.432860 1.000000 0.999999 0.975673
C5    C     C_R   0.500000 0.067152 0.500000 0.972985
C6    C     C_R   0.067140 0.500000 0.500000 0.975651
C7    C     C_R   0.500000 0.932848 0.500000 0.972986
C8    C     C_R   0.932860 0.500000 0.500000 0.975652
C9    C     C_R   0.000000 0.895006 0.000000 -0.083471
C10   C     C_R   0.895003 0.999998 1.000000 -0.090598
C11   C     C_R   0.000000 0.104994 1.000000 -0.083471
C12   C     C_R   0.104997 0.000002 1.000000 -0.090597
C13   C     C_R   0.500001 0.395006 0.500000 -0.083470
C14   C     C_R   0.395003 0.500000 0.500000 -0.090601
C15   C     C_R   0.499999 0.604994 0.500000 -0.083471
C16   C     C_R   0.604997 0.500000 0.500000 -0.090599
C17   C     C_R   0.968762 0.767830 0.999108 0.663790
C18   C     C_R   0.767885 0.968889 0.996377 0.659272
C19   C     C_R   0.968762 0.232169 0.000893 0.663781
C20   C     C_R   0.232115 0.031112 0.996376 0.659265
C21   C     C_R   0.031238 0.767831 0.000891 0.663790
C22   C     C_R   0.232113 0.968896 0.003619 0.659273
C23   C     C_R   0.031238 0.232170 0.999104 0.663790
C24   C     C_R   0.767887 0.031104 0.003618 0.659273
C25   C     C_R   0.468765 0.267831 0.499122 0.663790
C26   C     C_R   0.267885 0.468893 0.496365 0.659258
C27   C     C_R   0.531234 0.732169 0.499122 0.663790
C28   C     C_R   0.732114 0.531106 0.496364 0.659253
C29   C     C_R   0.531242 0.267830 0.500876 0.663779
C30   C     C_R   0.732114 0.468894 0.503636 0.659255
C31   C     C_R   0.468758 0.732170 0.500874 0.663783
C32   C     C_R   0.267886 0.531106 0.503636 0.659253
C33   C     C_R   0.968796 0.732137 0.999249 -0.229753
C34   C     C_R   0.732211 0.968914 0.996426 -0.224541
C35   C     C_R   0.968796 0.267863 0.000752 -0.229748
C36   C     C_R   0.267789 0.031086 0.996425 -0.224541
C37   C     C_R   0.031204 0.732137 0.000750 -0.229748
C38   C     C_R   0.267787 0.968921 0.003569 -0.224571
C39   C     C_R   0.031204 0.267863 0.999244 -0.229753
C40   C     C_R   0.732213 0.031079 0.003568 -0.224572
C41   C     C_R   0.468799 0.232137 0.499263 -0.229820
C42   C     C_R   0.232211 0.468918 0.496414 -0.224589
C43   C     C_R   0.531201 0.767863 0.499263 -0.229819
C44   C     C_R   0.767789 0.531081 0.496414 -0.224588
C45   C     C_R   0.531207 0.232137 0.500734 -0.229755
C46   C     C_R   0.767788 0.468919 0.503587 -0.224591
C47   C     C_R   0.468792 0.767863 0.500732 -0.229756
C48   C     C_R   0.232211 0.531081 0.503586 -0.224592
C49   C     C_R   0.000000 0.714179 0.999999 -0.078735
C50   C     C_R   0.714204 0.999997 0.999997 -0.073995
C51   C     C_R   0.000000 0.285821 0.999998 -0.078736
C52   C     C_R   0.285796 0.000003 0.999997 -0.073995
C53   C     C_R   0.500003 0.214179 0.499998 -0.078745
C54   C     C_R   0.214203 0.500000 0.500000 -0.074003
C55   C     C_R   0.499997 0.785821 0.499998 -0.078745
C56   C     C_R   0.785797 0.500000 0.500000 -0.074003
C57   C     C_R   0.000000 0.785667 1.000000 -0.127559
C58   C     C_R   0.785704 0.999996 0.999998 -0.144390
C59   C     C_R   0.000000 0.214333 0.999999 -0.127556
C60   C     C_R   0.214296 0.000004 0.999998 -0.144391
C61   C     C_R   0.500004 0.285667 0.499999 -0.127537
C62   C     C_R   0.285704 0.500000 0.500000 -0.144366
C63   C     C_R   0.499996 0.714333 0.499998 -0.127538
C64   C     C_R   0.714296 0.500000 0.500000 -0.144367
C65   C     C_R   0.979255 0.658798 0.028112 -0.179373
C66   C     C_R   0.658718 0.019735 0.029164 -0.176399
C67   C     C_R   0.020746 0.341201 0.028111 -0.179374
C68   C     C_R   0.341282 0.980265 0.029164 -0.176398
C69   C     C_R   0.020745 0.658799 0.971886 -0.179389
C70   C     C_R   0.341284 0.019737 0.970830 -0.176587
C71   C     C_R   0.979254 0.341201 0.971887 -0.179390
C72   C     C_R   0.658716 0.980263 0.970830 -0.176587
C73   C     C_R   0.479267 0.158799 0.528123 -0.179368
C74   C     C_R   0.158717 0.519725 0.529178 -0.176563
C75   C     C_R   0.520733 0.841201 0.528123 -0.179367
C76   C     C_R   0.841283 0.480275 0.529178 -0.176564
C77   C     C_R   0.520735 0.158798 0.471873 -0.179569
C78   C     C_R   0.841284 0.519725 0.470822 -0.176579
C79   C     C_R   0.479264 0.841202 0.471873 -0.179570
C80   C     C_R   0.158716 0.480275 0.470823 -0.176578
C81   C     C_R   0.979470 0.622953 0.029175 -0.058964
C82   C     C_R   0.622887 0.019636 0.030064 -0.059362
C83   C     C_R   0.020531 0.377047 0.029174 -0.058964
C84   C     C_R   0.377113 0.980364 0.030064 -0.059363
C85   C     C_R   0.020530 0.622953 0.970824 -0.058950
C86   C     C_R   0.377115 0.019634 0.969930 -0.059166
C87   C     C_R   0.979468 0.377047 0.970825 -0.058950
C88   C     C_R   0.622885 0.980366 0.969930 -0.059167
C89   C     C_R   0.479480 0.122953 0.529185 -0.059003
C90   C     C_R   0.122885 0.519624 0.530078 -0.059215
C91   C     C_R   0.520520 0.877047 0.529184 -0.059003
C92   C     C_R   0.877115 0.480376 0.530078 -0.059216
C93   C     C_R   0.520518 0.122952 0.470811 -0.058854
C94   C     C_R   0.877115 0.519623 0.469922 -0.059203
C95   C     C_R   0.479482 0.877048 0.470811 -0.058854
C96   C     C_R   0.122885 0.480376 0.469922 -0.059203
C97   C     C_R   0.000000 0.604734 1.000000 -0.185302
C98   C     C_R   0.604687 0.000001 0.999998 -0.184980
C99   C     C_R   1.000000 0.395266 1.000000 -0.185302
C100  C     C_R   0.395313 0.999999 0.999998 -0.184980
C101  C     C_R   0.500000 0.104733 0.499999 -0.185243
C102  C     C_R   0.104687 0.500000 0.500000 -0.184919
C103  C     C_R   0.500000 0.895267 0.499999 -0.185244
C104  C     C_R   0.895313 0.499999 0.500000 -0.184919
C105  C     C_R   0.000000 0.676637 0.999999 0.134151
C106  C     C_R   0.676604 0.999998 0.999998 0.137050
C107  C     C_R   0.000000 0.323363 0.999999 0.134149
C108  C     C_R   0.323396 0.000002 0.999998 0.137049
C109  C     C_R   0.500002 0.176637 0.499998 0.134177
C110  C     C_R   0.176603 0.500000 0.500001 0.137076
C111  C     C_R   0.499998 0.823363 0.499998 0.134177
C112  C     C_R   0.823396 0.500000 0.500000 0.137076
C113  C     C_R   0.932567 1.000000 1.000000 0.904365
C114  C     C_R   0.000000 0.067431 1.000000 0.904149
C115  C     C_R   0.067433 0.000000 0.000000 0.904364
C116  C     C_R   0.000000 0.932569 0.000000 0.904149
C117  C     C_R   0.432567 0.500000 0.500000 0.904369
C118  C     C_R   0.500000 0.567431 0.500000 0.904150
C119  C     C_R   0.567433 0.500000 0.500000 0.904370
C120  C     C_R   0.500000 0.432569 0.500000 0.904151
C121  C     C_R   1.000000 0.500000 0.919439 0.993293
C122  C     C_R   0.500000 0.000000 0.919433 0.997409
C123  C     C_R   1.000000 0.500000 0.080561 0.993293
C124  C     C_R   0.500000 1.000000 0.080568 0.997417
C125  C     C_R   0.500000 0.000000 0.419439 0.993241
C126  C     C_R   0.000000 0.500000 0.419433 0.997384
C127  C     C_R   0.500000 1.000000 0.580561 0.993280
C128  C     C_R   1.000000 0.500000 0.580567 0.997386
C129  C     C_R   0.022513 0.521609 0.728260 -0.154751
C130  C     C_R   0.477330 0.021444 0.728255 -0.154930
C131  C     C_R   0.977487 0.478390 0.728260 -0.154752
C132  C     C_R   0.522670 0.978556 0.728255 -0.154930
C133  C     C_R   0.977255 0.521365 0.271740 -0.154739
C134  C     C_R   0.519293 0.024530 0.271748 -0.154844
C135  C     C_R   0.022745 0.478635 0.271740 -0.154738
C136  C     C_R   0.480707 0.975470 0.271748 -0.154845
C137  C     C_R   0.519299 0.024525 0.228263 -0.155009
C138  C     C_R   0.977261 0.521370 0.228255 -0.154937
C139  C     C_R   0.480701 0.975475 0.228263 -0.155009
C140  C     C_R   0.022739 0.478629 0.228255 -0.154937
C141  C     C_R   0.477325 0.021439 0.771740 -0.154746
C142  C     C_R   0.022507 0.521615 0.771745 -0.154922
C143  C     C_R   0.522676 0.978562 0.771740 -0.154747
C144  C     C_R   0.977493 0.478384 0.771745 -0.154920
C145  C     C_R   1.000000 0.500000 0.706626 0.153906
C146  C     C_R   0.500000 0.000000 0.706620 0.153403
C147  C     C_R   0.000000 0.500000 0.293374 0.153878
C148  C     C_R   0.500000 1.000000 0.293382 0.153147
C149  C     C_R   0.500000 1.000000 0.206629 0.154293
C150  C     C_R   0.000000 0.500000 0.206621 0.153405
C151  C     C_R   0.500000 0.000000 0.793374 0.153882
C152  C     C_R   1.000000 0.500000 0.793380 0.153381
C153  C     C_1   1.000000 0.500000 0.662181 -0.050161
C154  C     C_1   0.500000 1.000000 0.662174 -0.049496
C155  C     C_1   0.000000 0.500000 0.337819 -0.050161
C156  C     C_1   0.500000 0.000000 0.337828 -0.049534
C157  C     C_1   0.500000 1.000000 0.162182 -0.050198
C158  C     C_1   0.000000 0.500000 0.162174 -0.049488
C159  C     C_1   0.500000 0.000000 0.837819 -0.050153
C160  C     C_1   1.000000 0.500000 0.837826 -0.049488
C161  C     C_1   1.000000 0.500000 0.875164 -0.129459
C162  C     C_1   0.500000 0.000000 0.875156 -0.130634
C163  C     C_1   0.000000 0.500000 0.124836 -0.129475
C164  C     C_1   0.500000 1.000000 0.124845 -0.130902
C165  C     C_1   0.500000 0.000000 0.375165 -0.129270
C166  C     C_1   1.000000 0.500000 0.375156 -0.130617
C167  C     C_1   0.500000 1.000000 0.624836 -0.129462
C168  C     C_1   1.000000 0.500000 0.624843 -0.130636
C169  C     C_R   0.005636 0.877079 0.037159 -0.208651
C170  C     C_R   0.877080 0.002806 0.037635 -0.203334
C171  C     C_R   0.005636 0.122921 0.962840 -0.208660
C172  C     C_R   0.122920 0.997193 0.037635 -0.203336
C173  C     C_R   0.994364 0.877079 0.962841 -0.208657
C174  C     C_R   0.122919 0.002813 0.962364 -0.203348
C175  C     C_R   0.994364 0.122921 0.037159 -0.208652
C176  C     C_R   0.877081 0.997189 0.962364 -0.203346
C177  C     C_R   0.505647 0.377079 0.537157 -0.208664
C178  C     C_R   0.377081 0.502800 0.537636 -0.203350
C179  C     C_R   0.494353 0.622921 0.537157 -0.208663
C180  C     C_R   0.622919 0.497198 0.537636 -0.203352
C181  C     C_R   0.494357 0.377079 0.462843 -0.208673
C182  C     C_R   0.622919 0.502802 0.462364 -0.203359
C183  C     C_R   0.505642 0.622921 0.462842 -0.208672
C184  C     C_R   0.377080 0.497200 0.462364 -0.203359
C185  C     C_R   0.005511 0.841197 0.037899 0.007098
C186  C     C_R   0.841246 0.002589 0.038388 0.007994
C187  C     C_R   0.005511 0.158803 0.962100 0.007106
C188  C     C_R   0.158754 0.997410 0.038388 0.007996
C189  C     C_R   0.994489 0.841197 0.962101 0.007106
C190  C     C_R   0.158753 0.002598 0.961610 0.008027
C191  C     C_R   0.994489 0.158803 0.037898 0.007100
C192  C     C_R   0.841246 0.997404 0.961609 0.008024
C193  C     C_R   0.505524 0.341197 0.537897 0.007100
C194  C     C_R   0.341246 0.502583 0.538390 0.008025
C195  C     C_R   0.494476 0.658803 0.537896 0.007098
C196  C     C_R   0.658754 0.497415 0.538390 0.008026
C197  C     C_R   0.494483 0.341197 0.462102 0.007129
C198  C     C_R   0.658754 0.502585 0.461610 0.008032
C199  C     C_R   0.505516 0.658803 0.462101 0.007130
C200  C     C_R   0.341246 0.497417 0.461610 0.008030
C201  C     C_R   0.000001 0.823160 0.000000 0.070151
C202  C     C_R   0.823192 0.999996 0.999999 0.066934
C203  C     C_R   0.000000 0.176840 0.999999 0.070148
C204  C     C_R   0.176808 0.000005 0.999999 0.066933
C205  C     C_R   0.500004 0.323160 0.499999 0.070146
C206  C     C_R   0.323191 0.500000 0.500000 0.066929
C207  C     C_R   0.499995 0.676840 0.499998 0.070147
C208  C     C_R   0.676809 0.500000 0.500000 0.066928
H1    H     H_    0.039960 0.538382 0.788459 0.156035
H2    H     H_    0.459736 0.038062 0.788454 0.156103
H3    H     H_    0.960040 0.461617 0.788459 0.156035
H4    H     H_    0.540264 0.961938 0.788454 0.156103
H5    H     H_    0.959628 0.537948 0.211541 0.156020
H6    H     H_    0.534269 0.043542 0.211549 0.155918
H7    H     H_    0.040372 0.462052 0.211542 0.156020
H8    H     H_    0.465730 0.956457 0.211549 0.155918
H9    H     H_    0.534252 0.043556 0.288462 0.156332
H10   H     H_    0.959613 0.537931 0.288454 0.156110
H11   H     H_    0.465748 0.956444 0.288463 0.156333
H12   H     H_    0.040388 0.462069 0.288455 0.156110
H13   H     H_    0.459752 0.038079 0.711541 0.156026
H14   H     H_    0.039975 0.538366 0.711546 0.156088
H15   H     H_    0.540248 0.961921 0.711542 0.156025
H16   H     H_    0.960024 0.461634 0.711546 0.156089
H17   H     H_    0.009818 0.891182 0.065887 0.198456
H18   H     H_    0.891196 0.004741 0.066688 0.206854
H19   H     H_    0.009819 0.108818 0.934113 0.198452
H20   H     H_    0.108804 0.995257 0.066688 0.206854
H21   H     H_    0.990182 0.891182 0.934113 0.198453
H22   H     H_    0.108803 0.004748 0.933311 0.206851
H23   H     H_    0.990182 0.108818 0.065886 0.198456
H24   H     H_    0.891197 0.995255 0.933311 0.206853
H25   H     H_    0.509835 0.391182 0.565883 0.198450
H26   H     H_    0.391196 0.504727 0.566690 0.206848
H27   H     H_    0.490165 0.608818 0.565883 0.198451
H28   H     H_    0.608804 0.495270 0.566690 0.206848
H29   H     H_    0.490167 0.391182 0.434117 0.198446
H30   H     H_    0.608804 0.504730 0.433310 0.206844
H31   H     H_    0.509831 0.608818 0.434116 0.198446
H32   H     H_    0.391196 0.495273 0.433310 0.206847
H33   H     H_    0.944562 0.718487 0.998336 0.191613
H34   H     H_    0.718642 0.944691 0.994146 0.190959
H35   H     H_    0.944562 0.281512 0.001668 0.191615
H36   H     H_    0.281358 0.055308 0.994145 0.190959
H37   H     H_    0.055438 0.718487 0.001663 0.191614
H38   H     H_    0.281355 0.944698 0.005848 0.190952
H39   H     H_    0.055438 0.281514 0.998329 0.191613
H40   H     H_    0.718645 0.055302 0.005848 0.190952
H41   H     H_    0.444564 0.218487 0.498362 0.191608
H42   H     H_    0.218642 0.444696 0.494123 0.190961
H43   H     H_    0.555435 0.781513 0.498362 0.191608
H44   H     H_    0.781357 0.555303 0.494122 0.190961
H45   H     H_    0.555441 0.218487 0.501635 0.191626
H46   H     H_    0.781356 0.444696 0.505878 0.190961
H47   H     H_    0.444558 0.781513 0.501633 0.191625
H48   H     H_    0.218644 0.555303 0.505878 0.190961
H49   H     H_    0.963897 0.673019 0.050455 0.180280
H50   H     H_    0.672861 0.034255 0.052383 0.179069
H51   H     H_    0.036105 0.326981 0.050453 0.180281
H52   H     H_    0.327139 0.965745 0.052383 0.179070
H53   H     H_    0.036103 0.673020 0.949543 0.180274
H54   H     H_    0.327142 0.034257 0.947610 0.178999
H55   H     H_    0.963895 0.326981 0.949545 0.180275
H56   H     H_    0.672858 0.965743 0.947610 0.178999
H57   H     H_    0.463917 0.173020 0.550474 0.180286
H58   H     H_    0.172860 0.534236 0.552406 0.179008
H59   H     H_    0.536082 0.826980 0.550474 0.180286
H60   H     H_    0.827141 0.465763 0.552405 0.179009
H61   H     H_    0.536084 0.173018 0.449521 0.180220
H62   H     H_    0.827141 0.534236 0.447595 0.179003
H63   H     H_    0.463915 0.826982 0.449520 0.180221
H64   H     H_    0.172859 0.465764 0.447595 0.179003
O1    O     O_R   0.028770 0.550930 0.999950 -0.605593
O2    O     O_R   0.550930 0.971230 0.999950 -0.605800
O3    O     O_R   0.971230 0.449070 0.999950 -0.605593
O4    O     O_R   0.449070 0.028770 0.999950 -0.605800
O5    O     O_R   0.971230 0.550930 0.000050 -0.605596
O6    O     O_R   0.449070 0.971230 0.000050 -0.605858
O7    O     O_R   0.028770 0.449070 0.000050 -0.605597
O8    O     O_R   0.550930 0.028770 0.000050 -0.605858
O9    O     O_R   0.528770 0.050930 0.499950 -0.605536
O10   O     O_R   0.050930 0.471230 0.499950 -0.605810
O11   O     O_R   0.471230 0.949070 0.499950 -0.605536
O12   O     O_R   0.949070 0.528770 0.499950 -0.605810
O13   O     O_R   0.471230 0.050930 0.500050 -0.605623
O14   O     O_R   0.949070 0.471230 0.500050 -0.605816
O15   O     O_R   0.528770 0.949070 0.500050 -0.605622
O16   O     O_R   0.050930 0.528770 0.500050 -0.605816
O17   O     O_R   0.028770 0.500010 0.938980 -0.606675
O18   O     O_R   0.500010 0.971230 0.938980 -0.606578
O19   O     O_R   0.971230 0.499990 0.938980 -0.606673
O20   O     O_R   0.499990 0.028770 0.938980 -0.606579
O21   O     O_R   0.971230 0.500010 0.061020 -0.606692
O22   O     O_R   0.499990 0.971230 0.061020 -0.606806
O23   O     O_R   0.028770 0.499990 0.061020 -0.606691
O24   O     O_R   0.500010 0.028770 0.061020 -0.606807
O25   O     O_R   0.528770 0.000010 0.438980 -0.606477
O26   O     O_R   0.000010 0.471230 0.438980 -0.606583
O27   O     O_R   0.471230 0.999990 0.438980 -0.606477
O28   O     O_R   0.999990 0.528770 0.438980 -0.606583
O29   O     O_R   0.471230 0.000010 0.561020 -0.606693
O30   O     O_R   0.999990 0.471230 0.561020 -0.606599
O31   O     O_R   0.528770 0.999990 0.561020 -0.606694
O32   O     O_R   0.000010 0.528770 0.561020 -0.606600
O33   O     O_R   0.949050 0.000070 0.965610 -0.617831
O34   O     O_R   0.000070 0.050950 0.965610 -0.617697
O35   O     O_R   0.050950 0.999930 0.965610 -0.617831
O36   O     O_R   0.999930 0.949050 0.965610 -0.617697
O37   O     O_R   0.050950 0.000070 0.034390 -0.617826
O38   O     O_R   0.999930 0.050950 0.034390 -0.617692
O39   O     O_R   0.949050 0.999930 0.034390 -0.617825
O40   O     O_R   0.000070 0.949050 0.034390 -0.617692
O41   O     O_R   0.449050 0.500070 0.465610 -0.617834
O42   O     O_R   0.500070 0.550950 0.465610 -0.617701
O43   O     O_R   0.550950 0.499930 0.465610 -0.617835
O44   O     O_R   0.499930 0.449050 0.465610 -0.617700
O45   O     O_R   0.550950 0.500070 0.534390 -0.617831
O46   O     O_R   0.499930 0.550950 0.534390 -0.617694
O47   O     O_R   0.449050 0.499930 0.534390 -0.617830
O48   O     O_R   0.500070 0.449050 0.534390 -0.617694
Zn1   Zn    Zn3+2 0.038410 0.500000 0.000000 1.057815
Zn2   Zn    Zn3+2 0.500000 0.961590 0.000000 1.058600
Zn3   Zn    Zn3+2 0.961590 0.500000 0.000000 1.057815
Zn4   Zn    Zn3+2 0.500000 0.038410 0.000000 1.058600
Zn5   Zn    Zn3+2 0.538410 0.000000 0.500000 1.058084
Zn6   Zn    Zn3+2 0.000000 0.461590 0.500000 1.058896
Zn7   Zn    Zn3+2 0.461590 0.000000 0.500000 1.058084
Zn8   Zn    Zn3+2 0.000000 0.538410 0.500000 1.058896
Zn9   Zn    Zn3+2 0.000000 0.000000 0.953990 1.034239
Zn10  Zn    Zn3+2 0.000000 0.000000 0.046010 1.034264
Zn11  Zn    Zn3+2 0.500000 0.500000 0.453990 1.034199
Zn12  Zn    Zn3+2 0.500000 0.500000 0.546010 1.034227
C209  C     C_2   0.010896 0.823596 0.078798 0.961778
O49   O     O_2   0.026708 0.838197 0.106634 -0.584657
O50   O     O_R   0.997397 0.790855 0.086145 -0.801731
H65   H     H_    0.002846 0.781977 0.115151 0.364046
C210  C     C_2   0.823922 0.004871 0.079897 0.962237
O51   O     O_2   0.794654 0.994230 0.084787 -0.611441
O52   O     O_R   0.841645 0.018696 0.113979 -0.777545
H66   H     H_    0.827440 0.018719 0.140507 0.367411
C211  C     C_2   0.010897 0.176404 0.921201 0.961772
O53   O     O_2   0.026710 0.161803 0.893367 -0.584670
O54   O     O_R   0.997396 0.209144 0.913853 -0.801740
H67   H     H_    0.002847 0.218022 0.884847 0.364038
C212  C     C_2   0.176078 0.995127 0.079897 0.962240
O55   O     O_2   0.205346 0.005767 0.084787 -0.611443
O56   O     O_R   0.158355 0.981301 0.113978 -0.777544
H68   H     H_    0.172560 0.981276 0.140507 0.367410
C213  C     C_2   0.989104 0.823596 0.921202 0.961764
O57   O     O_2   0.973292 0.838197 0.893367 -0.584673
O58   O     O_R   0.002605 0.790856 0.913855 -0.801738
H69   H     H_    0.997155 0.781978 0.884848 0.364038
C214  C     C_2   0.176076 0.004883 0.920101 0.962199
O59   O     O_2   0.205344 0.994244 0.915209 -0.611533
O60   O     O_R   0.158352 0.018709 0.886020 -0.777572
H70   H     H_    0.172556 0.018735 0.859492 0.367368
C215  C     C_2   0.989105 0.176404 0.078797 0.961782
O61   O     O_2   0.973293 0.161803 0.106633 -0.584655
O62   O     O_R   0.002606 0.209145 0.086144 -0.801733
H71   H     H_    0.997157 0.218023 0.115150 0.364046
C216  C     C_2   0.823923 0.995120 0.920100 0.962199
O63   O     O_2   0.794655 0.005757 0.915210 -0.611534
O64   O     O_R   0.841649 0.981298 0.886019 -0.777576
H72   H     H_    0.827445 0.981273 0.859490 0.367368
C217  C     C_2   0.510920 0.323596 0.578794 0.961767
O65   O     O_2   0.526738 0.338198 0.606623 -0.584681
O66   O     O_R   0.497425 0.290854 0.586145 -0.801732
H73   H     H_    0.502882 0.281976 0.615149 0.364039
C218  C     C_2   0.323922 0.504856 0.579900 0.962199
O67   O     O_2   0.294656 0.494213 0.584787 -0.611524
O68   O     O_R   0.341646 0.518674 0.613986 -0.777577
H74   H     H_    0.327441 0.518691 0.640515 0.367364
C219  C     C_2   0.489080 0.676404 0.578793 0.961766
O69   O     O_2   0.473263 0.661801 0.606623 -0.584683
O70   O     O_R   0.502575 0.709147 0.586144 -0.801733
H75   H     H_    0.497118 0.718024 0.615148 0.364040
C220  C     C_2   0.676078 0.495141 0.579900 0.962204
O71   O     O_2   0.705345 0.505783 0.584787 -0.611525
O72   O     O_R   0.658354 0.481322 0.613985 -0.777576
H76   H     H_    0.672559 0.481303 0.640514 0.367364
C221  C     C_2   0.489087 0.323596 0.421205 0.961725
O73   O     O_2   0.473268 0.338197 0.393376 -0.584730
O74   O     O_R   0.502586 0.290856 0.413853 -0.801791
H77   H     H_    0.497129 0.281978 0.384848 0.363968
C222  C     C_2   0.676078 0.504859 0.420101 0.962192
O75   O     O_2   0.705344 0.494216 0.415213 -0.611535
O76   O     O_R   0.658355 0.518679 0.386015 -0.777590
H78   H     H_    0.672559 0.518698 0.359487 0.367355
C223  C     C_2   0.510911 0.676404 0.421204 0.961724
O77   O     O_2   0.526730 0.661803 0.393375 -0.584731
O78   O     O_R   0.497413 0.709145 0.413852 -0.801791
H79   H     H_    0.502870 0.718022 0.384848 0.363968
C224  C     C_2   0.323922 0.495144 0.420100 0.962193
O79   O     O_2   0.294655 0.505785 0.415213 -0.611537
O80   O     O_R   0.341646 0.481327 0.386014 -0.777592
H80   H     H_    0.327441 0.481310 0.359485 0.367354
F1    F     F_    0.938443 0.785036 0.998286 -0.622528
F2    F     F_    0.785093 0.938673 0.993095 -0.622102
F3    F     F_    0.938443 0.214963 0.001719 -0.622528
F4    F     F_    0.214907 0.061327 0.993094 -0.622102
F5    F     F_    0.061558 0.785037 0.001714 -0.622526
F6    F     F_    0.214904 0.938681 0.006902 -0.622099
F7    F     F_    0.061557 0.214964 0.998278 -0.622529
F8    F     F_    0.785096 0.061319 0.006901 -0.622099
F9    F     F_    0.438446 0.285037 0.498314 -0.622540
F10   F     F_    0.285093 0.438679 0.493068 -0.622111
F11   F     F_    0.561554 0.714963 0.498315 -0.622540
F12   F     F_    0.714907 0.561321 0.493067 -0.622112
F13   F     F_    0.561562 0.285036 0.501684 -0.622535
F14   F     F_    0.714905 0.438679 0.506933 -0.622110
F15   F     F_    0.438438 0.714963 0.501681 -0.622535
F16   F     F_    0.285095 0.561321 0.506932 -0.622110
C225  C     C_2   0.959313 0.605681 0.062516 0.938676
O81   O     O_2   0.931671 0.617613 0.073433 -0.595132
O82   O     O_R   0.972431 0.576671 0.082665 -0.820006
H81   H     H_    0.956484 0.567657 0.105163 0.344943
C226  C     C_2   0.605601 0.039003 0.064079 0.938684
O83   O     O_2   0.617690 0.066241 0.076215 -0.594542
O84   O     O_R   0.576386 0.025588 0.083445 -0.820908
H82   H     H_    0.567419 0.040983 0.106536 0.344252
C227  C     C_2   0.040689 0.394318 0.062514 0.938678
O85   O     O_2   0.068332 0.382387 0.073430 -0.595131
O86   O     O_R   0.027570 0.423328 0.082664 -0.820005
H83   H     H_    0.043518 0.432342 0.105162 0.344943
C228  C     C_2   0.394399 0.960997 0.064080 0.938685
O87   O     O_2   0.382309 0.933759 0.076215 -0.594542
O88   O     O_R   0.423614 0.974411 0.083445 -0.820909
H84   H     H_    0.432581 0.959017 0.106536 0.344252
C229  C     C_2   0.040686 0.605682 0.937483 0.938653
O89   O     O_2   0.068329 0.617614 0.926566 -0.595132
O90   O     O_R   0.027567 0.576672 0.917334 -0.820042
H85   H     H_    0.043513 0.567658 0.894835 0.344927
C230  C     C_2   0.394403 0.038992 0.935908 0.938354
O91   O     O_2   0.382320 0.066232 0.923769 -0.594613
O92   O     O_R   0.423610 0.025565 0.916538 -0.821333
H86   H     H_    0.432575 0.040950 0.893436 0.343953
C231  C     C_2   0.959312 0.394318 0.937485 0.938653
O93   O     O_2   0.931669 0.382387 0.926569 -0.595132
O94   O     O_R   0.972431 0.423328 0.917334 -0.820040
H87   H     H_    0.956484 0.432342 0.894837 0.344928
C232  C     C_2   0.605597 0.961008 0.935908 0.938354
O95   O     O_2   0.617680 0.933768 0.923770 -0.594613
O96   O     O_R   0.576390 0.974435 0.916538 -0.821332
H88   H     H_    0.567425 0.959050 0.893436 0.343954
C233  C     C_2   0.459333 0.105682 0.562534 0.938668
O97   O     O_2   0.431696 0.117616 0.573467 -0.595119
O98   O     O_R   0.472454 0.076669 0.582674 -0.820035
H89   H     H_    0.456514 0.067655 0.605179 0.344930
C234  C     C_2   0.105599 0.538973 0.564108 0.938377
O99   O     O_2   0.117685 0.566207 0.576260 -0.594592
O100  O     O_R   0.076389 0.525544 0.583468 -0.821325
H90   H     H_    0.067425 0.540923 0.606576 0.343955
C235  C     C_2   0.540667 0.894317 0.562534 0.938666
O101  O     O_2   0.568303 0.882383 0.573468 -0.595117
O102  O     O_R   0.527545 0.923331 0.582674 -0.820035
H91   H     H_    0.543486 0.932344 0.605179 0.344930
C236  C     C_2   0.894401 0.461027 0.564108 0.938377
O103  O     O_2   0.882315 0.433793 0.576260 -0.594592
O104  O     O_R   0.923612 0.474456 0.583468 -0.821325
H92   H     H_    0.932576 0.459077 0.606576 0.343955
C237  C     C_2   0.540657 0.105680 0.437455 0.938350
O105  O     O_2   0.568296 0.117609 0.426519 -0.595071
O106  O     O_R   0.527524 0.076674 0.417312 -0.820527
H93   H     H_    0.543456 0.067663 0.394797 0.344827
C238  C     C_2   0.894401 0.538972 0.435891 0.938351
O107  O     O_2   0.882316 0.566206 0.423739 -0.594593
O108  O     O_R   0.923611 0.525542 0.416531 -0.821360
H94   H     H_    0.932575 0.540921 0.393421 0.343941
C239  C     C_2   0.459343 0.894320 0.437454 0.938349
O109  O     O_2   0.431705 0.882391 0.426518 -0.595071
O110  O     O_R   0.472477 0.923327 0.417312 -0.820528
H95   H     H_    0.456545 0.932338 0.394796 0.344827
C240  C     C_2   0.105598 0.461029 0.435892 0.938350
O111  O     O_2   0.117683 0.433794 0.423739 -0.594593
O112  O     O_R   0.076389 0.474458 0.416531 -0.821360
H96   H     H_    0.067425 0.459080 0.393421 0.343941

loop_
_geom_bond_atom_site_label_1
_geom_bond_atom_site_label_2
_ccdc_geom_bond_type
O104  H92   S    
C11   C171  A    
C215  O61   D    
C96   C102  A    
C130  C146  A    
C4    O6    A    
C236  O103  D    
C9    C169  A    
O37   Zn10  S    
O88   H84   S    
O46   Zn12  S    
C210  O51   D    
C12   C172  A    
C179  C195  A    
C209  O49   D    
C177  C193  A    
C88   C232  S    
C30   C64   A    
C22   C60   A    
C16   C182  A    
C176  H24   S    
C37   H37   S    
C186  C202  A    
C228  O87   D    
C130  C141  A    
O6    Zn2   S    
C27   F11   S    
C72   C88   A    
C18   C58   A    
O22   Zn2   S    
C234  O100  S    
C87   C231  S    
O3    Zn3   S    
C131  H16   S    
C147  C155  S    
C129  C145  A    
C180  C196  A    
C12   C115  S    
C8    O14   A    
C143  C151  A    
C94   C104  A    
C225  O82   S    
O5    Zn3   S    
C82   C98   A    
C6    O10   A    
C191  C203  A    
C180  H28   S    
C200  C224  S    
C214  O60   S    
C189  C213  S    
C5    C101  S    
O106  H93   S    
C121  O19   A    
C122  O20   A    
C93   C101  A    
C68   H52   S    
C69   C105  A    
C69   H53   S    
C129  C142  A    
C117  O47   A    
C239  O109  D    
C28   C44   A    
C79   H63   S    
C119  O45   A    
C29   C45   A    
C80   H64   S    
C199  C223  S    
C65   H49   S    
C1    O5    A    
C2    O2    A    
C216  O64   S    
C3    O7    A    
O60   H70   S    
C146  C154  S    
C139  H8    S    
C93   C237  S    
O48   Zn12  S    
O30   Zn6   S    
C8    C104  S    
C10   C113  S    
C72   C106  A    
C239  O110  S    
C170  H18   S    
C153  C168  T    
C35   C51   A    
C221  O73   D    
O10   Zn6   S    
C154  C167  T    
O74   H77   S    
C190  C214  S    
O86   H83   S    
C7    O11   A    
C12   C174  A    
C53   C109  S    
C55   C111  S    
C9    C116  S    
C75   C111  A    
C130  H13   S    
C91   C103  A    
C74   C110  A    
C84   C100  A    
C85   C229  S    
O70   H75   S    
C134  H9    S    
C224  O79   D    
O44   Zn11  S    
C15   C118  S    
C74   C90   A    
C32   C62   A    
C19   C35   A    
C217  O65   D    
C190  C204  A    
C78   C94   A    
C6    C102  S    
C233  O97   D    
C81   C225  S    
C92   C104  A    
O50   H65   S    
C43   H43   S    
C18   F2    S    
C58   C202  S    
C51   C107  S    
C84   C228  S    
C24   F8    S    
O62   H71   S    
C23   F7    S    
C62   C206  S    
C144  H3    S    
C222  O76   S    
O40   Zn10  S    
C22   C38   A    
C196  C220  S    
C39   C51   A    
C138  H5    S    
C67   C83   A    
C213  O57   D    
C15   C179  A    
C132  H15   S    
C195  C219  S    
C33   H33   S    
O84   H82   S    
C122  O18   A    
C181  C197  A    
O17   Zn1   S    
C136  H11   S    
C117  O41   A    
C229  O89   D    
C23   C59   A    
C118  O46   A    
C113  O39   A    
C120  O44   A    
C115  O37   A    
C28   F12   S    
C2    O8    A    
C95   C239  S    
C13   C177  A    
O47   Zn12  S    
C185  C201  A    
C54   C110  S    
C96   C240  S    
C90   C102  A    
C19   F3    S    
O38   Zn10  S    
O39   Zn10  S    
C60   C204  S    
O108  H94   S    
C184  C200  A    
C31   F15   S    
C9    C173  A    
C133  C147  A    
C194  C218  S    
C36   C52   A    
C75   C91   A    
C45   C53   A    
C7    C103  S    
O23   Zn1   S    
C124  O22   A    
C65   C105  A    
C226  O84   S    
C95   C103  A    
O42   Zn11  S    
C211  O54   S    
C29   C61   A    
C193  C205  A    
C31   C63   A    
C85   C97   A    
C94   C238  S    
O36   Zn9   S    
O34   Zn9   S    
C178  H26   S    
C89   C233  S    
C19   C59   A    
C223  O78   S    
C188  C204  A    
C92   C236  S    
C151  C159  S    
C196  C208  A    
C125  C165  S    
C27   C43   A    
O90   H85   S    
C14   C117  S    
C197  C221  S    
C14   C178  A    
C77   C109  A    
C174  H22   S    
C157  C164  T    
C41   C53   A    
C136  C148  A    
C173  H21   S    
C158  C163  T    
C43   C55   A    
C135  C147  A    
C76   H60   S    
C77   H61   S    
C20   C60   A    
C123  O21   A    
O43   Zn11  S    
C13   C120  S    
C69   C85   A    
C26   C42   A    
O25   Zn5   S    
C181  H29   S    
C70   H54   S    
C114  O38   A    
O4    Zn4   S    
C115  O35   A    
O35   Zn9   S    
C129  H14   S    
C66   H50   S    
C187  C211  S    
C3    O3    A    
C143  H4    S    
C240  O112  S    
C13   C181  A    
C133  H10   S    
C122  C162  S    
C144  C152  A    
C70   C108  A    
C135  H12   S    
C238  O108  S    
C184  H32   S    
C131  C145  A    
C5    O13   A    
C220  O72   S    
C7    O15   A    
O100  H90   S    
C3    C99   S    
C133  C138  A    
C234  O99   D    
C57   C201  S    
C31   C47   A    
C142  H1    S    
C124  O24   A    
C231  O93   D    
C16   C180  A    
C61   C205  S    
C218  O68   S    
C80   C110  A    
C225  O81   D    
C71   C107  A    
C137  H6    S    
C228  O88   S    
C197  C205  A    
C134  C137  A    
C214  O59   D    
O72   H76   S    
O12   Zn8   S    
C35   H35   S    
C178  C194  A    
C182  H30   S    
C227  O85   D    
C47   C55   A    
C219  O70   S    
C8    O12   A    
C232  O96   S    
C34   H34   S    
C33   C49   A    
O68   H74   S    
C38   H38   S    
C187  C203  A    
O41   Zn11  S    
C29   F13   S    
C142  C152  A    
C235  O102  S    
O31   Zn5   S    
C140  H7    S    
C198  C222  S    
O58   H69   S    
C230  O92   S    
C15   C183  A    
O64   H72   S    
C82   C226  S    
C212  O56   S    
C86   C100  A    
C191  C215  S    
C132  C143  A    
C209  O50   S    
C118  O42   A    
C123  O23   A    
O102  H91   S    
C215  O62   S    
C63   C207  S    
C188  C212  S    
C236  O104  S    
C17   C33   A    
O32   Zn8   S    
C136  C139  A    
C210  O52   S    
C30   C46   A    
C231  O94   S    
C71   H55   S    
C135  C140  A    
C72   H56   S    
O98   H89   S    
C68   C84   A    
C40   H40   S    
O56   H68   S    
C49   C105  S    
C237  O105  D    
C139  C149  A    
C83   C99   A    
C36   H36   S    
C79   C95   A    
C6    O16   A    
O94   H87   S    
C47   H47   S    
C37   C49   A    
C44   C56   A    
C65   C81   A    
O52   H66   S    
C88   C98   A    
C170  C186  A    
C159  C162  T    
C25   C61   A    
C73   H57   S    
C174  C190  A    
C71   C87   A    
C28   C64   A    
C171  H19   S    
C119  O43   A    
O9    Zn5   S    
C25   C41   A    
C185  C209  S    
O11   Zn7   S    
C25   F9    S    
C222  O75   D    
C186  C210  S    
O27   Zn7   S    
C150  C158  S    
O1    Zn1   S    
C126  C166  S    
O80   H80   S    
O20   Zn4   S    
C73   C109  A    
C171  C187  A    
C10   C170  A    
C11   C175  A    
C132  C146  A    
O7    Zn1   S    
C73   C89   A    
C42   C54   A    
C66   C82   A    
C127  O31   A    
C172  H20   S    
C193  C217  S    
C32   C48   A    
C156  C165  T    
C40   C50   A    
O21   Zn3   S    
C38   C52   A    
C77   C93   A    
O28   Zn8   S    
C78   H62   S    
C128  O32   A    
C20   C36   A    
C59   C203  S    
O15   Zn5   S    
C21   C37   A    
C42   H42   S    
C24   C58   A    
C221  O74   S    
C78   C112  A    
C148  C156  S    
C114  O34   A    
C125  O25   A    
C149  C157  S    
C141  H2    S    
C46   H46   S    
C131  C144  A    
C17   C57   A    
C124  C164  S    
O54   H67   S    
C152  C160  S    
O29   Zn7   S    
O66   H73   S    
C182  C198  A    
O110  H95   S    
O18   Zn2   S    
C226  O83   D    
O78   H79   S    
O16   Zn8   S    
C211  O53   D    
C138  C150  A    
C48   C54   A    
C224  O80   S    
C21   F5    S    
C217  O66   S    
C175  C191  A    
C125  O27   A    
C176  C192  A    
C126  O28   A    
C155  C166  T    
O26   Zn6   S    
C123  C163  S    
C233  O98   S    
C11   C114  S    
C20   F4    S    
C5    O9    A    
C183  H31   S    
C128  O30   A    
C44   H44   S    
C113  O33   A    
C50   C106  S    
C80   C96   A    
O8    Zn4   S    
C89   C101  A    
C145  C153  S    
C121  C161  S    
C192  C216  S    
C227  O86   S    
C137  C149  A    
C90   C234  S    
C66   C106  A    
O14   Zn6   S    
C87   C99   A    
C237  O106  S    
O45   Zn12  S    
C10   C176  A    
C194  C206  A    
C34   C50   A    
C175  H23   S    
C229  O90   S    
C198  C208  A    
C4    O4    A    
C30   F14   S    
C179  H27   S    
C16   C119  S    
C1    C97   S    
O112  H96   S    
C177  H25   S    
C189  C201  A    
C240  O111  D    
C183  C199  A    
C64   C208  S    
C21   C57   A    
C91   C235  S    
C83   C227  S    
O82   H81   S    
O19   Zn3   S    
C76   C112  A    
C199  C207  A    
C238  O107  D    
C18   C34   A    
C2    C98   S    
C220  O71   D    
C27   C63   A    
C76   C92   A    
C116  O40   A    
C127  C167  S    
C4    C100  S    
C39   H39   S    
C48   H48   S    
C46   C56   A    
C70   C86   A    
C140  C150  A    
C141  C151  A    
C17   F1    S    
C218  O67   D    
C200  C206  A    
C32   F16   S    
C1    O1    A    
C22   F6    S    
C127  O29   A    
C14   C184  A    
C126  O26   A    
O2    Zn2   S    
C134  C148  A    
C216  O63   D    
C79   C111  A    
C121  O17   A    
C160  C161  T    
C26   C62   A    
C169  C185  A    
O96   H88   S    
C219  O69   D    
C74   H58   S    
C67   C107  A    
C232  O95   D    
C223  O77   D    
C81   C97   A    
C172  C188  A    
C23   C39   A    
C173  C189  A    
C24   C40   A    
C116  O36   A    
C169  H17   S    
C120  O48   A    
C235  O101  D    
C67   H51   S    
O92   H86   S    
C26   F10   S    
C52   C108  S    
C195  C207  A    
C213  O58   S    
C230  O91   D    
O24   Zn4   S    
C41   H41   S    
C128  C168  S    
C192  C202  A    
O33   Zn9   S    
C68   C108  A    
O13   Zn7   S    
C212  O55   D    
C56   C112  S    
C86   C230  S    
C75   H59   S    
O76   H78   S    
C45   H45   S    
