data_mof_unit_42589.cif
_audit_creation_date              2012-12-10T17:55:04-0500
_audit_creation_method            fapswitch 2.2
_symmetry_space_group_name_H-M    P1
_symmetry_Int_Tables_number       1
_space_group_crystal_system       triclinic
_cell_length_a                    8.853924
_cell_length_b                    10.762096
_cell_length_c                    9.591878
_cell_angle_alpha                 91.296118
_cell_angle_beta                  98.453495
_cell_angle_gamma                 92.656579
_cell_volume                      902.676891917

loop_
_atom_site_label
_atom_site_type_symbol
_atom_type_description
_atom_site_fract_x
_atom_site_fract_y
_atom_site_fract_z
_atom_type_partial_charge
C1    C     C_R   0.502994 0.262633 0.499297 0.835877
C2    C     C_R   0.496993 0.737366 0.500701 0.835870
C3    C     C_R   0.204454 0.499755 0.464085 0.873856
C4    C     C_R   0.795548 0.500273 0.535915 0.873880
C5    C     C_2   0.039616 0.496640 0.444009 0.027965
C6    C     C_2   0.960387 0.503439 0.555990 0.027891
C7    C     C_R   0.397902 0.060259 0.401863 -0.264013
C8    C     C_R   0.602040 0.939738 0.598128 -0.264039
C9    C     C_R   0.391314 0.931349 0.403142 0.281506
C10   C     C_R   0.608624 0.068647 0.596854 0.281482
C11   C     C_R   0.494531 0.871176 0.501724 -0.106768
C12   C     C_R   0.505412 0.128821 0.498273 -0.106779
C13   C     C_R   0.413836 0.410840 0.057301 0.220935
C14   C     C_R   0.586157 0.589169 0.942694 0.220935
C15   C     C_R   0.419585 0.410453 0.910025 0.042129
C16   C     C_R   0.580439 0.589534 0.089979 0.042228
Cu1   Cu    Cu3+1 0.500000 0.500020 0.640660 1.002873
Cu2   Cu    Cu3+1 0.500000 0.499980 0.359340 1.002878
H1    H     H_    0.316346 0.107052 0.328392 0.165785
H2    H     H_    0.683615 0.892943 0.671577 0.165784
H3    H     H_    0.359524 0.338577 0.840299 0.146004
H4    H     H_    0.640514 0.661391 0.159718 0.146035
N1    N     N_R   0.500040 0.500030 0.852080 -0.184324
N2    N     N_R   0.499960 0.499970 0.147920 -0.184328
O1    O     O_R   0.499990 0.319660 0.618740 -0.558971
O2    O     O_R   0.500010 0.680340 0.381260 -0.558987
O3    O     O_R   0.499990 0.319630 0.381170 -0.611234
O4    O     O_R   0.500010 0.680370 0.618830 -0.611233
O5    O     O_R   0.274840 0.500010 0.591370 -0.553029
O6    O     O_R   0.725160 0.499990 0.408630 -0.553015
O7    O     O_R   0.274830 0.499980 0.353800 -0.556998
O8    O     O_R   0.725170 0.500020 0.646200 -0.557001
Br1   Br    Br    0.950493 0.478141 0.246429 -0.534099
Br2   Br    Br    0.049504 0.522021 0.753556 -0.534012
Br3   Br    Br    0.234056 0.842618 0.274415 -0.535273
Br4   Br    Br    0.765884 0.157370 0.725577 -0.535483
C17   C     C_3   0.317082 0.306018 0.109312 -0.429620
C18   C     C_3   0.157376 0.281509 0.022092 -0.354269
C19   C     C_3   0.063505 0.183326 0.089856 -0.725700
H5    H     H_    0.118492 0.092582 0.090378 0.257926
H6    H     H_    0.053025 0.211909 0.199873 0.264725
H7    H     H_    0.946967 0.171335 0.028732 0.286588
H8    H     H_    0.095930 0.369209 0.014410 0.300504
H9    H     H_    0.165262 0.246322 0.914023 0.239510
H10   H     H_    0.380867 0.219404 0.110350 0.200052
H11   H     H_    0.294664 0.326860 0.215739 0.268271
C20   C     C_3   0.682807 0.694041 0.890636 -0.429517
C21   C     C_3   0.842385 0.718875 0.977968 -0.354594
C22   C     C_3   0.936160 0.817046 0.910088 -0.726162
H12   H     H_    0.947121 0.788179 0.800292 0.264953
H13   H     H_    0.880800 0.907631 0.908989 0.258041
H14   H     H_    0.052495 0.829495 0.971491 0.286510
H15   H     H_    0.834273 0.754239 0.085912 0.239433
H16   H     H_    0.904028 0.631283 0.985935 0.300530
H17   H     H_    0.705413 0.673098 0.784300 0.268329
H18   H     H_    0.618834 0.780551 0.889352 0.200164

loop_
_geom_bond_atom_site_label_1
_geom_bond_atom_site_label_2
_ccdc_geom_bond_type
C14   N1    A    
C21   H16   S    
C18   H9    S    
C17   C18   S    
Cu2   O6    S    
Cu1   O5    S    
C16   N2    A    
C13   C17   S    
C20   C21   S    
Cu2   O2    S    
C3    O7    A    
C22   H14   S    
Cu1   O1    S    
C15   N1    A    
Cu1   Cu2   S    
C18   H8    S    
C2    O2    A    
Cu1   N1    S    
C1    O1    A    
C9    C11   A    
C3    O5    A    
C4    O8    A    
C1    C12   S    
C10   C12   A    
C8    H2    S    
C8    C11   A    
Cu2   N2    S    
C5    C6    D    
C4    C6    S    
C21   C22   S    
C14   C20   S    
C10   Br4   S    
C19   H7    S    
C7    H1    S    
C13   C15   A    
C21   H15   S    
C14   C16   A    
C7    C12   A    
C1    O3    A    
C2    C11   S    
C17   H10   S    
C15   H3    S    
C18   C19   S    
C19   H6    S    
C20   H17   S    
C22   H12   S    
C19   H5    S    
C7    C9    A    
Cu1   O8    S    
C9    Br3   S    
C2    O4    A    
Cu2   O7    S    
C3    C5    S    
C17   H11   S    
Cu1   O4    S    
C8    C10   A    
C4    O6    A    
Cu2   O3    S    
C6    Br2   S    
C13   N2    A    
C16   H4    S    
C20   H18   S    
C22   H13   S    
C5    Br1   S    
