data_mof_unit_37328.cif
_audit_creation_date              2012-12-10T20:35:49-0500
_audit_creation_method            fapswitch 2.2
_symmetry_space_group_name_H-M    P1
_symmetry_Int_Tables_number       1
_space_group_crystal_system       triclinic
_cell_length_a                    15.741701
_cell_length_b                    10.766421
_cell_length_c                    9.861918
_cell_angle_alpha                 89.804811
_cell_angle_beta                  90.224817
_cell_angle_gamma                 89.702546
_cell_volume                      1671.37021303

loop_
_atom_site_label
_atom_site_type_symbol
_atom_type_description
_atom_site_fract_x
_atom_site_fract_y
_atom_site_fract_z
_atom_type_partial_charge
C1    C     C_R   0.500134 0.260433 0.500172 0.881151
C2    C     C_3   0.953322 0.406210 0.625422 0.637990
C3    C     C_3   0.917129 0.495900 0.509532 -0.074338
C4    C     C_3   0.950168 0.633506 0.547944 0.565198
C5    C     C_3   0.049800 0.632595 0.545062 0.985848
C6    C     C_1   0.825639 0.495770 0.505842 0.101098
C7    C     C_1   0.174524 0.504413 0.500497 0.155560
C8    C     C_1   0.249711 0.503390 0.499373 -0.170834
C9    C     C_R   0.495964 0.061435 0.618485 -0.104760
C10   C     C_R   0.501059 0.129189 0.499117 -0.082808
C11   C     C_R   0.507235 0.065058 0.375128 -0.197952
C12   C     C_R   0.338380 0.501026 0.499794 0.883283
C13   C     C_R   0.507733 0.936053 0.374414 -0.193136
C14   C     C_R   0.501895 0.870642 0.497629 -0.095215
C15   C     C_R   0.496768 0.936782 0.616970 -0.023994
C16   C     C_3   0.486261 0.922724 0.766917 0.712530
C17   C     C_3   0.489124 0.067580 0.771135 0.313177
C18   C     C_R   0.426787 0.520891 0.071125 0.173444
C19   C     C_R   0.573618 0.486337 0.072261 -0.121201
C20   C     C_R   0.573588 0.485903 0.928551 -0.115040
C21   C     C_R   0.426744 0.523610 0.928111 0.214366
C22   C     C_3   0.347125 0.447984 0.923729 -0.042356
C23   C     C_R   0.500572 0.739496 0.499529 0.895304
C24   C     C_3   0.348587 0.443804 0.078398 -0.534385
C25   C     C_R   0.661648 0.499205 0.500262 0.900545
C26   C     C_3   0.053513 0.404640 0.612337 -0.123742
C27   C     C_3   0.048514 0.472953 0.360673 -0.606497
C28   C     C_3   0.951408 0.445156 0.364430 0.353508
C29   C     C_1   0.750347 0.497074 0.501779 -0.235338
C30   C     C_3   0.082923 0.502576 0.504286 -0.109313
H1    H     H_    0.079896 0.436298 0.711477 0.230187
H2    H     H_    0.511615 0.113660 0.279045 0.172589
H3    H     H_    0.512266 0.888491 0.278059 0.183775
H4    H     H_    0.632893 0.473461 0.126286 0.160944
H5    H     H_    0.632760 0.472364 0.875227 0.156938
H6    H     H_    0.358154 0.357019 0.874467 0.170460
H7    H     H_    0.296151 0.492555 0.131072 0.222861
H8    H     H_    0.361968 0.349802 0.120212 0.192095
H9    H     H_    0.061512 0.552345 0.291614 0.241225
H10   H     H_    0.085720 0.395194 0.316027 0.183739
N1    N     N_R   0.499430 0.499140 0.142800 -0.107624
N2    N     N_R   0.499430 0.499180 0.857150 -0.121406
O1    O     O_R   0.500010 0.316790 0.614690 -0.617199
O2    O     O_R   0.500000 0.316760 0.385350 -0.629916
O3    O     O_R   0.377150 0.500020 0.614720 -0.605948
O4    O     O_R   0.377140 0.499990 0.385380 -0.617035
O5    O     O_R   0.500000 0.683240 0.614650 -0.578054
O6    O     O_R   0.499990 0.683210 0.385310 -0.623646
O7    O     O_R   0.622860 0.500010 0.614620 -0.622959
O8    O     O_R   0.622850 0.499980 0.385280 -0.616605
Zn1   Zn    Zn3+2 0.500010 0.500020 0.653130 0.973885
Zn2   Zn    Zn3+2 0.499990 0.499980 0.346870 0.950953
N3    N     N_2   0.914433 0.282480 0.620682 -0.288953
H11   H     H_    0.947779 0.206931 0.585702 0.248426
C31   C     C_3   0.849516 0.251236 0.718420 -0.702732
H12   H     H_    0.817843 0.164139 0.686751 0.213878
H13   H     H_    0.800730 0.325858 0.724126 0.255112
H14   H     H_    0.878779 0.236427 0.819877 0.259452
F1    F     F_    0.935801 0.455721 0.752456 -0.679944
F2    F     F_    0.922162 0.721184 0.456014 -0.677437
N4    N     N_2   0.405474 0.868387 0.808831 -0.336467
H15   H     H_    0.411131 0.796315 0.877301 0.247750
C32   C     C_3   0.335032 0.855870 0.714323 -0.804082
H16   H     H_    0.340605 0.767098 0.658174 0.268923
H17   H     H_    0.331769 0.934150 0.641127 0.230471
H18   H     H_    0.274645 0.856216 0.771613 0.263159
F3    F     F_    0.555051 0.864217 0.828337 -0.674601
N5    N     N_2   0.410695 0.126481 0.817243 -0.326977
H19   H     H_    0.357998 0.114266 0.756506 0.227352
C33   C     C_3   0.393375 0.119578 0.961575 -0.804916
H20   H     H_    0.329273 0.158398 0.982329 0.231860
H21   H     H_    0.440732 0.174345 0.019272 0.237517
H22   H     H_    0.394926 0.022368 0.998822 0.263242
N6    N     N_2   0.564294 0.119626 0.838055 -0.256523
H23   H     H_    0.555383 0.209081 0.872524 0.241135
C34   C     C_3   0.647226 0.105223 0.776168 -0.730276
H24   H     H_    0.696918 0.130009 0.851352 0.228477
H25   H     H_    0.652848 0.168423 0.687410 0.217373
H26   H     H_    0.658898 0.008323 0.743334 0.285136
N7    N     N_2   0.091137 0.283178 0.584226 -0.311238
H27   H     H_    0.074324 0.238733 0.495942 0.245722
C35   C     C_3   0.111972 0.204505 0.699155 -0.763392
H28   H     H_    0.142025 0.117185 0.663086 0.251673
H29   H     H_    0.053930 0.181224 0.757266 0.256607
H30   H     H_    0.157856 0.252110 0.766875 0.231713
N8    N     N_2   0.274963 0.513775 0.863230 -0.263390
H31   H     H_    0.228229 0.455354 0.827928 0.234468
C36   C     C_3   0.241167 0.625047 0.925943 -0.682506
H32   H     H_    0.197588 0.600142 0.009891 0.226695
H33   H     H_    0.203787 0.678014 0.849755 0.287914
H34   H     H_    0.292718 0.685231 0.964603 0.224673
N9    N     N_2   0.941200 0.309031 0.354922 -0.324820
H35   H     H_    0.985336 0.265063 0.294413 0.220690
C37   C     C_3   0.857661 0.257144 0.327188 -0.750291
H36   H     H_    0.863068 0.154439 0.320284 0.241693
H37   H     H_    0.831676 0.291832 0.229291 0.242195
H38   H     H_    0.812394 0.276472 0.409705 0.257592
N10   N     N_2   0.910368 0.496287 0.241309 -0.303165
H39   H     H_    0.931132 0.452790 0.154183 0.241583
C38   C     C_3   0.891726 0.625703 0.215857 -0.604814
H40   H     H_    0.869254 0.636980 0.109516 0.207720
H41   H     H_    0.949626 0.683122 0.226535 0.288415
H42   H     H_    0.838139 0.656912 0.280008 0.282577
F4    F     F_    0.084221 0.662494 0.670720 -0.716162
F5    F     F_    0.078671 0.721397 0.453822 -0.630652
N11   N     N_2   0.922006 0.678703 0.681505 -0.232225
H43   H     H_    0.954883 0.756438 0.712372 0.273669
C39   C     C_3   0.832120 0.697688 0.706965 -0.630342
H44   H     H_    0.799548 0.738907 0.617257 0.251770
H45   H     H_    0.823574 0.762307 0.793598 0.212009
H46   H     H_    0.802116 0.609053 0.737488 0.255906

loop_
_geom_bond_atom_site_label_1
_geom_bond_atom_site_label_2
_ccdc_geom_bond_type
C31   H12   S    
C32   H17   S    
C18   C21   A    
C19   C20   A    
C34   H26   S    
C3    C6    S    
C7    C8    T    
C5    F5    S    
N3    H11   S    
N6    C34   S    
C18   C24   S    
C3    C28   S    
C34   H25   S    
N8    C36   S    
N11   H43   S    
O3    Zn1   S    
C15   C16   S    
N10   H39   S    
O4    Zn2   S    
C39   H44   S    
N4    C32   S    
C25   O8    A    
C38   H40   S    
C20   H5    S    
C1    O1    A    
C27   H9    S    
C16   C17   S    
O7    Zn1   S    
C24   H8    S    
C33   H20   S    
C9    C10   A    
N1    Zn2   S    
N2    Zn1   S    
O2    Zn2   S    
C5    F4    S    
C26   H1    S    
C7    C30   S    
C21   C22   S    
C27   C30   S    
N4    H15   S    
N9    C37   S    
N3    C31   S    
C25   C29   S    
C23   O5    A    
N6    H23   S    
C34   H24   S    
C12   O4    A    
C18   N1    A    
C2    F1    S    
N5    H19   S    
O5    Zn1   S    
C37   H38   S    
C4    N11   S    
C19   H4    S    
C38   H42   S    
C26   N7    S    
C32   H16   S    
C14   C23   S    
C13   H3    S    
C1    O2    A    
O8    Zn2   S    
C36   H34   S    
O6    Zn2   S    
C27   H10   S    
C8    C12   S    
C4    F2    S    
C33   H22   S    
C38   H41   S    
C24   H7    S    
C2    C26   S    
C16   F3    S    
C37   H37   S    
C9    C17   S    
C36   H33   S    
C11   H2    S    
C26   C30   S    
C35   H29   S    
C31   H13   S    
C17   N6    S    
C22   C24   S    
C16   N4    S    
C3    C4    S    
C5    C30   S    
C28   N10   S    
C17   N5    S    
C23   O6    A    
N8    H31   S    
C1    C10   S    
N7    H27   S    
C2    N3    S    
C20   N2    A    
C12   O3    A    
C35   H30   S    
C22   H6    S    
N10   C38   S    
C39   H46   S    
C2    C3    S    
C9    C15   A    
C11   C13   A    
O1    Zn1   S    
N11   C39   S    
N9    H35   S    
N7    C35   S    
C39   H45   S    
C22   N8    S    
C37   H36   S    
C25   O7    A    
C32   H18   S    
C10   C11   A    
C21   N2    A    
C28   N9    S    
C4    C5    S    
C6    C29   T    
C36   H32   S    
N5    C33   S    
C35   H28   S    
C31   H14   S    
C27   C28   S    
C14   C15   A    
C33   H21   S    
C13   C14   A    
C19   N1    A    
