data_mof_unit_16395.cif
_audit_creation_date              2012-12-11T16:51:25-0500
_audit_creation_method            fapswitch 2.2
_symmetry_space_group_name_H-M    P1
_symmetry_Int_Tables_number       1
_space_group_crystal_system       triclinic
_cell_length_a                    24.705349
_cell_length_b                    17.389941
_cell_length_c                    15.609551
_cell_angle_alpha                 90.017401
_cell_angle_beta                  128.779918
_cell_angle_gamma                 90.012998
_cell_volume                      5227.9040364

loop_
_atom_site_label
_atom_site_type_symbol
_atom_type_description
_atom_site_fract_x
_atom_site_fract_y
_atom_site_fract_z
_atom_type_partial_charge
C1    C     C_R   0.838677 0.878276 0.212892 0.674808
C2    C     C_R   0.182024 0.118126 0.499950 -0.146166
C3    C     C_3   0.408053 0.802269 0.531883 0.217211
C4    C     C_3   0.477185 0.799616 0.648442 -0.234978
C5    C     C_3   0.538524 0.792353 0.648017 -0.996262
C6    C     C_3   0.131288 0.296176 0.549909 0.201888
C7    C     C_3   0.057113 0.306024 0.443481 -0.176185
C8    C     C_3   0.004697 0.306058 0.464563 -1.090337
C9    C     C_3   0.846954 0.309017 0.456605 0.202063
C10   C     C_3   0.886098 0.317690 0.580053 -0.389761
C11   C     C_3   0.962350 0.297185 0.646942 -0.760723
C12   C     C_3   0.728628 0.168047 0.933579 0.179155
C13   C     C_R   0.322567 0.628119 0.500852 -0.148791
C14   C     C_3   0.683029 0.096365 0.894537 -0.230487
C15   C     C_3   0.666798 0.063581 0.789961 -0.825244
C16   C     C_3   0.283948 0.150567 0.047749 0.220817
C17   C     C_3   0.341509 0.181912 0.162951 -0.354191
C18   C     C_3   0.368540 0.120009 0.250435 -0.745567
C19   C     C_3   0.208949 0.540262 0.929917 0.216916
C20   C     C_3   0.153366 0.542415 0.804223 -0.324910
C21   C     C_3   0.144409 0.463855 0.753112 -0.909636
C22   C     C_3   0.784060 0.541648 0.070520 0.202489
C23   C     C_3   0.832970 0.545607 0.196807 -0.348743
C24   C     C_R   0.677760 0.627308 0.499247 -0.155365
C25   C     C_3   0.836754 0.468563 0.247140 -0.841941
C26   C     C_R   0.880949 0.178644 0.203714 -0.487291
C27   C     C_R   0.126559 0.170614 0.812909 -0.504618
C28   C     C_R   0.356830 0.637466 0.145401 -0.524608
C29   C     C_R   0.642060 0.639911 0.852380 -0.523724
C30   C     C_R   0.798362 0.780976 0.573147 -0.138783
C31   C     C_R   0.201619 0.781323 0.426939 -0.133186
C32   C     C_R   0.318752 0.258281 0.591005 -0.162646
C33   C     C_R   0.160756 0.877001 0.785843 0.677350
C34   C     C_R   0.668738 0.247549 0.397591 -0.196363
C35   C     C_R   0.817413 0.764439 0.508135 -0.094977
C36   C     C_R   0.182264 0.764364 0.491443 -0.098835
C37   C     C_R   0.325894 0.253068 0.509367 -0.082800
C38   C     C_R   0.667460 0.248462 0.486209 -0.056677
C39   C     C_R   0.796481 0.696100 0.447308 0.748931
C40   C     C_R   0.203264 0.695985 0.552098 0.749658
C41   C     C_R   0.292999 0.193277 0.431664 0.736128
C42   C     C_R   0.709455 0.195658 0.572641 0.726341
C43   C     C_R   0.247980 0.143736 0.430760 -0.170252
C44   C     C_R   0.332589 0.399530 0.196538 0.656785
C45   C     C_R   0.758888 0.152301 0.576600 -0.173574
C46   C     C_R   0.750840 0.647684 0.445102 -0.196480
C47   C     C_R   0.249184 0.647926 0.554563 -0.172706
C48   C     C_R   0.235890 0.155748 0.506395 0.048574
C49   C     C_R   0.769237 0.166441 0.498969 0.067696
C50   C     C_R   0.727097 0.669832 0.502596 0.040415
C51   C     C_R   0.273205 0.670495 0.497615 0.036423
C52   C     C_R   0.273158 0.211406 0.587752 -0.164044
C53   C     C_R   0.724492 0.216411 0.412932 -0.328999
C54   C     C_R   0.752392 0.734685 0.568536 -0.160854
C55   C     C_R   0.666861 0.396500 0.801725 0.673956
C56   C     C_R   0.247920 0.735406 0.431916 -0.162973
C57   C     C_3   0.712876 0.801105 0.566834 0.848817
C58   C     C_3   0.287471 0.802165 0.434443 0.850392
C59   C     C_3   0.245593 0.275600 0.615199 0.863664
C60   C     C_3   0.727675 0.275601 0.345512 0.922375
C61   C     C_R   0.091727 0.861470 0.406801 0.757818
C62   C     C_R   0.907918 0.861733 0.593071 0.756410
C63   C     C_R   0.582689 0.354146 0.408118 0.804023
C64   C     C_R   0.412735 0.356990 0.591987 0.780929
C65   C     C_3   0.765901 0.852619 0.576280 1.229645
C66   C     C_R   0.887335 0.107902 0.592387 0.803574
C67   C     C_3   0.234044 0.853259 0.424416 1.223797
C68   C     C_3   0.298113 0.326811 0.623381 1.224366
C69   C     C_3   0.661506 0.306730 0.320076 1.313074
C70   C     C_2   0.165625 0.773460 0.901157 0.897966
C71   C     C_2   0.832686 0.775559 0.096036 0.898932
C72   C     C_2   0.690745 0.347049 0.975162 0.880470
C73   C     C_2   0.308613 0.355207 0.020535 0.875635
C74   C     C_2   0.203751 0.726787 0.889124 -0.422458
C75   C     C_2   0.794827 0.729110 0.108870 -0.416096
C76   C     C_2   0.757508 0.334375 0.024445 -0.526313
C77   C     C_R   0.115340 0.102108 0.408933 0.844050
C78   C     C_2   0.244141 0.334743 0.976297 -0.507015
C79   C     C_2   0.854727 0.249519 0.141975 0.646176
C80   C     C_2   0.154272 0.239566 0.879720 0.631432
C81   C     C_2   0.313864 0.675147 0.038260 0.725315
C82   C     C_2   0.684411 0.679233 0.958103 0.720402
C83   C     C_2   0.786046 0.258793 0.068343 0.533968
C84   C     C_2   0.221879 0.256276 0.939496 0.537689
C85   C     C_2   0.244534 0.665468 0.966705 0.441619
C86   C     C_2   0.753396 0.668106 0.031429 0.449828
C87   C     C_R   0.165777 0.860082 0.590106 -0.102195
C88   C     C_R   0.387555 0.608474 0.591858 0.786088
C89   C     C_R   0.834138 0.860109 0.409700 -0.097615
C90   C     C_R   0.661307 0.355964 0.590027 -0.144061
C91   C     C_R   0.336897 0.357405 0.408841 -0.088797
C92   C     C_R   0.070937 0.874699 0.786798 -0.081562
C93   C     C_R   0.928466 0.875657 0.211902 -0.080066
C94   C     C_R   0.578134 0.398326 0.805237 0.042526
C95   C     C_R   0.421062 0.402442 0.192918 0.074803
C96   C     C_R   0.864005 0.843397 0.165663 -0.322386
C97   C     C_R   0.134927 0.841628 0.832071 -0.321214
C98   C     C_R   0.351239 0.387230 0.130601 -0.443559
C99   C     C_R   0.612605 0.608084 0.408207 0.794139
C100  C     C_R   0.647828 0.381342 0.866490 -0.418973
C101  C     C_R   0.143487 0.820543 0.496757 -0.085099
C102  C     C_R   0.856154 0.820788 0.503008 -0.088892
C103  C     C_R   0.634675 0.312314 0.496514 -0.113272
C104  C     C_R   0.360791 0.315379 0.501930 -0.097372
C105  C     C_R   0.813731 0.106095 0.410453 -0.049133
C106  C     C_R   0.187816 0.100501 0.590521 -0.070777
C107  C     C_R   0.314525 0.608239 0.408887 -0.080947
C108  C     C_R   0.685660 0.607736 0.591161 -0.099488
C109  C     C_R   0.939678 0.138720 0.238256 0.732788
C110  C     C_R   0.822090 0.129161 0.502145 -0.194016
C111  C     C_R   0.065771 0.132756 0.773967 0.752398
C112  C     C_R   0.424782 0.612941 0.202536 0.739487
C113  C     C_R   0.574493 0.614479 0.796033 0.736508
C114  C     C_R   0.153216 0.134628 0.767749 0.653662
C115  C     C_R   0.850488 0.138909 0.240049 0.681422
C116  C     C_R   0.662738 0.617010 0.792122 0.720660
C117  C     C_R   0.336839 0.615868 0.207040 0.721800
C118  C     C_3   0.592438 0.800441 0.470698 0.220102
C119  C     C_3   0.523069 0.797045 0.354483 -0.239579
C120  C     C_3   0.462190 0.788474 0.355842 -0.992782
F1    F     F_    0.770882 0.882018 0.168749 -0.669076
F2    F     F_    0.260858 0.901077 0.513945 -0.698658
F3    F     F_    0.268974 0.385941 0.546985 -0.702972
F4    F     F_    0.667127 0.382391 0.353146 -0.688141
F5    F     F_    0.808969 0.890745 0.675922 -0.583394
F6    F     F_    0.191137 0.891357 0.324795 -0.582286
F7    F     F_    0.350599 0.351577 0.729414 -0.559137
F8    F     F_    0.603284 0.294277 0.212093 -0.551200
F9    F     F_    0.899735 0.307461 0.167672 -0.677966
F10   F     F_    0.109488 0.290880 0.870819 -0.686249
F11   F     F_    0.344858 0.728706 0.018038 -0.609636
F12   F     F_    0.228646 0.880151 0.830429 -0.668955
F13   F     F_    0.653608 0.735394 0.975077 -0.614489
F14   F     F_    0.154983 0.757904 0.975040 -0.575605
F15   F     F_    0.842420 0.760045 0.021074 -0.576719
F16   F     F_    0.658260 0.307476 0.006749 -0.549901
F17   F     F_    0.341614 0.322447 0.985208 -0.545969
F18   F     F_    0.070879 0.853682 0.303875 -0.649179
F19   F     F_    0.928382 0.854342 0.695802 -0.649567
F20   F     F_    0.542755 0.331158 0.302219 -0.670715
F21   F     F_    0.446778 0.338051 0.698475 -0.650756
F22   F     F_    0.981581 0.156339 0.213246 -0.590405
F23   F     F_    0.267587 0.410009 0.163097 -0.697580
F24   F     F_    0.027746 0.145391 0.807575 -0.579574
F25   F     F_    0.458464 0.608893 0.160006 -0.562252
F26   F     F_    0.540732 0.611227 0.838464 -0.564068
F27   F     F_    0.209535 0.155109 0.777547 -0.619261
F28   F     F_    0.791940 0.158244 0.224202 -0.612683
F29   F     F_    0.726572 0.624495 0.820218 -0.601770
F30   F     F_    0.273461 0.623950 0.180374 -0.601076
F31   F     F_    0.907547 0.097767 0.694671 -0.598735
F32   F     F_    0.095143 0.089875 0.306905 -0.591209
F33   F     F_    0.409642 0.604859 0.695932 -0.593533
F34   F     F_    0.732080 0.404804 0.835249 -0.703809
F35   F     F_    0.590179 0.604905 0.303904 -0.593518
F36   F     F_    0.817304 0.678738 0.387140 -0.709564
F37   F     F_    0.182257 0.678266 0.611915 -0.703269
F38   F     F_    0.300444 0.186524 0.353016 -0.708323
F39   F     F_    0.705869 0.189795 0.655671 -0.710881
F40   F     F_    0.716424 0.803764 0.659425 -0.655848
F41   F     F_    0.284481 0.805171 0.342392 -0.654733
F42   F     F_    0.259420 0.265218 0.715661 -0.605421
F43   F     F_    0.717840 0.247215 0.253836 -0.575462
F44   F     F_    0.738604 0.900506 0.486719 -0.693253
H1    H     H_    0.220058 0.099702 0.368169 0.232949
H2    H     H_    0.789076 0.847161 0.326990 0.237343
H3    H     H_    0.704221 0.341171 0.673756 0.239313
H4    H     H_    0.294422 0.342907 0.324611 0.232408
H5    H     H_    0.043006 0.867207 0.818053 0.266621
H6    H     H_    0.956321 0.868455 0.180446 0.265946
H7    H     H_    0.550512 0.403417 0.837862 0.253031
H8    H     H_    0.448985 0.408950 0.160903 0.253093
H9    H     H_    0.764829 0.101007 0.328532 0.257659
H10   H     H_    0.235903 0.094943 0.673321 0.251036
H11   H     H_    0.266795 0.608402 0.325333 0.250582
H12   H     H_    0.790951 0.111690 0.642820 0.235856
H13   H     H_    0.733324 0.607918 0.674804 0.249524
H14   H     H_    0.592117 0.850640 0.514584 0.159405
H15   H     H_    0.598967 0.746380 0.514505 0.114799
H16   H     H_    0.516088 0.850575 0.309628 0.253001
H17   H     H_    0.523294 0.747537 0.309708 0.246102
H18   H     H_    0.467436 0.734798 0.399029 0.240464
H19   H     H_    0.412899 0.785857 0.270236 0.313333
H20   H     H_    0.459890 0.838704 0.397291 0.272934
H21   H     H_    0.408225 0.852530 0.487967 0.160612
H22   H     H_    0.402142 0.748149 0.488572 0.113981
H23   H     H_    0.732266 0.595535 0.396376 0.213900
H24   H     H_    0.483350 0.853017 0.692976 0.252084
H25   H     H_    0.477238 0.749831 0.693086 0.248135
H26   H     H_    0.534221 0.738711 0.605483 0.241900
H27   H     H_    0.587635 0.790484 0.733860 0.316005
H28   H     H_    0.540420 0.842768 0.606411 0.270320
H29   H     H_    0.144603 0.345006 0.606164 0.157845
H30   H     H_    0.134090 0.241222 0.588911 0.154200
H31   H     H_    0.052891 0.361070 0.403489 0.254465
H32   H     H_    0.044582 0.258178 0.386510 0.238048
H33   H     H_    0.008158 0.251578 0.504889 0.253585
H34   H     H_    0.267731 0.595706 0.603051 0.215680
H35   H     H_    0.951379 0.311361 0.385405 0.305762
H36   H     H_    0.014656 0.355713 0.517356 0.277504
H37   H     H_    0.871343 0.347597 0.432764 0.154214
H38   H     H_    0.851015 0.250123 0.434201 0.117080
H39   H     H_    0.881857 0.378092 0.598653 0.249699
H40   H     H_    0.862299 0.280368 0.605949 0.224387
H41   H     H_    0.968694 0.241622 0.619239 0.214299
H42   H     H_    0.984649 0.292107 0.734198 0.355028
H43   H     H_    0.990481 0.343110 0.639837 0.253321
H44   H     H_    0.778248 0.152031 0.950515 0.115306
H45   H     H_    0.211484 0.738478 0.829085 0.189552
H46   H     H_    0.701111 0.212090 0.867103 0.134328
H47   H     H_    0.710209 0.051900 0.960125 0.233430
H48   H     H_    0.633548 0.111200 0.878217 0.247489
H49   H     H_    0.637903 0.106420 0.722420 0.284891
H50   H     H_    0.634221 0.011228 0.764483 0.265275
H51   H     H_    0.715540 0.047758 0.804551 0.296178
H52   H     H_    0.301412 0.095146 0.036956 0.182410
H53   H     H_    0.236666 0.137258 0.039386 0.076007
H54   H     H_    0.385351 0.203334 0.166686 0.265099
H55   H     H_    0.320842 0.230595 0.180829 0.213278
H56   H     H_    0.787975 0.740533 0.169986 0.183026
H57   H     H_    0.325256 0.095411 0.245735 0.300257
H58   H     H_    0.407333 0.145508 0.333229 0.271973
H59   H     H_    0.393936 0.073181 0.238725 0.248281
H60   H     H_    0.195166 0.494011 0.961844 0.198256
H61   H     H_    0.260887 0.525551 0.954307 0.055118
H62   H     H_    0.102922 0.560624 0.782226 0.240938
H63   H     H_    0.168467 0.584684 0.769191 0.235382
H64   H     H_    0.194529 0.443755 0.775606 0.289480
H65   H     H_    0.105811 0.468126 0.662226 0.268891
H66   H     H_    0.125299 0.421202 0.781549 0.287807
H67   H     H_    0.786883 0.370459 0.010737 0.215186
H68   H     H_    0.801625 0.494094 0.046356 0.194286
H69   H     H_    0.729879 0.528036 0.037017 0.059831
H70   H     H_    0.885912 0.562154 0.227730 0.244415
H71   H     H_    0.814105 0.589714 0.224006 0.241413
H72   H     H_    0.784174 0.450038 0.215822 0.289263
H73   H     H_    0.870332 0.474284 0.337905 0.269719
H74   H     H_    0.859449 0.424040 0.227143 0.286424
H75   H     H_    0.213810 0.367248 0.991565 0.218870
H76   H     H_    0.211093 0.847334 0.672625 0.238915
N1    N     N_R   0.888400 0.921830 0.294620 -0.116050
N2    N     N_R   0.874350 0.922400 0.443380 -0.096830
N3    N     N_R   0.625650 0.422400 0.556620 -0.087142
N4    N     N_R   0.374350 0.422400 0.443380 -0.090886
N5    N     N_R   0.054230 0.922730 0.705400 -0.103611
N6    N     N_R   0.945770 0.922730 0.294600 -0.103839
N7    N     N_R   0.554230 0.422730 0.705400 -0.115813
N8    N     N_R   0.445770 0.422730 0.294600 -0.115381
N9    N     N_R   0.873790 0.077030 0.443380 -0.115118
N10   N     N_R   0.126210 0.077030 0.556620 -0.116248
N11   N     N_R   0.373790 0.577030 0.443380 -0.105913
N12   N     N_R   0.111600 0.921830 0.705380 -0.116287
N13   N     N_R   0.626210 0.577030 0.556620 -0.104918
N14   N     N_R   0.945200 0.076700 0.294600 -0.166322
N15   N     N_R   0.054800 0.076700 0.705400 -0.171145
N16   N     N_R   0.445200 0.576700 0.294600 -0.186112
N17   N     N_R   0.554800 0.576700 0.705400 -0.183857
N18   N     N_R   0.111030 0.077600 0.705380 -0.157130
N19   N     N_R   0.888970 0.077600 0.294620 -0.158082
N20   N     N_R   0.611030 0.577600 0.705380 -0.167748
N21   N     N_R   0.388970 0.577600 0.294620 -0.167808
N22   N     N_R   0.919490 0.077280 0.556590 -0.150721
N23   N     N_R   0.388400 0.421830 0.294620 -0.114620
N24   N     N_R   0.080510 0.077280 0.443410 -0.156972
N25   N     N_R   0.419490 0.577280 0.556590 -0.149465
N26   N     N_R   0.580510 0.577280 0.443410 -0.149226
N27   N     N_R   0.611600 0.421830 0.705380 -0.112610
N28   N     N_R   0.079940 0.922160 0.443410 -0.125858
N29   N     N_R   0.920060 0.922160 0.556590 -0.122515
N30   N     N_R   0.579940 0.422160 0.443410 -0.117665
N31   N     N_R   0.420060 0.422160 0.556590 -0.125870
N32   N     N_R   0.125650 0.922400 0.556620 -0.098401
Ni1   Ni    Ni4+2 0.882160 0.999430 0.370180 0.266131
Ni2   Ni    Ni4+2 0.117840 0.999430 0.629820 0.259713
Ni3   Ni    Ni4+2 0.382160 0.499430 0.370180 0.273145
Ni4   Ni    Ni4+2 0.617840 0.499430 0.629820 0.266862
Ni5   Ni    Ni4+2 0.012460 0.999430 0.370180 0.304645
Ni6   Ni    Ni4+2 0.987540 0.999430 0.629820 0.306102
Ni7   Ni    Ni4+2 0.512460 0.499430 0.370180 0.295458
Ni8   Ni    Ni4+2 0.487540 0.499430 0.629820 0.293687
O1    O     O_3   0.646038 0.809403 0.463144 -0.676619
O2    O     O_3   0.354046 0.810571 0.538586 -0.677390
O3    O     O_3   0.176466 0.295397 0.523692 -0.694602
O4    O     O_3   0.778520 0.334444 0.401594 -0.666972
O5    O     O_3   0.741279 0.196236 0.029539 -0.559585
O6    O     O_3   0.271371 0.201505 0.966257 -0.533218
O7    O     O_3   0.210043 0.609297 0.978629 -0.553147
O8    O     O_3   0.787516 0.608997 0.023556 -0.554696

loop_
_geom_bond_atom_site_label_1
_geom_bond_atom_site_label_2
_ccdc_geom_bond_type
N30   Ni7   S    
C55   F34   S    
C79   C83   D    
C105  C110  A    
C67   F2    S    
C99   N26   A    
C78   H75   S    
C77   N24   A    
C89   C102  A    
N18   Ni2   S    
N4    N31   A    
C63   F20   S    
N16   Ni7   S    
C35   C39   A    
C6    O3    S    
C91   C104  A    
C15   H49   S    
C35   C102  S    
C44   N23   A    
C72   C100  S    
C95   C98   A    
C79   F9    S    
C7    C8    S    
C12   O5    S    
C28   C112  A    
C31   C67   S    
C30   C54   A    
C50   C54   A    
C20   H63   S    
C107  H11   S    
C14   H47   S    
C16   H53   S    
C12   H44   S    
C52   C59   S    
C63   N30   A    
N11   Ni3   S    
C114  F27   S    
C38   C42   A    
C48   C52   A    
C28   C117  A    
C1    C96   A    
C44   C98   A    
C71   F15   S    
C108  N13   A    
N14   Ni5   S    
C61   F18   S    
C81   F11   S    
C34   C69   S    
C64   F21   S    
N22   Ni6   S    
C109  N14   A    
C60   F43   S    
C20   H62   S    
C112  F25   S    
C77   F32   S    
C51   C56   A    
C119  H17   S    
N1    Ni1   S    
N7    Ni8   S    
C16   H52   S    
C18   H57   S    
C118  C119  S    
C32   C52   A    
N8    Ni7   S    
C84   O6    S    
N2    Ni1   S    
C13   C51   S    
C23   H70   S    
C57   O1    S    
C3    O2    S    
N26   Ni7   S    
C42   F39   S    
C69   F8    S    
C16   C17   S    
C99   F35   S    
C55   C100  A    
C70   C74   D    
N4    Ni3   S    
C73   C78   D    
C60   O4    S    
C47   H34   S    
C117  F30   S    
C24   C108  A    
C11   H42   S    
C45   C49   A    
N9    N22   A    
C9    C10   S    
N11   N25   A    
C33   C97   A    
C116  N20   A    
C70   C97   S    
C13   C107  A    
C32   C68   S    
N8    N23   A    
N7    N27   A    
C118  H15   S    
C46   C50   A    
N10   Ni2   S    
N15   N18   A    
C27   C111  A    
C87   C101  A    
N16   N21   A    
C111  N15   A    
C41   C43   A    
C8    H33   S    
C113  N17   A    
C15   H50   S    
C18   H58   S    
C3    H21   S    
C68   F3    S    
C116  F29   S    
C53   C60   S    
C92   C97   A    
N24   Ni5   S    
C17   H55   S    
C43   H1    S    
C24   C50   S    
C73   C98   S    
C93   H6    S    
C75   H56   S    
N27   Ni4   S    
C120  H18   S    
C90   N3    A    
C74   H45   S    
N1    N6    A    
N2    N29   A    
N28   N32   A    
C40   F37   S    
C36   C40   A    
C24   C99   A    
C80   F10   S    
C5    H27   S    
C118  O1    S    
C63   C103  A    
C27   C80   S    
C10   C11   S    
C67   F6    S    
C80   C84   D    
C95   N8    A    
C34   C38   A    
C47   C51   A    
C71   C96   S    
C58   O2    S    
C90   H3    S    
C2    C48   S    
C82   C86   D    
C40   C47   A    
N28   Ni5   S    
C2    C106  A    
C9    O4    S    
C36   C101  S    
C42   C45   A    
C65   F5    S    
C113  F26   S    
N6    Ni5   S    
C61   C101  A    
C61   N28   A    
C38   C103  S    
C64   N31   A    
C25   H74   S    
C59   C68   S    
C22   H69   S    
C120  H20   S    
C94   C100  A    
C91   H4    S    
C75   C86   S    
C117  N21   A    
C89   N2    A    
C94   H7    S    
C25   H73   S    
C92   H5    S    
C119  C120  S    
C43   C48   A    
C21   H65   S    
C20   C21   S    
C76   H67   S    
C95   H8    S    
C17   C18   S    
C106  H10   S    
C55   N27   A    
C72   C76   D    
C45   H12   S    
C32   C37   A    
C66   C110  A    
N14   N19   A    
C18   H59   S    
C114  N18   A    
C68   F7    S    
N10   N24   A    
N5    Ni6   S    
C9    H37   S    
C111  F24   S    
C34   C53   A    
C39   C46   A    
C1    N1    A    
C33   F12   S    
C15   H51   S    
N31   Ni8   S    
C57   F40   S    
C12   C14   S    
C93   C96   A    
N23   Ni3   S    
N15   Ni6   S    
C62   F19   S    
N9    Ni1   S    
C89   H2    S    
C8    H36   S    
C65   F44   S    
C119  H16   S    
C46   H23   S    
C7    H31   S    
C3    C4    S    
C3    H22   S    
C76   C83   S    
C6    H30   S    
C33   N12   A    
N29   Ni6   S    
C94   N7    A    
C26   C115  A    
C64   C104  A    
C21   H64   S    
C29   C113  A    
C87   H76   S    
C85   O7    S    
C28   C81   S    
C31   C36   A    
C86   O8    S    
C4    H25   S    
N5    N12   A    
C22   C23   S    
C19   H60   S    
C22   O8    S    
C5    H28   S    
C57   C65   S    
C4    C5    S    
N13   Ni4   S    
C83   O5    S    
C5    H26   S    
C37   C104  S    
C29   C116  A    
C92   N5    A    
N25   Ni8   S    
C6    C7    S    
N21   Ni3   S    
C107  N11   A    
N13   N26   A    
C118  H14   S    
C30   C35   A    
C16   O6    S    
C87   N32   A    
C26   C79   S    
C69   F4    S    
C14   H48   S    
C39   F36   S    
N17   N20   A    
C88   F33   S    
C4    H24   S    
C19   C20   S    
C59   O3    S    
C19   H61   S    
N3    N30   A    
C23   H71   S    
C66   F31   S    
C59   F42   S    
C115  N19   A    
C19   O7    S    
C71   C75   D    
C9    H38   S    
C106  N10   A    
C10   H39   S    
C73   F17   S    
C60   C69   S    
C82   F13   S    
C44   F23   S    
C49   C53   A    
C21   H66   S    
C115  F28   S    
C13   C88   A    
C105  N9    A    
C56   C58   S    
C108  H13   S    
N19   Ni1   S    
C31   C56   A    
C26   C109  A    
C23   C25   S    
C74   C85   S    
C37   C41   A    
C88   N25   A    
C120  H19   S    
C1    F1    S    
C90   C103  A    
C30   C65   S    
C72   F16   S    
C93   N6    A    
C62   N29   A    
C12   H46   S    
C41   F38   S    
N20   Ni4   S    
C27   C114  A    
C78   C84   S    
C58   C67   S    
C29   C82   S    
C22   H68   S    
C91   N4    A    
N17   Ni8   S    
N32   Ni2   S    
C70   F14   S    
C2    C77   A    
C14   C15   S    
C8    H35   S    
C105  H9    S    
C11   H43   S    
C11   H41   S    
C112  N16   A    
C7    H32   S    
C66   N22   A    
C58   F41   S    
N12   Ni2   S    
N3    Ni4   S    
C25   H72   S    
C6    H29   S    
C81   C85   D    
C17   H54   S    
C109  F22   S    
C49   C110  S    
C62   C102  A    
C54   C57   S    
C10   H40   S    
