data_mof_unit_7008.cif
_audit_creation_date              2012-12-10T19:46:53-0500
_audit_creation_method            fapswitch 2.2
_symmetry_space_group_name_H-M    P1
_symmetry_Int_Tables_number       1
_space_group_crystal_system       triclinic
_cell_length_a                    10.896577
_cell_length_b                    10.890472
_cell_length_c                    13.107457
_cell_angle_alpha                 90.128662
_cell_angle_beta                  90.612921
_cell_angle_gamma                 90.012697
_cell_volume                      1555.3541003

loop_
_atom_site_label
_atom_site_type_symbol
_atom_type_description
_atom_site_fract_x
_atom_site_fract_y
_atom_site_fract_z
_atom_type_partial_charge
C1    C     C_R   0.506517 0.259598 0.499707 0.822054
C2    C     C_R   0.492572 0.740329 0.500303 0.819783
C3    C     C_R   0.872974 0.509032 0.501967 -0.098435
C4    C     C_R   0.126964 0.492429 0.497830 -0.097627
C5    C     C_R   0.941299 0.531109 0.592344 0.018485
C6    C     C_R   0.058655 0.472351 0.407148 0.015150
C7    C     C_R   0.574133 0.158844 0.136118 -0.142516
C8    C     C_R   0.421685 0.845183 0.864862 -0.127332
C9    C     C_R   0.527684 0.104839 0.224365 -0.157707
C10   C     C_R   0.467357 0.899645 0.776529 -0.162351
C11   C     C_R   0.590372 0.117786 0.318006 0.128834
C12   C     C_R   0.407285 0.882190 0.682185 0.125609
C13   C     C_R   0.701444 0.183450 0.321646 -0.105977
C14   C     C_R   0.298585 0.812605 0.678239 -0.100335
C15   C     C_R   0.748015 0.236547 0.233009 -0.131892
C16   C     C_R   0.252438 0.759522 0.767072 -0.131598
C17   C     C_R   0.684174 0.224695 0.140449 -0.114652
C18   C     C_R   0.314390 0.775030 0.860106 -0.119265
C19   C     C_R   0.531297 0.933114 0.413419 -0.243900
C20   C     C_R   0.466258 0.066899 0.586466 -0.244277
C21   C     C_R   0.491157 0.872912 0.501120 -0.096809
C22   C     C_R   0.506834 0.127018 0.498876 -0.096300
C23   C     C_R   0.259588 0.492858 0.499201 0.821882
C24   C     C_R   0.740347 0.507712 0.500750 0.822631
C25   C     C_R   0.456531 0.940041 0.588603 -0.002009
C26   C     C_R   0.540989 0.059892 0.411368 -0.002869
C27   C     C_1   0.500167 0.500137 0.173540 0.148220
C28   C     C_1   0.500031 0.500050 0.826460 0.158308
C29   C     C_1   0.500273 0.500235 0.050685 -0.065204
C30   C     C_1   0.500164 0.500159 0.949307 -0.037658
C31   C     C_R   0.148448 0.483156 0.129215 -0.159503
C32   C     C_R   0.855069 0.546907 0.871438 -0.232869
C33   C     C_R   0.101670 0.516942 0.224083 -0.226400
C34   C     C_R   0.903800 0.505358 0.779355 -0.206410
C35   C     C_R   0.114074 0.438415 0.308221 0.125495
C36   C     C_R   0.885930 0.572932 0.689365 0.125523
C37   C     C_R   0.173673 0.325256 0.296275 -0.151001
C38   C     C_R   0.819950 0.683462 0.693075 -0.175030
C39   C     C_R   0.220037 0.291106 0.201290 -0.204082
C40   C     C_R   0.771016 0.724868 0.785022 -0.127340
C41   C     C_R   0.206443 0.368666 0.116261 0.343930
C42   C     C_R   0.789183 0.657742 0.875506 0.341770
C43   C     C_R   0.932124 0.481874 0.410533 -0.253652
C44   C     C_R   0.067764 0.519477 0.589317 -0.254770
Cu1   Cu    Cu3+1 0.499990 0.499990 0.592680 0.976155
Cu2   Cu    Cu3+1 0.500010 0.500010 0.407320 0.977795
H1    H     H_    0.751764 0.193273 0.392922 0.104535
H2    H     H_    0.249737 0.799747 0.606596 0.103956
H3    H     H_    0.833831 0.286473 0.235876 0.123541
H4    H     H_    0.168341 0.706839 0.764088 0.123283
H5    H     H_    0.559290 0.880911 0.347013 0.157026
H6    H     H_    0.438227 0.119267 0.652768 0.156383
H7    H     H_    0.139288 0.547049 0.066610 0.133761
H8    H     H_    0.869378 0.492888 0.939813 0.126462
H9    H     H_    0.055884 0.604666 0.232107 0.141161
H10   H     H_    0.955110 0.420212 0.778064 0.141457
H11   H     H_    0.183423 0.263216 0.360337 0.122958
H12   H     H_    0.806086 0.737406 0.624569 0.121009
H13   H     H_    0.265538 0.203298 0.193765 0.120180
H14   H     H_    0.718569 0.808913 0.784925 0.130105
H15   H     H_    0.879320 0.465316 0.341296 0.155391
H16   H     H_    0.120665 0.535963 0.658451 0.153779
H17   H     H_    0.720130 0.266280 0.072042 0.120882
H18   H     H_    0.278889 0.733205 0.928588 0.122948
H19   H     H_    0.524958 0.149419 0.064335 0.121860
H20   H     H_    0.469213 0.857780 0.937072 0.141429
H21   H     H_    0.442595 0.053601 0.219972 0.115402
H22   H     H_    0.549893 0.954824 0.781452 0.112746
N1    N     N_1   0.500030 0.500030 0.268070 -0.131315
N2    N     N_1   0.499970 0.499970 0.731930 -0.134462
O1    O     O_R   0.499980 0.319630 0.578260 -0.587977
O2    O     O_R   0.500020 0.680370 0.421740 -0.587188
O3    O     O_R   0.500000 0.319650 0.421740 -0.566646
O4    O     O_R   0.500000 0.680350 0.578260 -0.567929
O5    O     O_R   0.319630 0.500000 0.578260 -0.587060
O6    O     O_R   0.680370 0.500000 0.421740 -0.586645
O7    O     O_R   0.319650 0.500020 0.421740 -0.567183
O8    O     O_R   0.680350 0.499980 0.578260 -0.567544
N3    N     N_2   0.255646 0.332255 0.020195 -0.432854
H23   H     H_    0.295737 0.246437 0.019235 0.239931
C45   C     C_3   0.183367 0.358713 0.929462 -0.720705
H24   H     H_    0.227189 0.315933 0.862012 0.227631
H25   H     H_    0.179301 0.459041 0.915375 0.228641
H26   H     H_    0.089193 0.320826 0.936937 0.222298
N4    N     N_2   0.737330 0.697667 0.969451 -0.438044
H27   H     H_    0.746591 0.636137 0.028785 0.245193
C46   C     C_3   0.763428 0.822901 0.000052 -0.724097
H28   H     H_    0.721614 0.841347 0.075475 0.231550
H29   H     H_    0.723244 0.889146 0.944928 0.224118
H30   H     H_    0.864172 0.837378 0.006558 0.228181

loop_
_geom_bond_atom_site_label_1
_geom_bond_atom_site_label_2
_ccdc_geom_bond_type
C33   H9    S    
C46   H28   S    
C34   H10   S    
C40   H14   S    
Cu1   O1    S    
Cu2   O6    S    
C45   H24   S    
C39   C41   A    
N4    H27   S    
C8    H20   S    
C3    C43   A    
C1    O1    A    
C19   C21   A    
C16   H4    S    
C27   C29   S    
C20   C25   A    
C5    C36   S    
C6    C35   S    
C7    C9    A    
C19   C26   A    
Cu2   N1    S    
C38   H12   S    
C7    C17   A    
C31   C33   A    
Cu1   O8    S    
Cu2   O2    S    
C27   N1    T    
C40   C42   A    
C1    C22   S    
C3    C24   S    
C2    O2    A    
C32   H8    S    
C45   H25   S    
N4    C46   S    
C4    C6    A    
C23   O5    A    
N3    C45   S    
C4    C23   S    
C24   O6    A    
C14   H2    S    
C4    C44   A    
C11   C26   S    
C44   H16   S    
Cu1   Cu2   S    
C31   H7    S    
Cu1   O4    S    
C32   C34   A    
C9    H21   S    
C29   C30   T    
C7    H19   S    
C39   H13   S    
C2    C21   S    
C42   N4    S    
C23   O7    A    
C9    C11   A    
C10   C12   A    
C24   O8    A    
C5    C44   A    
C12   C14   A    
C6    C43   A    
C13   C15   A    
C14   C16   A    
C45   H26   S    
C43   H15   S    
C13   H1    S    
C15   C17   A    
C21   C25   A    
C31   C41   A    
C35   C37   A    
Cu1   N2    S    
C8    C10   A    
C28   N2    T    
C20   C22   A    
C3    C5    A    
C2    O4    A    
C41   N3    S    
Cu2   O7    S    
C10   H22   S    
C12   C25   S    
Cu1   O5    S    
C1    O3    A    
C16   C18   A    
C36   C38   A    
C37   C39   A    
C17   H17   S    
C38   C40   A    
C11   C13   A    
C18   H18   S    
C28   C30   S    
C33   C35   A    
C34   C36   A    
C15   H3    S    
C8    C18   A    
N3    H23   S    
C19   H5    S    
C20   H6    S    
C22   C26   A    
C46   H30   S    
C46   H29   S    
C32   C42   A    
Cu2   O3    S    
C37   H11   S    
