data_mof_unit_7821.cif
_audit_creation_date              2012-10-26T20:20:48-0400
_audit_creation_method            fapswitch 2.2
_symmetry_space_group_name_H-M    P1
_symmetry_Int_Tables_number       1
_space_group_crystal_system       triclinic
_cell_length_a                    8.743632
_cell_length_b                    10.743265
_cell_length_c                    9.632312
_cell_angle_alpha                 89.95051
_cell_angle_beta                  97.615804
_cell_angle_gamma                 92.05673
_cell_volume                      896.246718561

loop_
_atom_site_label
_atom_site_type_symbol
_atom_type_description
_atom_site_fract_x
_atom_site_fract_y
_atom_site_fract_z
_atom_type_partial_charge
C1    C     C_R   0.501270 0.262865 0.500193 0.556538
C2    C     C_R   0.636393 0.066960 0.558799 -0.054385
C3    C     C_R   0.496509 0.871142 0.499347 -0.082342
C4    C     C_R   0.503485 0.128857 0.500654 -0.082336
C5    C     C_R   0.397018 0.425439 0.061911 0.093202
C6    C     C_R   0.602974 0.574566 0.938088 0.093211
C7    C     C_R   0.397336 0.425034 0.913471 0.120778
C8    C     C_R   0.602659 0.574969 0.086528 0.120774
C9    C     C_2   0.219585 0.862182 0.382729 0.347797
C10   C     C_2   0.780411 0.137818 0.617270 0.347824
C11   C     C_2   0.287691 0.340798 0.122964 0.346196
C12   C     C_R   0.498726 0.737135 0.499807 0.556548
C13   C     C_2   0.712276 0.659227 0.877032 0.346207
C14   C     C_2   0.290285 0.337759 0.826935 0.324154
C15   C     C_2   0.709703 0.662251 0.173062 0.324147
C16   C     C_R   0.204439 0.497661 0.464548 0.592915
C17   C     C_R   0.795561 0.502339 0.535452 0.592930
C18   C     C_2   0.039128 0.486088 0.446897 0.380402
C19   C     C_2   0.960872 0.513911 0.553103 0.380411
C20   C     C_R   0.369020 0.063211 0.442664 0.375459
C21   C     C_R   0.630975 0.936788 0.557338 0.375463
C22   C     C_R   0.363601 0.933039 0.441203 -0.054386
Cu1   Cu    Cu3+1 0.500000 0.500020 0.640660 1.060965
Cu2   Cu    Cu3+1 0.500000 0.499980 0.359340 1.060945
F1    F     F_    0.967533 0.438217 0.323273 -0.548787
F2    F     F_    0.032467 0.561781 0.676728 -0.548778
F3    F     F_    0.242614 0.127394 0.391298 -0.559984
F4    F     F_    0.757385 0.872605 0.608692 -0.559953
H1    H     H_    0.212366 0.761532 0.389250 0.104385
H2    H     H_    0.787654 0.238467 0.610694 0.104368
H3    H     H_    0.327433 0.256273 0.174710 0.149928
H4    H     H_    0.672514 0.743773 0.825340 0.149860
H5    H     H_    0.333100 0.256146 0.781430 0.117518
H6    H     H_    0.666875 0.743882 0.218540 0.117488
N1    N     N_R   0.500040 0.500030 0.852080 -0.286351
N2    N     N_R   0.499960 0.499970 0.147920 -0.286352
O1    O     O_R   0.499990 0.319660 0.618740 -0.552547
O2    O     O_2   0.893456 0.085012 0.673599 -0.350150
O3    O     O_2   0.150435 0.362322 0.109473 -0.322698
O4    O     O_2   0.849533 0.637705 0.890476 -0.322687
O5    O     O_2   0.151428 0.352604 0.812851 -0.380124
O6    O     O_2   0.848565 0.647395 0.187166 -0.380118
O7    O     O_R   0.500010 0.680340 0.381260 -0.552545
O8    O     O_R   0.499990 0.319630 0.381170 -0.505506
O9    O     O_R   0.500010 0.680370 0.618830 -0.505489
O10   O     O_R   0.274840 0.500010 0.591370 -0.468927
O11   O     O_R   0.725160 0.499990 0.408630 -0.468910
O12   O     O_R   0.274830 0.499980 0.353800 -0.458479
O13   O     O_R   0.725170 0.500020 0.646200 -0.458441
O14   O     O_2   0.106511 0.914989 0.326465 -0.350140

loop_
_geom_bond_atom_site_label_1
_geom_bond_atom_site_label_2
_ccdc_geom_bond_type
C2    C10   S    
C2    C4    A    
Cu1   Cu2   S    
Cu1   O9    S    
C20   F3    S    
C1    O1    A    
C12   O7    A    
C10   H2    S    
C1    O8    A    
C9    H1    S    
C10   O2    D    
C1    C4    S    
C16   O12   A    
C14   H5    S    
C13   H4    S    
C11   H3    S    
Cu1   O10   S    
C6    C13   S    
C11   O3    D    
Cu2   N2    S    
C18   F1    S    
C2    C21   A    
C14   O5    D    
C17   C19   S    
C21   F4    S    
C20   C22   A    
C5    C11   S    
C8    C15   S    
Cu1   N1    S    
Cu2   O8    S    
C9    C22   S    
C3    C21   A    
Cu1   O13   S    
C16   O10   A    
C4    C20   A    
C5    N2    A    
C6    N1    A    
C19   F2    S    
C16   C18   S    
C18   C19   D    
C8    N2    A    
C17   O13   A    
C5    C7    A    
Cu2   O7    S    
C3    C22   A    
C6    C8    A    
C3    C12   S    
C15   H6    S    
Cu1   O1    S    
Cu2   O11   S    
C7    N1    A    
C7    C14   S    
C9    O14   D    
C17   O11   A    
C15   O6    D    
C12   O9    A    
C13   O4    D    
Cu2   O12   S    
