data_mof_unit_25321.cif
_audit_creation_date              2012-12-10T20:26:32-0500
_audit_creation_method            fapswitch 2.2
_symmetry_space_group_name_H-M    P1
_symmetry_Int_Tables_number       1
_space_group_crystal_system       triclinic
_cell_length_a                    10.742003
_cell_length_b                    10.67217
_cell_length_c                    9.863989
_cell_angle_alpha                 90.027211
_cell_angle_beta                  90.211269
_cell_angle_gamma                 90.131954
_cell_volume                      1130.80163643

loop_
_atom_site_label
_atom_site_type_symbol
_atom_type_description
_atom_site_fract_x
_atom_site_fract_y
_atom_site_fract_z
_atom_type_partial_charge
C1    C     C_R   0.503833 0.259994 0.500077 0.924732
C2    C     C_R   0.523190 0.128661 0.501139 -0.096338
C3    C     C_R   0.551827 0.064930 0.380932 -0.163251
C4    C     C_R   0.551431 0.935326 0.380813 -0.224688
C5    C     C_R   0.522984 0.871517 0.501123 -0.094471
C6    C     C_R   0.518266 0.936249 0.623519 0.118276
C7    C     C_3   0.425295 0.929009 0.735766 -0.451573
C8    C     C_3   0.425147 0.071064 0.735521 -0.423336
C9    C     C_R   0.437466 0.408660 0.070921 0.184100
C10   C     C_R   0.570506 0.582941 0.072317 -0.140943
C11   C     C_R   0.570563 0.582902 0.928348 -0.117389
C12   C     C_R   0.262601 0.498016 0.499646 0.958560
C13   C     C_R   0.437203 0.409363 0.928172 0.152172
C14   C     C_3   0.301092 0.384191 0.920055 -0.565611
C15   C     C_3   0.300385 0.383195 0.074214 0.288797
C16   C     C_R   0.503641 0.740057 0.500054 0.872527
C17   C     C_R   0.737399 0.503707 0.500173 0.928749
C18   C     C_2   0.932916 0.509569 0.385667 -0.140637
C19   C     C_2   0.868798 0.518116 0.500890 -0.334200
C20   C     C_2   0.066810 0.517245 0.387070 -0.113129
C21   C     C_2   0.130961 0.488382 0.498818 -0.299073
C22   C     C_R   0.518194 0.063980 0.623457 0.105391
H1    H     H_    0.887248 0.497206 0.288062 0.181482
H2    H     H_    0.465591 0.112530 0.829261 0.238855
H3    H     H_    0.625504 0.651529 0.126923 0.149501
H4    H     H_    0.625577 0.651494 0.874281 0.147627
H5    H     H_    0.248349 0.464174 0.876397 0.186208
H6    H     H_    0.280946 0.292296 0.871606 0.239558
H7    H     H_    0.245648 0.460884 0.119098 0.072508
H8    H     H_    0.911720 0.539284 0.597918 0.150971
H9    H     H_    0.112675 0.545201 0.293922 0.160304
H10   H     H_    0.088113 0.454373 0.591123 0.145377
H11   H     H_    0.566197 0.114154 0.286257 0.203665
H12   H     H_    0.565121 0.886212 0.285896 0.169990
H13   H     H_    0.335105 0.887281 0.702955 0.207444
H14   H     H_    0.465793 0.888284 0.829771 0.207495
H15   H     H_    0.334922 0.112031 0.702377 0.208330
N1    N     N_R   0.499170 0.499140 0.142800 -0.141359
N2    N     N_R   0.499170 0.499180 0.857150 -0.102198
O1    O     O_R   0.500020 0.316790 0.614690 -0.623465
O2    O     O_R   0.500000 0.316760 0.385350 -0.579035
O3    O     O_R   0.319080 0.500020 0.614640 -0.629113
O4    O     O_R   0.319070 0.499980 0.385300 -0.602845
O5    O     O_R   0.500000 0.683240 0.614650 -0.624297
O6    O     O_R   0.499980 0.683210 0.385310 -0.632654
O7    O     O_R   0.680930 0.500020 0.614700 -0.620107
O8    O     O_R   0.680920 0.499980 0.385360 -0.622950
Zn1   Zn    Zn3+2 0.500010 0.500020 0.653130 0.952147
Zn2   Zn    Zn3+2 0.499990 0.499980 0.346870 0.978050
S1    S     S_3+6 0.263551 0.232137 0.142456 0.018648
O9    O     O_2   0.257458 0.239652 0.294329 -0.295571
O10   O     O_2   0.139128 0.190692 0.088322 -0.293374
O11   O     O_3   0.372834 0.127893 0.096762 -0.598756
H16   H     H_    0.345360 0.047393 0.136790 0.378901

loop_
_geom_bond_atom_site_label_1
_geom_bond_atom_site_label_2
_ccdc_geom_bond_type
C16   O6    A    
C2    C22   A    
C8    C22   S    
C6    C7    S    
C8    H2    S    
C14   H5    S    
C7    H14   S    
C16   O5    A    
S1    O10   D    
C11   H4    S    
O6    Zn2   S    
C10   N1    A    
C2    C3    A    
C9    C15   S    
C7    C8    S    
O8    Zn2   S    
N1    Zn2   S    
O3    Zn1   S    
C13   C14   S    
C17   O7    A    
C11   N2    A    
C10   H3    S    
O2    Zn2   S    
C9    N1    A    
C17   C19   S    
C15   H7    S    
C12   O4    A    
C18   C20   S    
C5    C6    A    
C21   H10   S    
C4    H12   S    
C13   N2    A    
S1    O11   S    
C10   C11   A    
C3    H11   S    
C18   H1    S    
C6    C22   A    
O7    Zn1   S    
C17   O8    A    
O5    Zn1   S    
C20   C21   D    
C1    C2    S    
C8    H15   S    
C15   S1    S    
C1    O2    A    
O1    Zn1   S    
C9    C13   A    
C14   C15   S    
C18   C19   D    
C5    C16   S    
C12   O3    A    
S1    O9    D    
C1    O1    A    
C14   H6    S    
O11   H16   S    
C19   H8    S    
C7    H13   S    
C12   C21   S    
O4    Zn2   S    
C3    C4    A    
C4    C5    A    
N2    Zn1   S    
C20   H9    S    
