data_mof_unit_17078.cif
_audit_creation_date              2012-12-10T17:34:53-0500
_audit_creation_method            fapswitch 2.2
_symmetry_space_group_name_H-M    P1
_symmetry_Int_Tables_number       1
_space_group_crystal_system       triclinic
_cell_length_a                    12.089511
_cell_length_b                    12.906197
_cell_length_c                    15.682213
_cell_angle_alpha                 91.745759
_cell_angle_beta                  88.257934
_cell_angle_gamma                 94.58501
_cell_volume                      2436.96654446

loop_
_atom_site_label
_atom_site_type_symbol
_atom_type_description
_atom_site_fract_x
_atom_site_fract_y
_atom_site_fract_z
_atom_type_partial_charge
C1    C     C_R   0.522684 0.699839 0.497737 0.878728
C2    C     C_R   0.537442 0.811082 0.498077 -0.148554
C3    C     C_R   0.625350 0.967672 0.559567 -0.175322
C4    C     C_R   0.501561 0.498840 0.661399 0.881184
C5    C     C_R   0.621615 0.861713 0.545919 -0.323816
C6    C     C_R   0.457582 0.866564 0.460479 0.451524
C7    C     C_R   0.457776 0.972853 0.477758 -0.062932
C8    C     C_R   0.545897 0.024769 0.523419 0.000332
C9    C     C_R   0.553457 0.132887 0.531481 0.354120
C10   C     C_R   0.367537 0.132499 0.472473 0.436338
C11   C     C_R   0.369223 0.026897 0.453103 -0.315363
C12   C     C_3   0.398930 0.554218 0.049274 0.282790
C13   C     C_R   0.952809 0.458130 0.394951 -0.398157
C14   C     C_R   0.837356 0.445752 0.409013 0.542466
C15   C     C_R   0.858811 0.514666 0.551010 0.495278
C16   C     C_R   0.477478 0.299508 0.503181 0.937689
C17   C     C_R   0.976867 0.512965 0.542898 -0.181081
C18   C     C_R   0.023272 0.489001 0.461700 -0.183407
C19   C     C_R   0.139892 0.493600 0.448893 0.597190
C20   C     C_R   0.165300 0.539609 0.594634 -0.253937
C21   C     C_R   0.049339 0.537016 0.611835 0.416132
C22   C     C_R   0.497721 0.498629 0.338586 0.882777
C23   C     C_3   0.487772 0.486806 0.082630 0.047137
C24   C     C_3   0.414454 0.560666 0.950678 0.145983
C25   C     C_3   0.621538 0.521719 0.954142 0.926566
C26   C     C_3   0.603032 0.534742 0.053018 -0.554486
C27   C     C_1   0.490911 0.493222 0.249828 -0.175970
C28   C     C_3   0.502907 0.484307 0.917413 -0.037709
C29   C     C_3   0.212793 0.583564 0.078633 0.080405
C30   C     C_3   0.098780 0.531465 0.059120 -0.854764
C31   C     C_3   0.739262 0.189273 0.520199 0.119130
C32   C     C_3   0.837914 0.232123 0.572003 -0.840975
C33   C     C_3   0.182702 0.153566 0.501810 0.065423
C34   C     C_3   0.469663 0.373370 0.046923 -0.543980
C35   C     C_3   0.173147 0.227868 0.578654 -0.813107
C36   C     C_3   0.416710 0.804210 0.327427 0.092126
C37   C     C_3   0.327986 0.746804 0.273385 -0.801451
C38   C     C_3   0.192875 0.371425 0.350532 0.131552
C39   C     C_3   0.195351 0.350971 0.254474 -0.860740
C40   C     C_3   0.381497 0.705282 0.870399 0.106095
C41   C     C_3   0.434816 0.809057 0.840450 -0.812404
C42   C     C_3   0.076500 0.607278 0.750523 0.078250
C43   C     C_3   0.012933 0.637947 0.830795 -0.862653
C44   C     C_3   0.806183 0.321269 0.299413 0.061345
C45   C     C_3   0.462531 0.370725 0.946310 0.818582
C46   C     C_3   0.707725 0.257486 0.260947 -0.828741
C47   C     C_3   0.818219 0.659862 0.627287 0.163920
C48   C     C_3   0.745116 0.699662 0.699958 -0.821602
C49   C     C_3   0.747966 0.436713 0.858596 0.205207
C50   C     C_3   0.842366 0.365618 0.860220 -0.838307
C51   C     C_3   0.733647 0.690452 0.956958 0.129647
C52   C     C_3   0.829821 0.648330 0.003587 -0.963229
C53   C     C_3   0.273911 0.288381 0.959629 0.058143
C54   C     C_3   0.179788 0.248807 0.902026 -0.842974
C55   C     C_3   0.504471 0.195946 0.916712 0.145291
C56   C     C_1   0.485877 0.488841 0.174519 0.001787
C57   C     C_3   0.598491 0.131736 0.885374 -0.853426
C58   C     C_1   0.505345 0.487849 0.825309 0.059071
C59   C     C_1   0.504626 0.492897 0.750039 -0.177912
C60   C     C_R   0.463985 0.186907 0.504516 -0.266448
H1    H     H_    0.413089 0.633689 0.079467 0.099676
H2    H     H_    0.758235 0.112192 0.492609 0.111032
H3    H     H_    0.820083 0.307273 0.603658 0.282953
H4    H     H_    0.854743 0.176380 0.621682 0.241915
H5    H     H_    0.912690 0.244582 0.529495 0.192976
H6    H     H_    0.180412 0.072215 0.524168 0.136631
H7    H     H_    0.107869 0.157381 0.463045 0.144763
H8    H     H_    0.167091 0.308138 0.556957 0.255840
H9    H     H_    0.097422 0.204362 0.617425 0.205595
H10   H     H_    0.246764 0.226191 0.619097 0.257216
H11   H     H_    0.689578 0.003973 0.599715 0.182970
H12   H     H_    0.332631 0.534931 0.922161 0.145709
H13   H     H_    0.299390 0.987303 0.420620 0.201545
H14   H     H_    0.681901 0.819342 0.575728 0.173621
H15   H     H_    0.490948 0.758132 0.324763 0.117729
H16   H     H_    0.439056 0.881639 0.299316 0.130580
H17   H     H_    0.252540 0.790634 0.274290 0.245449
H18   H     H_    0.359832 0.739047 0.206579 0.178295
H19   H     H_    0.305946 0.668041 0.298438 0.297288
H20   H     H_    0.122279 0.321424 0.378565 0.117468
H21   H     H_    0.271301 0.347977 0.375476 0.236376
H22   H     H_    0.263247 0.400827 0.223799 0.297853
H23   H     H_    0.230297 0.648571 0.033850 0.123173
H24   H     H_    0.209382 0.268172 0.240182 0.211389
H25   H     H_    0.115113 0.367833 0.227594 0.235705
H26   H     H_    0.299017 0.717796 0.900507 0.118346
H27   H     H_    0.369939 0.652502 0.813370 0.133555
H28   H     H_    0.517166 0.798159 0.809543 0.263765
H29   H     H_    0.381101 0.841850 0.793569 0.201095
H30   H     H_    0.445771 0.864570 0.895623 0.242587
H31   H     H_    0.223130 0.555568 0.644776 0.167451
H32   H     H_    0.987004 0.442035 0.332009 0.194491
H33   H     H_    0.112533 0.680018 0.720430 0.127858
H34   H     H_    0.210922 0.615895 0.145020 0.177606
H35   H     H_    0.143283 0.559735 0.770954 0.142572
H36   H     H_    0.980663 0.566637 0.863538 0.260057
H37   H     H_    0.069180 0.684984 0.874310 0.201622
H38   H     H_    0.943501 0.684385 0.814882 0.261404
H39   H     H_    0.849548 0.269736 0.340934 0.107499
H40   H     H_    0.863261 0.348293 0.246300 0.149883
H41   H     H_    0.664262 0.305798 0.217250 0.260784
H42   H     H_    0.736900 0.189370 0.224368 0.202415
H43   H     H_    0.648561 0.229475 0.312394 0.240238
H44   H     H_    0.792741 0.690639 0.566109 0.117680
H45   H     H_    0.077899 0.465698 0.102198 0.259485
H46   H     H_    0.904922 0.691474 0.638242 0.146928
H47   H     H_    0.761828 0.661480 0.759852 0.276985
H48   H     H_    0.762792 0.784898 0.709545 0.183435
H49   H     H_    0.656150 0.683094 0.685380 0.247019
H50   H     H_    0.783832 0.512971 0.836024 0.188839
H51   H     H_    0.688014 0.401806 0.811904 0.189304
H52   H     H_    0.809508 0.285870 0.876933 0.262084
H53   H     H_    0.884628 0.362512 0.796392 0.243275
H54   H     H_    0.903754 0.394987 0.908234 0.239250
H55   H     H_    0.685377 0.740948 0.000041 0.153518
H56   H     H_    0.035466 0.588620 0.068720 0.222521
H57   H     H_    0.771553 0.743928 0.908145 0.156852
H58   H     H_    0.856503 0.575944 0.973248 0.294067
H59   H     H_    0.901977 0.707272 0.003187 0.225469
H60   H     H_    0.806943 0.634207 0.071423 0.244435
H61   H     H_    0.608591 0.617044 0.075575 0.162953
H62   H     H_    0.668709 0.496912 0.086295 0.215754
H63   H     H_    0.237761 0.337458 0.010639 0.222531
H64   H     H_    0.306871 0.220134 0.988236 0.104139
H65   H     H_    0.211730 0.198478 0.849658 0.252990
H66   H     H_    0.114771 0.202924 0.939542 0.207634
H67   H     H_    0.097614 0.501725 0.991901 0.249448
H68   H     H_    0.142230 0.315405 0.874043 0.263996
H69   H     H_    0.432205 0.174054 0.875944 0.178228
H70   H     H_    0.484604 0.176043 0.984208 0.107110
H71   H     H_    0.671101 0.147788 0.926791 0.251585
H72   H     H_    0.571012 0.047648 0.887564 0.204564
H73   H     H_    0.623317 0.151242 0.818607 0.274861
H74   H     H_    0.397716 0.332971 0.080589 0.168875
H75   H     H_    0.541972 0.331251 0.064945 0.195007
H76   H     H_    0.731361 0.240739 0.465940 0.180421
N1    N     N_R   0.207800 0.519340 0.515510 -0.151338
N2    N     N_R   0.792190 0.480660 0.484490 -0.177688
O1    O     O_R   0.421690 0.658830 0.504140 -0.559098
O2    O     O_3   0.642006 0.185239 0.573533 -0.588762
O3    O     O_3   0.277280 0.184346 0.450110 -0.637334
O4    O     O_3   0.374898 0.815717 0.411928 -0.600645
O5    O     O_3   0.185406 0.478800 0.367878 -0.610944
O6    O     O_3   0.450765 0.664829 0.930119 -0.600701
O7    O     O_3   0.004514 0.547920 0.694705 -0.575148
O8    O     O_3   0.767019 0.407876 0.345011 -0.570492
O9    O     O_3   0.809425 0.549958 0.625736 -0.551429
O10   O     O_3   0.698457 0.443245 0.941629 -0.631747
O11   O     O_3   0.661821 0.615800 0.912525 -0.640035
O12   O     O_R   0.609320 0.646410 0.494190 -0.647455
O13   O     O_3   0.354620 0.347785 0.910543 -0.640142
O14   O     O_3   0.538877 0.302449 0.908900 -0.604053
O15   O     O_R   0.406150 0.506210 0.627840 -0.645670
O16   O     O_R   0.593770 0.493790 0.617880 -0.553845
O17   O     O_R   0.390680 0.353590 0.505810 -0.603349
O18   O     O_R   0.578310 0.341170 0.495860 -0.588398
O19   O     O_R   0.406230 0.506210 0.382120 -0.589322
O20   O     O_R   0.593850 0.493790 0.372160 -0.551734
O21   O     O_3   0.291718 0.508488 0.071421 -0.634958
Zn1   Zn    Zn3+2 0.374720 0.508290 0.506640 0.977473
Zn2   Zn    Zn3+2 0.625280 0.491710 0.493360 1.009841

loop_
_geom_bond_atom_site_label_1
_geom_bond_atom_site_label_2
_ccdc_geom_bond_type
C41   H29   S    
C42   H33   S    
C38   O5    S    
C57   H72   S    
C4    O16   A    
C43   H38   S    
C23   C56   S    
C29   O21   S    
C30   H56   S    
C53   C54   S    
C25   C28   S    
C7    C11   A    
C46   H42   S    
C12   C23   S    
C33   H7    S    
C38   H20   S    
C13   C18   A    
C34   H75   S    
C40   H27   S    
C36   C37   S    
C39   H24   S    
C29   H23   S    
C29   H34   S    
C9    O2    S    
C48   H47   S    
C34   H74   S    
C25   O11   S    
C1    C2    S    
C16   C60   S    
C23   C26   S    
C40   H26   S    
C5    H14   S    
O12   Zn2   S    
C36   O4    S    
C36   H16   S    
O20   Zn2   S    
C51   H57   S    
C14   N2    A    
C35   H10   S    
C8    C9    A    
C55   H69   S    
C45   O14   S    
C16   O18   A    
C44   O8    S    
C26   H61   S    
C6    O4    S    
C1    O1    A    
C49   H51   S    
C15   N2    A    
C47   H46   S    
C4    O15   A    
C13   C14   A    
C31   H2    S    
C57   H73   S    
C2    C6    A    
C54   H65   S    
C44   C46   S    
C33   H6    S    
C43   H36   S    
C38   C39   S    
C46   H41   S    
C47   O9    S    
C28   C45   S    
C42   H35   S    
C24   C28   S    
C7    C8    A    
C32   H4    S    
C3    C8    A    
C11   H13   S    
C27   C56   T    
C18   C19   A    
C22   O20   A    
C33   O3    S    
C58   C59   T    
C37   H17   S    
C51   H55   S    
C51   C52   S    
C49   O10   S    
C50   H54   S    
C10   O3    S    
C21   O7    S    
C20   N1    A    
C3    H11   S    
C29   C30   S    
C36   H15   S    
C37   H19   S    
C47   C48   S    
C19   N1    A    
C55   H70   S    
C16   O17   A    
C50   H52   S    
C17   C18   A    
C1    O12   A    
C34   C45   S    
C51   O11   S    
C52   H60   S    
C40   C41   S    
O1    Zn1   S    
O19   Zn1   S    
C22   C27   S    
C55   C57   S    
C13   H32   S    
C53   H63   S    
C2    C5    A    
C42   C43   S    
C39   H25   S    
C24   H12   S    
C37   H18   S    
C15   C17   A    
C41   H28   S    
C14   O8    S    
C30   H67   S    
C23   C34   S    
C19   O5    S    
C47   H44   S    
N1    Zn1   S    
O17   Zn1   S    
C42   O7    S    
C44   H39   S    
C57   H71   S    
C31   C32   S    
C43   H37   S    
C39   H22   S    
C31   H76   S    
C3    C5    A    
C53   H64   S    
O18   Zn2   S    
C6    C7    A    
C22   O19   A    
C28   C58   S    
C32   H3    S    
C46   H43   S    
C12   C24   S    
C30   H45   S    
C50   H53   S    
C9    C60   A    
O15   Zn1   S    
C40   O6    S    
C25   C26   S    
C38   H21   S    
C15   O9    S    
C12   H1    S    
C44   H40   S    
C48   H48   S    
C54   H68   S    
C35   H8    S    
C24   O6    S    
C4    C59   S    
C33   C35   S    
C48   H49   S    
N2    Zn2   S    
C12   O21   S    
C17   C21   A    
C10   C60   A    
C10   C11   A    
C54   H66   S    
C52   H59   S    
C20   H31   S    
C20   C21   A    
C35   H9    S    
C49   C50   S    
O16   Zn2   S    
C53   O13   S    
C49   H50   S    
C26   H62   S    
C55   O14   S    
C31   O2    S    
C25   O10   S    
C45   O13   S    
C41   H30   S    
C32   H5    S    
C52   H58   S    
