data_mof_unit_36342.cif
_audit_creation_date              2012-12-11T14:34:00-0500
_audit_creation_method            fapswitch 2.2
_symmetry_space_group_name_H-M    P1
_symmetry_Int_Tables_number       1
_space_group_crystal_system       triclinic
_cell_length_a                    13.848855
_cell_length_b                    13.974975
_cell_length_c                    27.315406
_cell_angle_alpha                 89.973624
_cell_angle_beta                  90.08738
_cell_angle_gamma                 119.627266
_cell_volume                      4595.38201513

loop_
_atom_site_label
_atom_site_type_symbol
_atom_type_description
_atom_site_fract_x
_atom_site_fract_y
_atom_site_fract_z
_atom_type_partial_charge
C1    C     C_R   0.233895 0.787233 0.568751 0.539727
C2    C     C_1   0.706723 0.862426 0.860211 -0.078372
C3    C     C_1   0.113320 0.881195 0.852492 -0.077771
C4    C     C_1   0.114303 0.230664 0.852168 -0.078150
C5    C     C_1   0.628807 0.814521 0.659038 -0.075881
C6    C     C_1   0.176884 0.819438 0.656254 -0.076172
C7    C     C_1   0.178564 0.358108 0.656314 -0.076290
C8    C     C_1   0.601167 0.796193 0.616741 -0.017534
C9    C     C_1   0.199025 0.806415 0.615125 -0.017841
C10   C     C_1   0.192960 0.393041 0.615179 -0.018003
C11   C     C_R   0.064825 0.150296 0.095968 0.579373
C12   C     C_R   0.212572 0.446475 0.568783 0.542667
C13   C     C_R   0.777474 0.884047 0.088371 0.547450
C14   C     C_R   0.116494 0.893624 0.088133 0.560528
C15   C     C_R   0.069304 0.160342 0.943230 0.540371
C16   C     C_R   0.779551 0.887073 0.950807 0.542159
C17   C     C_R   0.090642 0.929753 0.943371 0.537220
C18   C     C_R   0.618544 0.895734 0.361541 -0.133050
C19   C     C_R   0.097093 0.732571 0.362884 -0.134664
C20   C     C_R   0.264290 0.357508 0.363821 -0.135460
C21   C     C_R   0.644854 0.911330 0.311904 0.014197
C22   C     C_R   0.080518 0.744039 0.313209 0.014320
C23   C     C_R   0.552812 0.765292 0.569024 0.539407
C24   C     C_R   0.241300 0.306570 0.317735 0.013947
C25   C     C_R   0.681118 0.929160 0.210389 0.017115
C26   C     C_R   0.060592 0.759945 0.211540 0.016970
C27   C     C_R   0.200673 0.225691 0.221013 0.016962
C28   C     C_R   0.232481 0.788346 0.431825 0.547590
C29   C     C_R   0.211684 0.444483 0.431381 0.549640
C30   C     C_R   0.555616 0.767228 0.431914 0.548580
C31   C     C_R   0.653512 0.000848 0.234513 -0.138011
C32   C     C_R   0.977373 0.670891 0.237609 -0.127789
C33   C     C_R   0.303027 0.256524 0.243617 -0.123975
C34   C     C_3   0.658903 0.734221 0.790338 -0.212436
C35   C     C_R   0.635191 0.991841 0.285015 -0.130945
C36   C     C_R   0.987901 0.662279 0.288109 -0.128869
C37   C     C_R   0.323336 0.296994 0.291595 -0.128792
C38   C     C_R   0.704066 0.939551 0.160121 -0.150358
C39   C     C_R   0.050691 0.771073 0.161159 -0.135440
C40   C     C_R   0.182872 0.194962 0.171532 -0.128773
C41   C     C_R   0.728858 0.864788 0.137099 -0.003127
C42   C     C_R   0.135402 0.861251 0.136227 -0.005058
C43   C     C_R   0.082769 0.172439 0.148638 -0.008874
C44   C     C_R   0.658998 0.745016 0.364159 -0.131488
C45   C     C_3   0.243744 0.954091 0.783113 -0.212097
C46   C     C_R   0.266014 0.910871 0.361953 -0.128504
C47   C     C_R   0.076137 0.327900 0.368045 -0.130405
C48   C     C_R   0.683122 0.757827 0.314608 0.013462
C49   C     C_R   0.254295 0.920486 0.312232 0.013848
C50   C     C_R   0.052639 0.278878 0.321984 0.011737
C51   C     C_R   0.673564 0.839588 0.288050 0.063958
C52   C     C_R   0.162320 0.835938 0.287438 0.063337
C53   C     C_R   0.136114 0.270217 0.296172 0.062620
C54   C     C_R   0.708299 0.684535 0.290597 -0.126857
C55   C     C_R   0.337642 0.009607 0.286475 -0.127159
C56   C     C_3   0.055050 0.311251 0.785675 -0.212012
C57   C     C_R   0.949167 0.245033 0.300075 -0.129213
C58   C     C_R   0.720162 0.689586 0.240109 -0.127149
C59   C     C_R   0.331839 0.013303 0.235869 -0.129497
C60   C     C_R   0.930219 0.207824 0.251878 -0.122550
C61   C     C_R   0.710189 0.769989 0.213556 0.010946
C62   C     C_R   0.240717 0.929971 0.210929 0.014302
C63   C     C_R   0.013348 0.201520 0.225405 0.016566
C64   C     C_3   0.564840 0.853576 0.737389 -0.212985
C65   C     C_3   0.141938 0.733899 0.738700 -0.214636
C66   C     C_3   0.271929 0.390592 0.737025 -0.215135
C67   C     C_3   0.638834 0.721530 0.734316 -0.213115
C68   C     C_R   0.688762 0.846684 0.237350 0.065263
C69   C     C_R   0.154315 0.841926 0.236635 0.063834
C70   C     C_R   0.116110 0.230640 0.247785 0.062032
C71   C     C_R   0.724692 0.776546 0.163553 -0.123007
C72   C     C_R   0.232811 0.935959 0.160751 -0.132635
C73   C     C_R   0.997181 0.171730 0.176196 -0.129400
C74   C     C_R   0.618766 0.808010 0.386758 -0.003363
C75   C     C_R   0.193415 0.813157 0.386432 -0.003713
C76   C     C_R   0.183218 0.372441 0.388154 -0.004907
C77   C     C_3   0.768668 0.924360 0.723119 -0.216210
C78   C     C_3   0.260080 0.939011 0.728214 -0.212837
C79   C     C_3   0.054021 0.847151 0.714047 -0.213858
C80   C     C_3   0.123843 0.200184 0.712671 -0.213643
C81   C     C_3   0.788295 0.937119 0.779240 -0.214373
C82   C     C_3   0.036479 0.862809 0.768868 -0.216056
C83   C     C_3   0.106445 0.166155 0.767290 -0.218387
C84   C     C_1   0.734144 0.873016 0.902575 -0.028788
C85   C     C_1   0.102548 0.901688 0.894249 -0.023878
C86   C     C_1   0.095880 0.199606 0.893981 -0.027772
C87   C     C_3   0.650434 0.828723 0.711986 0.072390
C88   C     C_3   0.158092 0.834316 0.707873 0.072031
C89   C     C_3   0.072511 0.345711 0.731035 -0.212807
C90   C     C_3   0.162165 0.324113 0.707834 0.072288
C91   C     C_3   0.584784 0.866080 0.793559 -0.215534
C92   C     C_3   0.123932 0.750027 0.793564 -0.212641
C93   C     C_3   0.254360 0.356077 0.791740 -0.212431
C94   C     C_3   0.684436 0.850262 0.807300 0.073477
C95   C     C_3   0.128715 0.862149 0.800919 0.072301
C96   C     C_3   0.132433 0.265519 0.800650 0.071851
Cr1   Cr    Cr6+3 0.164410 0.584450 0.499910 1.016991
Cr2   Cr    Cr6+3 0.415550 0.579960 0.499910 1.017475
Cr3   Cr    Cr6+3 0.420040 0.835590 0.499910 1.014451
Cr4   Cr    Cr6+3 0.155170 0.075460 0.019960 1.015200
Cr5   Cr    Cr6+3 0.924540 0.079710 0.019960 1.005460
Cr6   Cr    Cr6+3 0.920290 0.844830 0.019960 1.007460
H1    H     H_    0.601195 0.949051 0.805302 0.112075
H2    H     H_    0.729505 0.720760 0.799829 0.110905
H3    H     H_    0.252173 0.036431 0.789066 0.104429
H4    H     H_    0.966715 0.247617 0.791722 0.108598
H5    H     H_    0.706234 0.006860 0.139480 0.104465
H6    H     H_    0.975574 0.713361 0.141999 0.113983
H7    H     H_    0.248122 0.192850 0.150501 0.121967
H8    H     H_    0.588795 0.945699 0.379215 0.127342
H9    H     H_    0.039651 0.657922 0.382046 0.122924
H10   H     H_    0.346788 0.390741 0.379355 0.124479
H11   H     H_    0.646103 0.063722 0.214361 0.098188
H12   H     H_    0.042033 0.681870 0.805827 0.114336
H13   H     H_    0.905192 0.607211 0.218846 0.098327
H14   H     H_    0.368652 0.252881 0.223644 0.100572
H15   H     H_    0.612253 0.046882 0.302925 0.099531
H16   H     H_    0.924290 0.591381 0.307424 0.100550
H17   H     H_    0.404267 0.323806 0.307718 0.101781
H18   H     H_    0.741960 0.717075 0.145902 0.129339
H19   H     H_    0.298888 0.005149 0.141400 0.123257
H20   H     H_    0.919011 0.151617 0.158724 0.117886
H21   H     H_    0.737282 0.630826 0.221812 0.098356
H22   H     H_    0.397967 0.081739 0.216282 0.094389
H23   H     H_    0.311782 0.325199 0.802210 0.112576
H24   H     H_    0.852188 0.188065 0.234683 0.110545
H25   H     H_    0.715275 0.621242 0.310629 0.101035
H26   H     H_    0.408970 0.074473 0.305284 0.096922
H27   H     H_    0.884548 0.251700 0.319488 0.102944
H28   H     H_    0.571576 0.930590 0.722231 0.112611
H29   H     H_    0.069101 0.657320 0.724801 0.112111
H30   H     H_    0.337855 0.376341 0.721296 0.112555
H31   H     H_    0.661264 0.678767 0.383894 0.127681
H32   H     H_    0.338979 0.974979 0.380219 0.130890
H33   H     H_    0.012445 0.337315 0.386866 0.129850
H34   H     H_    0.478864 0.785923 0.729914 0.108170
H35   H     H_    0.831893 0.908196 0.705759 0.108364
H36   H     H_    0.063853 0.919357 0.692735 0.109540
H37   H     H_    0.044796 0.150415 0.692233 0.110002
H38   H     H_    0.779324 0.002568 0.707501 0.111168
H39   H     H_    0.979349 0.773003 0.699593 0.112255
H40   H     H_    0.187003 0.182350 0.696496 0.111000
H41   H     H_    0.808669 0.021583 0.790557 0.109042
H42   H     H_    0.953419 0.796034 0.780765 0.108786
H43   H     H_    0.161457 0.132559 0.777283 0.107709
H44   H     H_    0.860637 0.926846 0.788747 0.101279
H45   H     H_    0.216109 0.723201 0.735049 0.107278
H46   H     H_    0.036949 0.941581 0.773692 0.099438
H47   H     H_    0.019194 0.100522 0.772923 0.101597
H48   H     H_    0.554310 0.651211 0.726821 0.110848
H49   H     H_    0.336648 0.932773 0.723546 0.110862
H50   H     H_    0.098138 0.434594 0.728016 0.110192
H51   H     H_    0.699726 0.701903 0.717027 0.111886
H52   H     H_    0.272231 0.012723 0.707445 0.112195
H53   H     H_    0.992515 0.298611 0.710944 0.113488
H54   H     H_    0.584110 0.669983 0.809659 0.113147
H55   H     H_    0.310726 0.951844 0.804803 0.115263
H56   H     H_    0.301384 0.480328 0.734107 0.107547
H57   H     H_    0.072424 0.383561 0.808835 0.116779
H58   H     H_    0.508720 0.804140 0.812931 0.111175
H59   H     H_    0.188983 0.746385 0.816161 0.114384
H60   H     H_    0.275131 0.429137 0.815007 0.115416
O1    O     O_R   0.137150 0.468200 0.553200 -0.511717
O2    O     O_R   0.140110 0.470540 0.446010 -0.521697
O3    O     O_R   0.529460 0.669570 0.446010 -0.521548
O4    O     O_R   0.330430 0.859890 0.446010 -0.524081
O5    O     O_R   0.176710 0.690910 0.450560 -0.502074
O6    O     O_R   0.309090 0.485800 0.450560 -0.501230
O7    O     O_R   0.514200 0.823290 0.450560 -0.504017
O8    O     O_3   0.333333 0.666667 0.499990 -0.262719
O9    O     O_R   0.176750 0.985260 0.074180 -0.529912
O10   O     O_R   0.014740 0.191490 0.074180 -0.494591
O11   O     O_R   0.808510 0.823250 0.074180 -0.517346
O12   O     O_R   0.531800 0.668950 0.553200 -0.511755
O13   O     O_R   0.146100 0.172630 0.068980 -0.479211
O14   O     O_R   0.827370 0.973470 0.068980 -0.517675
O15   O     O_R   0.026530 0.853900 0.068980 -0.488825
O16   O     O_3   1.000000 1.000000 0.020040 -0.286010
O17   O     O_R   0.148270 0.170520 0.969620 -0.490565
O18   O     O_R   0.829480 0.977750 0.969620 -0.519818
O19   O     O_R   0.022250 0.851730 0.969620 -0.482061
O20   O     O_R   0.331050 0.862850 0.553200 -0.510208
O21   O     O_R   0.179100 0.982980 0.967000 -0.504857
O22   O     O_R   0.017020 0.196120 0.967000 -0.483813
O23   O     O_R   0.803880 0.820900 0.967000 -0.511601
O24   O     O_R   0.173970 0.688730 0.549930 -0.500787
O25   O     O_R   0.311270 0.485240 0.549930 -0.500072
O26   O     O_R   0.514760 0.826030 0.549930 -0.498843

loop_
_geom_bond_atom_site_label_1
_geom_bond_atom_site_label_2
_ccdc_geom_bond_type
C92   H59   S    
C25   C31   A    
C65   C92   S    
C64   H34   S    
C26   C32   A    
C55   C59   A    
C72   H19   S    
C13   O14   A    
C18   C21   A    
C2    C84   T    
C77   H38   S    
C21   C51   A    
C47   C50   A    
Cr4   O16   S    
C6    C9    T    
C13   C41   S    
C79   C82   S    
C66   C90   S    
C29   C76   S    
C1    O24   A    
C27   C33   A    
Cr6   O11   S    
C13   O11   A    
C34   H2    S    
C46   C49   A    
C58   H21   S    
C71   H18   S    
C60   C63   A    
C17   C85   S    
C32   C36   A    
C29   O6    A    
C57   H27   S    
C33   H14   S    
C77   H35   S    
C47   C76   A    
C56   H57   S    
C15   O17   A    
C16   O23   A    
C23   O26   A    
C30   C74   S    
C26   C39   A    
C89   H53   S    
C4    C86   T    
C16   O18   A    
C16   C84   S    
C8    C23   S    
C6    C88   S    
C20   C76   A    
Cr5   O10   S    
C7    C10   T    
C38   H5    S    
Cr4   O21   S    
Cr3   O26   S    
Cr3   O20   S    
Cr5   O16   S    
C28   O5    A    
C20   H10   S    
C43   C73   A    
C89   H50   S    
C20   C24   A    
Cr1   O1    S    
C11   C43   S    
C45   C78   S    
C52   C69   A    
C65   H45   S    
C36   H16   S    
C64   C87   S    
C28   O4    A    
C41   C71   A    
Cr3   O4    S    
C12   O1    A    
C19   H9    S    
C61   C71   A    
C58   C61   A    
C46   C75   A    
C11   O10   A    
C18   C74   A    
C83   H43   S    
C67   H48   S    
Cr6   O19   S    
C29   O2    A    
C39   H6    S    
C25   C68   A    
C80   C83   S    
C53   C70   A    
C79   C88   S    
C65   H29   S    
C45   H3    S    
C78   H49   S    
C39   C42   A    
C66   H30   S    
C40   C43   A    
C4    C96   S    
Cr1   O24   S    
C26   C69   A    
C48   C51   A    
C50   C53   A    
C62   C72   A    
Cr6   O23   S    
C18   H8    S    
C2    C94   S    
C19   C22   A    
C1    C9    S    
C38   C41   A    
C82   H42   S    
Cr4   O17   S    
C23   O12   A    
C78   H52   S    
C57   C60   A    
C63   C73   A    
C24   C53   A    
C49   C55   A    
C12   O25   A    
C92   C95   S    
C33   C37   A    
Cr1   O8    S    
C62   C69   A    
C5    C87   S    
C48   C54   A    
C30   O7    A    
Cr2   O25   S    
C25   C38   A    
C46   H32   S    
C17   O21   A    
C37   H17   S    
C63   C70   A    
C77   C81   S    
C27   C40   A    
C49   C52   A    
C15   O22   A    
Cr4   O13   S    
C42   C72   A    
C24   C37   A    
C45   H55   S    
C44   C74   A    
Cr5   O22   S    
C56   H4    S    
C91   H58   S    
C27   C70   A    
C10   C12   S    
C15   C86   S    
Cr3   O7    S    
C56   C89   S    
C64   H28   S    
C73   H20   S    
C93   C96   S    
C80   H40   S    
C66   C93   S    
Cr6   O16   S    
C31   C35   A    
C3    C85   T    
C35   H15   S    
C45   C95   S    
C66   H56   S    
C65   C88   S    
C22   C52   A    
C54   C58   A    
C78   C88   S    
C59   H22   S    
C56   C96   S    
C59   C62   A    
C82   C95   S    
C47   H33   S    
C50   C57   A    
C67   C87   S    
C34   C94   S    
C30   O3    A    
C91   H1    S    
C14   O9    A    
C34   C67   S    
C5    C8    T    
C82   H46   S    
C1    O20   A    
C40   H7    S    
C21   C35   A    
C34   H54   S    
C80   H37   S    
C22   C36   A    
C54   H25   S    
C11   O13   A    
C14   C42   S    
C67   H51   S    
Cr1   O2    S    
Cr3   O8    S    
C60   H24   S    
Cr5   O18   S    
Cr1   O5    S    
C91   C94   S    
C81   C94   S    
C7    C90   S    
C61   C68   A    
C79   H39   S    
C93   H60   S    
Cr2   O12   S    
C83   C96   S    
C44   H31   S    
C19   C75   A    
C51   C68   A    
C32   H13   S    
C80   C90   S    
C93   H23   S    
Cr2   O3    S    
Cr2   O8    S    
C17   O19   A    
C81   H41   S    
C79   H36   S    
C55   H26   S    
C77   C87   S    
C81   H44   S    
Cr6   O15   S    
C14   O15   A    
Cr5   O14   S    
C3    C95   S    
C64   C91   S    
C83   H47   S    
C89   C90   S    
C28   C75   S    
C92   H12   S    
C31   H11   S    
Cr2   O6    S    
C44   C48   A    
Cr4   O9    S    
