data_mof_unit_54737.cif
_audit_creation_date              2012-12-10T17:03:39-0500
_audit_creation_method            fapswitch 2.2
_symmetry_space_group_name_H-M    P1
_symmetry_Int_Tables_number       1
_space_group_crystal_system       triclinic
_cell_length_a                    10.03169
_cell_length_b                    10.737489
_cell_length_c                    13.07454
_cell_angle_alpha                 90.071829
_cell_angle_beta                  70.325107
_cell_angle_gamma                 90.389601
_cell_volume                      1326.074061

loop_
_atom_site_label
_atom_site_type_symbol
_atom_type_description
_atom_site_fract_x
_atom_site_fract_y
_atom_site_fract_z
_atom_type_partial_charge
C1    C     C_R   0.501922 0.737263 0.497112 0.935021
C2    C     C_R   0.421141 0.457773 0.988915 0.019811
C3    C     C_R   0.453589 0.431585 0.877739 0.078689
C4    C     C_R   0.530469 0.441285 0.033488 0.088662
C5    C     C_R   0.651181 0.369160 0.978090 0.176219
C6    C     C_R   0.666113 0.321067 0.875852 -0.248181
C7    C     C_R   0.569978 0.354021 0.825070 -0.184773
C8    C     C_R   0.527840 0.502838 0.127722 -0.230760
C9    C     C_R   0.739003 0.396301 0.128325 -0.172374
C10   C     C_R   0.369214 0.484550 0.822389 -0.134346
C11   C     C_2   0.605079 0.066896 0.508780 -0.224275
C12   C     C_R   0.421401 0.494607 0.704219 0.866686
C13   C     C_2   0.485488 0.133112 0.532682 -0.152104
C14   C     C_2   0.603061 0.933192 0.516928 -0.158145
C15   C     C_2   0.508603 0.868778 0.486794 -0.309569
C16   C     C_2   0.053959 0.415612 0.546406 -0.111208
C17   C     C_2   0.901766 0.420015 0.551766 -0.112972
C18   C     C_R   0.496669 0.262816 0.506816 0.871191
C19   C     C_R   0.578325 0.497900 0.295630 0.872241
C20   C     C_R   0.755272 0.347563 0.025780 -0.199219
C21   C     C_R   0.623397 0.472982 0.179743 -0.054339
C22   C     C_R   0.239751 0.539765 0.880683 -0.251674
C23   C     C_R   0.193152 0.542889 0.993590 0.014966
C24   C     C_R   0.281953 0.499808 0.049168 -0.052985
H1    H     H_    0.813271 0.371019 0.168593 0.162208
H2    H     H_    0.683002 0.888279 0.542968 0.179048
H3    H     H_    0.434747 0.913160 0.453923 0.159868
H4    H     H_    0.117355 0.575852 0.466669 0.173747
H5    H     H_    0.829841 0.351098 0.602095 0.151159
H6    H     H_    0.921542 0.559692 0.446509 0.172627
H7    H     H_    0.755447 0.262937 0.833077 0.144709
H8    H     H_    0.846374 0.290289 0.985376 0.144243
H9    H     H_    0.448437 0.572213 0.164299 0.156397
H10   H     H_    0.174511 0.580214 0.838093 0.173838
H11   H     H_    0.586540 0.316716 0.744897 0.158334
H12   H     H_    0.708772 0.110645 0.475296 0.177109
N1    N     N_2   0.148270 0.498670 0.498870 -0.178395
N2    N     N_2   0.852610 0.498640 0.498840 -0.186226
O1    O     O_R   0.386950 0.680940 0.500020 -0.613962
O2    O     O_R   0.613110 0.680900 0.499980 -0.608123
O3    O     O_R   0.330780 0.500000 0.653640 -0.609407
O4    O     O_R   0.556930 0.499960 0.653610 -0.605350
O5    O     O_R   0.386890 0.319100 0.500020 -0.604517
O6    O     O_R   0.613050 0.319060 0.499980 -0.626352
O7    O     O_R   0.443070 0.500040 0.346390 -0.595256
O8    O     O_R   0.669220 0.500000 0.346360 -0.602893
Zn1   Zn    Zn3+2 0.349000 0.500030 0.500020 0.961453
Zn2   Zn    Zn3+2 0.651000 0.499970 0.499980 0.948597
C25   C     C_1   0.346227 0.084089 0.594936 0.186861
N3    N     N_1   0.235312 0.045447 0.644603 -0.215138
H13   H     H_    0.085083 0.338682 0.586934 0.160032
C26   C     C_1   0.221083 0.481082 0.165511 0.145787
N4    N     N_1   0.171682 0.465474 0.258223 -0.201932
C27   C     C_1   0.055704 0.595216 0.050747 0.164225
N5    N     N_1   0.946019 0.637667 0.096483 -0.199256

loop_
_geom_bond_atom_site_label_1
_geom_bond_atom_site_label_2
_ccdc_geom_bond_type
C24   C26   S    
C2    C4    A    
C23   C24   A    
C19   O7    A    
C6    C7    A    
C1    C15   S    
C18   O6    A    
N1    Zn1   S    
C17   H5    S    
C9    C20   A    
C15   H3    S    
C16   H13   S    
C16   N1    D    
C4    C8    A    
C6    H7    S    
O3    Zn1   S    
C19   O8    A    
C9    H1    S    
C3    C10   A    
O4    Zn2   S    
C18   O5    A    
C10   C22   A    
C11   C13   D    
C9    C21   A    
C12   O3    A    
C10   C12   S    
H4    N1    S    
C13   C25   S    
C13   C18   S    
C7    H11   S    
C11   H12   S    
C19   C21   S    
C2    C3    A    
C3    C7    A    
C8    H9    S    
O7    Zn1   S    
C2    C24   A    
C5    C6    A    
C22   H10   S    
C11   C14   S    
O8    Zn2   S    
C16   C17   S    
C1    O1    A    
C26   N4    T    
H6    N2    S    
C23   C27   S    
O1    Zn1   S    
C25   N3    T    
C20   H8    S    
C17   N2    D    
C5    C20   A    
O2    Zn2   S    
C14   C15   D    
C4    C5    A    
C12   O4    A    
C1    O2    A    
C27   N5    T    
N2    Zn2   S    
C22   C23   A    
C14   H2    S    
O6    Zn2   S    
O5    Zn1   S    
C8    C21   A    
