data_mof_unit_14633.cif
_audit_creation_date              2012-12-11T15:56:02-0500
_audit_creation_method            fapswitch 2.2
_symmetry_space_group_name_H-M    P1
_symmetry_Int_Tables_number       1
_space_group_crystal_system       triclinic
_cell_length_a                    11.185248
_cell_length_b                    11.337604
_cell_length_c                    18.796965
_cell_angle_alpha                 90.831583
_cell_angle_beta                  90.557943
_cell_angle_gamma                 58.513508
_cell_volume                      2032.52555165

loop_
_atom_site_label
_atom_site_type_symbol
_atom_type_description
_atom_site_fract_x
_atom_site_fract_y
_atom_site_fract_z
_atom_type_partial_charge
C1    C     C_R   0.356891 0.773413 0.399422 0.569348
C2    C     C_R   0.237973 0.433517 0.203334 -0.116512
C3    C     C_R   0.233455 0.445995 0.277676 -0.006008
C4    C     C_R   0.380508 0.352561 0.390180 0.544323
C5    C     C_R   0.871688 0.796725 0.376109 -0.155809
C6    C     C_R   0.924419 0.663500 0.401319 -0.122773
C7    C     C_R   0.041564 0.551265 0.369321 -0.057712
C8    C     C_R   0.108758 0.569771 0.311296 0.070164
C9    C     C_R   0.343640 0.335662 0.317181 0.015958
C10   C     C_R   0.901734 0.320782 0.189601 0.066366
C11   C     C_R   0.775633 0.346751 0.214539 -0.018433
C12   C     C_R   0.590886 0.095351 0.178453 0.007604
C13   C     C_R   0.754667 0.340998 0.283920 0.040520
C14   C     C_R   0.977571 0.301164 0.315094 -0.125399
C15   C     C_R   0.009515 0.289826 0.241352 0.209562
C16   C     C_R   0.785239 0.372925 0.406953 0.554730
C17   C     C_3   0.627235 0.394177 0.195521 -0.253572
C18   C     C_3   0.611481 0.373298 0.275207 0.091398
C19   C     C_R   0.844708 0.331265 0.336590 -0.043960
C20   C     C_R   0.333081 0.863647 0.181042 0.061690
C21   C     C_R   0.460117 0.763718 0.213037 -0.011215
C22   C     C_R   0.463795 0.745773 0.285196 0.036115
C23   C     C_R   0.353155 0.323586 0.167625 0.028832
C24   C     C_R   0.221399 0.919479 0.298857 -0.141717
C25   C     C_R   0.214980 0.941556 0.226140 -0.066443
C26   C     C_3   0.613291 0.725524 0.218447 0.064545
C27   C     C_3   0.612097 0.699978 0.296349 -0.141413
C28   C     C_R   0.342178 0.770390 0.603484 0.540650
C29   C     C_R   0.348474 0.822901 0.329023 0.007568
C30   C     C_R   0.298789 0.304755 0.808199 0.001257
C31   C     C_R   0.407947 0.196139 0.770256 -0.011100
C32   C     C_R   0.419828 0.201424 0.698316 0.069827
C33   C     C_R   0.198586 0.416575 0.694887 -0.187682
C34   C     C_R   0.448300 0.219884 0.281186 -0.135799
C35   C     C_R   0.186961 0.410801 0.769210 -0.176070
C36   C     C_3   0.563245 0.117305 0.782753 -0.000992
C37   C     C_3   0.577084 0.124196 0.703018 0.150072
C38   C     C_R   0.323447 0.319050 0.660490 -0.009877
C39   C     C_R   0.823272 0.326065 0.834292 -0.027953
C40   C     C_R   0.369414 0.349984 0.594928 0.532069
C41   C     C_R   0.755084 0.456222 0.802202 -0.039058
C42   C     C_R   0.747802 0.466028 0.729198 0.078700
C43   C     C_R   0.858134 0.218533 0.716017 0.047685
C44   C     C_R   0.868772 0.207767 0.790482 -0.063966
C45   C     C_R   0.469490 0.223829 0.208953 -0.013442
C46   C     C_3   0.779279 0.574703 0.809161 -0.189857
C47   C     C_3   0.783181 0.576136 0.729159 0.110308
C48   C     C_R   0.800676 0.349888 0.684787 -0.014969
C49   C     C_R   0.289286 0.871314 0.820636 -0.039740
C50   C     C_R   0.191709 0.852641 0.784695 0.089172
C51   C     C_R   0.197985 0.836038 0.712099 0.071313
C52   C     C_R   0.762439 0.377718 0.609997 0.526777
C53   C     C_R   0.379082 0.889163 0.705724 -0.115208
C54   C     C_R   0.375975 0.901392 0.779930 -0.130344
C55   C     C_3   0.148007 0.751107 0.796647 0.133907
C56   C     C_R   0.054291 0.706849 0.286412 0.137656
C57   C     C_3   0.153479 0.732526 0.715851 0.012908
C58   C     C_R   0.301828 0.839527 0.672331 -0.023484
C59   C     C_R   0.925353 0.310630 0.114169 0.543279
C60   C     C_R   0.328074 0.292317 0.093798 0.558635
C61   C     C_R   0.307814 0.898534 0.105128 0.564349
C62   C     C_R   0.884528 0.308747 0.904935 0.546007
C63   C     C_R   0.292542 0.284232 0.883855 0.547142
C64   C     C_R   0.774818 0.878205 0.088095 -0.119018
C65   C     C_R   0.272243 0.901328 0.896344 0.539268
C66   C     C_R   0.817829 0.959260 0.122212 0.077828
C67   C     C_R   0.936844 0.818303 0.319293 -0.051675
C68   C     C_R   0.727032 0.066886 0.168885 -0.148676
C69   C     C_R   0.562355 0.997160 0.156744 0.281923
C70   C     C_R   0.646430 0.896967 0.105182 -0.046444
Cr1   Cr    Cr6+3 0.601740 0.606840 0.505840 1.023357
Cr2   Cr    Cr6+3 0.291500 0.601560 0.495070 1.022978
Cr3   Cr    Cr6+3 0.606780 0.291630 0.499130 1.026210
Cr4   Cr    Cr6+3 0.062440 0.063060 0.008240 1.000895
Cr5   Cr    Cr6+3 0.062950 0.375000 0.998920 1.003579
Cr6   Cr    Cr6+3 0.374550 0.061770 0.992470 1.011281
H1    H     H_    0.528360 0.131464 0.310567 0.109494
H2    H     H_    0.618401 0.827696 0.081554 0.120852
H3    H     H_    0.116181 0.022101 0.205296 0.141065
H4    H     H_    0.648966 0.797418 0.219830 0.156420
H5    H     H_    0.678077 0.591376 0.309945 0.234399
H6    H     H_    0.624884 0.772091 0.331964 0.086560
H7    H     H_    0.117247 0.503049 0.665668 0.117043
H8    H     H_    0.095443 0.491928 0.796072 0.111111
H9    H     H_    0.606037 0.011109 0.803410 0.182502
H10   H     H_    0.623221 0.185732 0.686613 0.165739
H11   H     H_    0.896085 0.922593 0.300743 0.119832
H12   H     H_    0.780932 0.883624 0.401038 0.109963
H13   H     H_    0.923984 0.105526 0.813410 0.217891
H14   H     H_    0.881028 0.549545 0.832291 0.124791
H15   H     H_    0.687288 0.668133 0.833000 0.160951
H16   H     H_    0.889023 0.540510 0.707008 0.089468
H17   H     H_    0.448877 0.908065 0.675355 0.214519
H18   H     H_    0.443387 0.931532 0.805145 0.160630
H19   H     H_    0.843000 0.797500 0.050781 0.120491
H20   H     H_    0.227035 0.658200 0.826573 0.077388
H21   H     H_    0.235560 0.628189 0.696710 0.112675
H22   H     H_    0.764481 0.124023 0.197067 0.091838
H23   H     H_    0.875215 0.647241 0.446282 0.128662
H24   H     H_    0.144712 0.502939 0.173534 0.148892
H25   H     H_    0.158495 0.222149 0.171454 0.348823
H26   H     H_    0.424214 0.522370 0.291539 0.317360
H27   H     H_    0.674125 0.625540 0.129596 0.324870
H28   H     H_    0.554035 0.300880 0.808784 0.219990
H29   H     H_    0.600655 0.188558 0.876484 0.260219
H30   H     H_    0.738464 0.947958 0.678454 0.348322
H31   H     H_    0.993129 0.095711 0.639209 0.227922
H32   H     H_    0.845128 0.090143 0.643611 0.258479
H33   H     H_    0.711258 0.715764 0.656746 0.350801
H34   H     H_    0.082530 0.450075 0.391573 0.097543
H35   H     H_    0.994578 0.741936 0.835885 0.309737
H36   H     H_    0.974099 0.728053 0.701728 0.218503
H37   H     H_    0.029418 0.767316 0.628437 0.240099
H38   H     H_    0.970615 0.995962 0.140871 0.264739
H39   H     H_    0.949503 0.964618 0.054918 0.273580
H40   H     H_    0.089530 0.713603 0.181375 0.255678
H41   H     H_    0.226737 0.679620 0.235149 0.224142
H42   H     H_    0.437887 0.019484 0.232480 0.316497
H43   H     H_    0.057122 0.279979 0.354422 0.118400
H44   H     H_    0.615759 0.327282 0.156651 0.102923
H45   H     H_    0.564245 0.503291 0.179371 0.181379
H46   H     H_    0.618793 0.278983 0.293083 0.147960
H47   H     H_    0.127815 0.976871 0.331033 0.122563
N1    N     N_3   0.613116 0.196058 0.822078 -0.642724
N2    N     N_3   0.921412 0.094239 0.673897 -0.585674
N3    N     N_3   0.015656 0.785713 0.683230 -0.573137
N4    N     N_3   0.952920 0.933154 0.107239 -0.590265
N5    N     N_3   0.117962 0.737672 0.229842 -0.634563
O1    O     O_R   0.748670 0.497520 0.427970 -0.530510
O2    O     O_R   0.417470 0.174910 0.067830 -0.485870
O3    O     O_R   0.375160 0.946380 0.070880 -0.464814
O4    O     O_R   0.476470 0.723930 0.429450 -0.495534
O5    O     O_R   0.160500 0.919670 0.926690 -0.482950
O6    O     O_R   0.933140 0.190380 0.936050 -0.500936
O7    O     O_R   0.909010 0.403210 0.925030 -0.533105
O8    O     O_R   0.179590 0.361290 0.918480 -0.509060
O9    O     O_R   0.391360 0.170840 0.907510 -0.537886
O10   O     O_R   0.350950 0.942600 0.922260 -0.528535
O11   O     O_3   0.166650 0.166610 0.999880 -0.270412
O12   O     O_R   0.300170 0.471020 0.567120 -0.523795
O13   O     O_R   0.264730 0.744140 0.416740 -0.504641
O14   O     O_R   0.309440 0.472410 0.418220 -0.489592
O15   O     O_R   0.501630 0.260530 0.414310 -0.524638
O16   O     O_R   0.727920 0.305730 0.428950 -0.484888
O17   O     O_R   0.738670 0.496020 0.588600 -0.516003
O18   O     O_R   0.467190 0.722540 0.578350 -0.481407
O19   O     O_R   0.254720 0.742640 0.577370 -0.537876
O20   O     O_3   0.146208 0.242535 0.223067 -0.703107
O21   O     O_3   0.516658 0.491490 0.313096 -0.675215
O22   O     O_3   0.706190 0.607662 0.179745 -0.713234
O23   O     O_R   0.491630 0.259030 0.574940 -0.505490
O24   O     O_3   0.636331 0.994536 0.669633 -0.717035
O25   O     O_3   0.675235 0.700281 0.701448 -0.686471
O26   O     O_3   0.012206 0.816863 0.824939 -0.654639
O27   O     O_3   0.440103 0.012682 0.179819 -0.692065
O28   O     O_R   0.718640 0.304340 0.577850 -0.526504
O29   O     O_3   0.500010 0.500010 0.500020 -0.239521
O30   O     O_R   0.186620 0.923750 0.087000 -0.541580
O31   O     O_R   0.957350 0.194160 0.084660 -0.552832
O32   O     O_R   0.935120 0.407280 0.085350 -0.491111
O33   O     O_R   0.203800 0.365060 0.067090 -0.517521

loop_
_geom_bond_atom_site_label_1
_geom_bond_atom_site_label_2
_ccdc_geom_bond_type
Cr5   O32   S    
C55   O26   S    
C66   C68   A    
C21   C26   S    
H25   O20   S    
C52   O17   A    
C23   C45   A    
C22   C29   A    
C70   H2    S    
C47   H16   S    
C5    C67   A    
C1    O4    A    
C8    C56   A    
C4    O15   A    
C7    C8    A    
C39   C41   A    
C53   C54   A    
Cr2   O14   S    
C12   C68   A    
C26   C27   S    
C69   O27   S    
C49   C65   S    
C13   C18   S    
C36   C37   S    
C16   O16   A    
C60   O33   A    
C10   C15   A    
C31   C36   S    
C34   H1    S    
C4    O14   A    
C15   O20   S    
Cr6   O3    S    
Cr5   O7    S    
C20   C25   A    
C49   C54   A    
Cr4   O5    S    
Cr3   O29   S    
H39   N4    S    
C66   N4    S    
C41   C42   A    
C20   C61   S    
C24   C29   A    
H27   O22   S    
Cr1   O4    S    
C5    H12   S    
C59   O31   A    
C41   C46   S    
C51   C57   S    
C64   C70   A    
H32   N2    S    
C18   O21   S    
H33   O25   S    
C43   C48   A    
H36   N3    S    
C17   H44   S    
C2    H24   S    
C21   C22   A    
Cr3   O23   S    
C63   O9    A    
C43   N2    S    
C23   C60   S    
Cr6   O2    S    
H41   N5    S    
C50   C51   A    
Cr2   O13   S    
Cr1   O29   S    
H30   O24   S    
C13   C19   A    
C53   H17   S    
C37   H10   S    
C27   H5    S    
C24   C25   A    
H31   N2    S    
C3    C8    S    
C60   O2    A    
C57   N3    S    
C51   C58   A    
Cr4   O30   S    
Cr5   O8    S    
C12   C45   S    
H37   N3    S    
C47   O25   S    
Cr6   O9    S    
C24   H47   S    
C26   H4    S    
Cr2   O29   S    
H29   N1    S    
C64   C66   A    
C62   O7    A    
C43   C44   A    
C3    C9    A    
Cr1   O1    S    
C59   O32   A    
C31   C32   A    
C26   O22   S    
C30   C31   A    
C53   C58   A    
C57   H21   S    
C1    C29   S    
C17   C18   S    
H42   O27   S    
C34   C45   A    
C42   C48   A    
C32   C37   S    
C16   O1    A    
C33   H7    S    
C39   C44   A    
C18   H46   S    
C46   H14   S    
C65   O10   A    
Cr4   O31   S    
C17   H45   S    
Cr6   O10   S    
Cr1   O17   S    
C12   C69   A    
C14   H43   S    
C32   C38   A    
C22   C27   S    
C55   C57   S    
C9    C34   A    
C37   O24   S    
Cr2   O19   S    
Cr3   O15   S    
Cr6   O11   S    
C39   C62   S    
C46   C47   S    
C11   C17   S    
C28   O19   A    
C36   N1    S    
C25   H3    S    
C28   O18   A    
C14   C19   A    
C27   H6    S    
C50   C55   S    
C64   H19   S    
C55   H20   S    
Cr4   O6    S    
C35   H8    S    
C6    C7    A    
H28   N1    S    
C28   C58   S    
C36   H9    S    
C52   O28   A    
C56   C67   A    
C30   C35   A    
Cr4   O11   S    
C67   H11   S    
C33   C38   A    
C7    H34   S    
Cr5   O33   S    
C63   O8    A    
C62   O6    A    
C2    C3    A    
Cr2   O12   S    
Cr5   O11   S    
C61   O30   A    
C6    H23   S    
C38   C40   S    
H38   N4    S    
C11   C13   A    
C5    C6    A    
C16   C19   S    
C40   O12   A    
Cr3   O28   S    
C33   C35   A    
C10   C59   S    
C42   C47   S    
C56   N5    S    
C69   C70   A    
H35   O26   S    
C68   H22   S    
C54   H18   S    
C1    O13   A    
C10   C11   A    
C61   O3    A    
H26   O21   S    
C48   C52   S    
Cr1   O18   S    
C20   C21   A    
C40   O23   A    
C49   C50   A    
H40   N5    S    
C2    C23   A    
C14   C15   A    
C4    C9    S    
C30   C63   S    
C46   H15   S    
C65   O5    A    
C44   H13   S    
Cr3   O16   S    
