data_mof_unit_64181.cif
_audit_creation_date              2012-12-10T20:19:13-0500
_audit_creation_method            fapswitch 2.2
_symmetry_space_group_name_H-M    P1
_symmetry_Int_Tables_number       1
_space_group_crystal_system       triclinic
_cell_length_a                    41.205164
_cell_length_b                    35.484679
_cell_length_c                    21.526894
_cell_angle_alpha                 89.999989
_cell_angle_beta                  59.427108
_cell_angle_gamma                 89.999974
_cell_volume                      27099.9419633

loop_
_atom_site_label
_atom_site_type_symbol
_atom_type_description
_atom_site_fract_x
_atom_site_fract_y
_atom_site_fract_z
_atom_type_partial_charge
C1    C     C_R   0.926567 0.499998 0.572602 0.863410
C2    C     C_R   0.326098 0.477509 0.123551 0.197380
C3    C     C_R   1.000000 0.807485 0.000000 0.055067
C4    C     C_1   0.500000 0.267392 1.000000 -0.051503
C5    C     C_1   1.000000 0.767392 0.000000 -0.051502
C6    C     C_1   1.000000 0.733699 0.000000 -0.044348
C7    C     C_1   0.500000 0.233698 1.000000 -0.044349
C8    C     C_R   0.027864 0.674186 0.940405 -0.220563
C9    C     C_R   0.972136 0.674186 0.059595 -0.220563
C10   C     C_R   0.527864 0.174185 0.940405 -0.220563
C11   C     C_R   0.472136 0.174185 0.059595 -0.220563
C12   C     C_R   0.028087 0.634816 0.939775 0.051899
C13   C     C_R   0.173902 0.977510 0.876450 0.197382
C14   C     C_R   0.971913 0.634816 0.060224 0.051900
C15   C     C_R   0.528087 0.134815 0.939776 0.051899
C16   C     C_R   0.471913 0.134816 0.060224 0.051900
C17   C     C_R   1.000000 0.614807 0.000000 -0.055563
C18   C     C_R   0.500000 0.114807 1.000000 -0.055563
C19   C     C_3   0.987364 0.539056 0.226087 -0.060586
C20   C     C_3   0.012636 0.539057 0.773913 -0.060586
C21   C     C_3   0.487364 0.039056 0.226087 -0.060586
C22   C     C_3   0.512636 0.039056 0.773913 -0.060586
C23   C     C_R   1.000000 0.693604 0.000000 0.117892
C24   C     C_R   0.826097 0.977514 0.123547 0.197380
C25   C     C_R   0.500000 0.193604 1.000000 0.117893
C26   C     C_R   0.525459 0.673541 0.014136 0.156077
C27   C     C_R   0.474543 0.673541 0.985859 0.156077
C28   C     C_R   0.025457 0.173541 0.014140 0.156077
C29   C     C_R   0.974543 0.173541 0.985858 0.156077
C30   C     C_R   0.525395 0.633847 0.013878 0.037843
C31   C     C_R   0.474606 0.633847 0.986120 0.037845
C32   C     C_R   0.025394 0.133847 0.013881 0.037845
C33   C     C_R   0.974606 0.133847 0.986119 0.037846
C34   C     C_R   0.500000 0.614382 0.999999 -0.136077
C35   C     C_R   0.634086 0.478446 0.916006 0.072062
C36   C     C_R   0.000000 0.114382 1.000000 -0.136079
C37   C     C_R   0.500001 0.692904 0.999997 0.057046
C38   C     C_R   0.000000 0.192904 0.999999 0.057046
C39   C     C_1   0.500002 0.733177 0.999996 -0.003643
C40   C     C_1   0.000000 0.233177 0.999999 -0.003643
C41   C     C_1   0.000000 0.266789 0.999999 -0.060493
C42   C     C_1   0.500002 0.766789 0.999996 -0.060492
C43   C     C_R   0.019800 0.326337 0.027373 0.107588
C44   C     C_R   0.980200 0.326337 0.972626 0.107589
C45   C     C_R   0.519802 0.826337 0.027368 0.107587
C46   C     C_R   0.365913 0.478451 0.083991 0.072064
C47   C     C_R   0.480200 0.826337 0.972626 0.107588
C48   C     C_R   0.019790 0.365880 0.027806 0.141379
C49   C     C_R   0.980210 0.365880 0.972193 0.141379
C50   C     C_R   0.519791 0.865880 0.027803 0.141380
C51   C     C_R   0.480210 0.865880 0.972194 0.141378
C52   C     C_R   0.000000 0.385516 1.000000 -0.150139
C53   C     C_R   0.500000 0.885516 1.000000 -0.150140
C54   C     C_3   0.042708 0.491773 0.244581 0.397037
C55   C     C_3   0.957292 0.491773 0.755419 0.397036
C56   C     C_3   0.542708 0.991773 0.244581 0.397036
C57   C     C_R   0.134087 0.978452 0.916010 0.072066
C58   C     C_3   0.457292 0.991773 0.755419 0.397036
C59   C     C_R   0.000000 0.306957 0.999999 -0.037021
C60   C     C_R   0.500002 0.806957 0.999996 -0.037020
C61   C     C_3   0.973062 0.469882 0.311752 -0.446466
C62   C     C_3   0.026938 0.469883 0.688248 -0.446465
C63   C     C_3   0.473062 0.969883 0.311752 -0.446466
C64   C     C_3   0.526937 0.969882 0.688248 -0.446465
C65   C     C_3   0.001239 0.499978 0.309232 0.152529
C66   C     C_3   0.998760 0.499977 0.690768 0.152529
C67   C     C_3   0.501239 0.999977 0.309232 0.152530
C68   C     C_R   0.865912 0.978456 0.083987 0.072069
C69   C     C_3   0.498761 0.999977 0.690768 0.152530
C70   C     C_3   0.000847 0.499906 0.188762 0.099013
C71   C     C_3   0.999153 0.499906 0.811237 0.099013
C72   C     C_3   0.500846 0.999906 0.188762 0.099015
C73   C     C_3   0.499153 0.999906 0.811237 0.099013
C74   C     C_3   0.041660 0.492923 0.173331 -0.420188
C75   C     C_3   0.958340 0.492923 0.826669 -0.420188
C76   C     C_3   0.541660 0.992922 0.173331 -0.420188
C77   C     C_3   0.458340 0.992923 0.826669 -0.420188
C78   C     C_3   0.057741 0.452632 0.250972 -0.886208
C79   C     C_R   0.614432 0.497382 0.887324 -0.078603
C80   C     C_3   0.942259 0.452631 0.749027 -0.886209
C81   C     C_3   0.557741 0.952632 0.250973 -0.886208
C82   C     C_3   0.442259 0.952632 0.749028 -0.886209
C83   C     C_3   0.694950 0.457365 0.907453 -0.952573
C84   C     C_3   0.305049 0.457374 0.092540 -0.952574
C85   C     C_3   0.194951 0.957378 0.907462 -0.952573
C86   C     C_3   0.805048 0.957386 0.092532 -0.952575
C87   C     C_3   0.552313 0.695739 0.028893 -0.929531
C88   C     C_3   0.447689 0.695739 0.971102 -0.929530
C89   C     C_3   0.052311 0.195739 0.028899 -0.929534
C90   C     C_R   0.385568 0.497382 0.112676 -0.078608
C91   C     C_3   0.947690 0.195739 0.971099 -0.929532
C92   C     C_3   0.040101 0.387212 0.059094 -0.859058
C93   C     C_3   0.959900 0.387212 0.940906 -0.859057
C94   C     C_3   0.540102 0.887212 0.059091 -0.859057
C95   C     C_3   0.459898 0.887212 0.940910 -0.859056
C96   C     C_3   0.071416 0.521498 0.240632 -0.904808
C97   C     C_3   0.928584 0.521497 0.759368 -0.904810
C98   C     C_3   0.571416 0.021497 0.240632 -0.904809
C99   C     C_3   0.428584 0.021498 0.759367 -0.904808
C100  C     C_R   0.114432 0.997382 0.887324 -0.078606
C101  C     C_R   0.073433 0.499998 0.427398 0.863410
C102  C     C_R   0.885568 0.997382 0.112676 -0.078610
C103  C     C_R   0.634227 0.514364 0.819332 -0.249159
C104  C     C_R   0.365773 0.514360 0.180672 -0.249158
C105  C     C_R   0.134227 0.014358 0.819326 -0.249159
C106  C     C_R   0.865773 0.014355 0.180677 -0.249158
C107  C     C_R   0.673256 0.513513 0.780366 -0.218890
C108  C     C_R   0.326744 0.513509 0.219639 -0.218892
C109  C     C_R   0.173255 0.013508 0.780360 -0.218893
C110  C     C_R   0.826745 0.013504 0.219644 -0.218895
C111  C     C_R   0.693074 0.495499 0.808496 0.126402
C112  C     C_R   0.426567 0.999998 0.572602 0.863410
C113  C     C_R   0.306925 0.495499 0.191505 0.126404
C114  C     C_R   0.193075 0.995499 0.808495 0.126404
C115  C     C_R   0.806925 0.995499 0.191506 0.126405
C116  C     C_1   0.733191 0.496291 0.766498 -0.042284
C117  C     C_1   0.266809 0.496291 0.233504 -0.042284
C118  C     C_1   0.233191 0.996291 0.766495 -0.042284
C119  C     C_1   0.766809 0.996291 0.233507 -0.042284
C120  C     C_1   0.766831 0.497039 0.731881 -0.066333
C121  C     C_1   0.233169 0.497039 0.268121 -0.066334
C122  C     C_1   0.266831 0.997039 0.731878 -0.066334
C123  C     C_R   0.573433 0.999998 0.427398 0.863412
C124  C     C_1   0.733169 0.997039 0.268124 -0.066334
C125  C     C_R   0.827303 0.468877 0.698909 -0.164266
C126  C     C_R   0.172697 0.468877 0.301092 -0.164266
C127  C     C_R   0.327303 0.968877 0.698908 -0.164266
C128  C     C_R   0.672697 0.968877 0.301093 -0.164267
C129  C     C_R   0.999773 0.499982 0.378741 0.855908
C130  C     C_R   0.000227 0.499982 0.621259 0.855910
C131  C     C_R   0.499773 0.999981 0.378741 0.855909
C132  C     C_R   0.500227 0.999981 0.621259 0.855908
C133  C     C_R   0.866430 0.469798 0.659636 -0.241738
C134  C     C_3   0.975282 0.467836 0.238636 -0.425243
C135  C     C_R   0.133570 0.469798 0.340364 -0.241738
C136  C     C_R   0.366430 0.969798 0.659635 -0.241738
C137  C     C_R   0.633570 0.969798 0.340365 -0.241738
C138  C     C_R   0.885351 0.499936 0.612733 -0.054600
C139  C     C_R   0.114649 0.499936 0.387268 -0.054600
C140  C     C_R   0.385351 0.999936 0.612732 -0.054600
C141  C     C_R   0.614649 0.999936 0.387269 -0.054598
C142  C     C_R   0.864593 0.529320 0.604631 0.104675
C143  C     C_R   0.135407 0.529320 0.395371 0.104675
C144  C     C_R   0.364593 0.029320 0.604629 0.104675
C145  C     C_3   0.024718 0.467836 0.761363 -0.425242
C146  C     C_R   0.635406 0.029320 0.395373 0.104675
C147  C     C_R   0.825155 0.528058 0.644736 -0.201196
C148  C     C_R   0.174845 0.528058 0.355266 -0.201195
C149  C     C_R   0.325155 0.028058 0.644733 -0.201196
C150  C     C_R   0.674844 0.028057 0.355269 -0.201196
C151  C     C_R   0.806842 0.497972 0.691362 0.134071
C152  C     C_R   0.193158 0.497972 0.308640 0.134070
C153  C     C_R   0.306842 0.997972 0.691359 0.134070
C154  C     C_R   0.693158 0.997972 0.308643 0.134071
C155  C     C_R   0.000000 0.573413 0.000000 0.924748
C156  C     C_3   0.475282 0.967836 0.238637 -0.425243
C157  C     C_R   0.500000 0.073413 1.000000 0.924749
C158  C     C_R   0.000285 0.499601 0.121224 0.872965
C159  C     C_R   0.999715 0.499601 0.878776 0.872966
C160  C     C_R   0.500285 0.999601 0.121224 0.872966
C161  C     C_R   0.499715 0.999601 0.878776 0.872965
C162  C     C_R   0.000000 0.426679 1.000000 0.916048
C163  C     C_R   0.500000 0.926679 0.000000 0.916048
C164  C     C_R   0.500000 0.426972 1.000000 0.849785
C165  C     C_R   0.000000 0.926972 1.000000 0.849770
C166  C     C_R   0.573214 0.499298 0.927302 0.891061
C167  C     C_3   0.524717 0.967836 0.761364 -0.425243
C168  C     C_R   0.426786 0.499298 0.072698 0.891059
C169  C     C_R   0.073214 0.999298 0.927302 0.891051
C170  C     C_R   0.926786 0.999298 0.072698 0.891050
C171  C     C_3   0.986957 0.538774 0.298059 -0.474191
C172  C     C_3   0.013042 0.538774 0.701942 -0.474192
C173  C     C_3   0.486958 0.038774 0.298058 -0.474190
C174  C     C_3   0.513043 0.038773 0.701941 -0.474192
C175  C     C_R   0.500000 0.573222 1.000000 0.952521
C176  C     C_R   1.000000 0.073222 0.000000 0.952521
C177  C     C_R   0.531557 0.326907 0.947561 -0.140548
C178  C     C_R   0.673901 0.477504 0.876446 0.197381
C179  C     C_R   0.468443 0.326907 0.052438 -0.140548
C180  C     C_R   0.031567 0.826908 0.947592 -0.140542
C181  C     C_R   0.968433 0.826908 0.052408 -0.140542
C182  C     C_R   0.531837 0.366163 0.947001 0.060315
C183  C     C_R   0.468163 0.366163 0.052998 0.060316
C184  C     C_R   0.031848 0.866164 0.947032 0.060313
C185  C     C_R   0.968152 0.866164 0.052968 0.060313
C186  C     C_R   0.500000 0.385989 1.000000 -0.100164
C187  C     C_R   1.000000 0.885989 0.000000 -0.100144
C188  C     C_R   0.500000 0.307484 1.000000 0.055071
H1    H     H_    0.004266 0.562588 0.298692 0.182645
H2    H     H_    0.947466 0.466128 0.857502 0.176740
H3    H     H_    0.103848 0.548358 0.497348 0.165308
H4    H     H_    0.364083 0.079750 0.558259 0.171563
H5    H     H_    0.396152 0.048358 0.502652 0.165308
H6    H     H_    0.635917 0.079749 0.441743 0.171563
H7    H     H_    0.603847 0.048357 0.497350 0.165308
H8    H     H_    0.557674 0.401878 0.862084 0.205807
H9    H     H_    0.574636 0.402975 0.919192 0.180721
H10   H     H_    0.442326 0.401877 0.137916 0.205806
H11   H     H_    0.425364 0.402975 0.080808 0.180720
H12   H     H_    0.057710 0.901882 0.862127 0.205780
H13   H     H_    0.552534 0.966128 0.142499 0.176740
H14   H     H_    0.074641 0.902974 0.919283 0.180726
H15   H     H_    0.942290 0.901882 0.137874 0.205780
H16   H     H_    0.925359 0.902975 0.080716 0.180726
H17   H     H_    0.054404 0.624315 0.832844 0.173602
H18   H     H_    0.082710 0.623306 0.868369 0.186586
H19   H     H_    0.945597 0.624314 0.167156 0.173602
H20   H     H_    0.917290 0.623306 0.131631 0.186586
H21   H     H_    0.554405 0.124314 0.832844 0.173602
H22   H     H_    0.582710 0.123305 0.868371 0.186586
H23   H     H_    0.445596 0.124314 0.167155 0.173602
H24   H     H_    0.447466 0.966129 0.857502 0.176740
H25   H     H_    0.417290 0.123306 0.131630 0.186586
H26   H     H_    0.571093 0.678037 0.039433 0.236000
H27   H     H_    0.570542 0.713835 0.981672 0.241949
H28   H     H_    0.535912 0.713931 0.076967 0.240853
H29   H     H_    0.428909 0.678038 0.960562 0.235999
H30   H     H_    0.429460 0.713836 0.018322 0.241949
H31   H     H_    0.464090 0.713930 0.923026 0.240853
H32   H     H_    0.071090 0.178037 0.039441 0.236000
H33   H     H_    0.070540 0.213836 0.981679 0.241949
H34   H     H_    0.035909 0.213931 0.076974 0.240854
H35   H     H_    0.619449 0.528850 0.796705 0.169617
H36   H     H_    0.928910 0.178038 0.960557 0.236000
H37   H     H_    0.929461 0.213836 0.018319 0.241949
H38   H     H_    0.964092 0.213931 0.923024 0.240853
H39   H     H_    0.547012 0.619065 0.076831 0.198589
H40   H     H_    0.578988 0.620020 0.986260 0.187858
H41   H     H_    0.452989 0.619065 0.923167 0.198589
H42   H     H_    0.421013 0.620021 0.013738 0.187857
H43   H     H_    0.047009 0.119065 0.076837 0.198589
H44   H     H_    0.078987 0.120021 0.986267 0.187858
H45   H     H_    0.952991 0.119065 0.923163 0.198589
H46   H     H_    0.380551 0.528843 0.203302 0.169622
H47   H     H_    0.921013 0.120021 0.013733 0.187858
H48   H     H_    0.060238 0.288937 0.013311 0.192171
H49   H     H_    0.021169 0.288665 0.096900 0.187574
H50   H     H_    0.939762 0.288937 0.986687 0.192170
H51   H     H_    0.978832 0.288665 0.903098 0.187574
H52   H     H_    0.560241 0.788937 0.013301 0.192170
H53   H     H_    0.521173 0.788664 0.096892 0.187574
H54   H     H_    0.439762 0.788937 0.986689 0.192171
H55   H     H_    0.478831 0.788666 0.903098 0.187575
H56   H     H_    0.050495 0.368747 0.086802 0.253390
H57   H     H_    0.119449 0.028840 0.796695 0.169624
H58   H     H_    0.064789 0.402268 0.015436 0.249829
H59   H     H_    0.020695 0.407940 0.099526 0.206328
H60   H     H_    0.949504 0.368747 0.913198 0.253389
H61   H     H_    0.935211 0.402268 0.984563 0.249829
H62   H     H_    0.979305 0.407941 0.900474 0.206328
H63   H     H_    0.550498 0.868747 0.086797 0.253389
H64   H     H_    0.564790 0.902268 0.015433 0.249830
H65   H     H_    0.520696 0.907940 0.099523 0.206328
H66   H     H_    0.449502 0.868747 0.913203 0.253389
H67   H     H_    0.435209 0.902267 0.984569 0.249829
H68   H     H_    0.880551 0.028834 0.203311 0.169627
H69   H     H_    0.479303 0.907941 0.900478 0.206329
H70   H     H_    0.944404 0.577283 0.256694 0.173293
H71   H     H_    0.929338 0.532492 0.276564 0.198326
H72   H     H_    0.055595 0.577283 0.743307 0.173294
H73   H     H_    0.070661 0.532492 0.723437 0.198326
H74   H     H_    0.444405 0.077283 0.256693 0.173294
H75   H     H_    0.429339 0.032493 0.276563 0.198326
H76   H     H_    0.555596 0.077283 0.743306 0.173294
H77   H     H_    0.570662 0.032491 0.723437 0.198326
H78   H     H_    0.072038 0.522330 0.291557 0.244641
H79   H     H_    0.688099 0.527208 0.728117 0.151207
H80   H     H_    0.100334 0.514472 0.196303 0.243487
H81   H     H_    0.065065 0.550153 0.229202 0.223790
H82   H     H_    0.927962 0.522329 0.708443 0.244641
H83   H     H_    0.899666 0.514471 0.803697 0.243487
H84   H     H_    0.934934 0.550153 0.770799 0.223791
H85   H     H_    0.572038 0.022329 0.291557 0.244641
H86   H     H_    0.600334 0.014471 0.196303 0.243487
H87   H     H_    0.565066 0.050153 0.229200 0.223790
H88   H     H_    0.427962 0.022330 0.708443 0.244642
H89   H     H_    0.399666 0.014473 0.803697 0.243487
H90   H     H_    0.311901 0.527200 0.271891 0.151207
H91   H     H_    0.434935 0.050154 0.770799 0.223790
H92   H     H_    0.188098 0.027198 0.728106 0.151208
H93   H     H_    0.995734 0.562588 0.701309 0.182646
H94   H     H_    0.811902 0.027191 0.271900 0.151208
H95   H     H_    0.813009 0.445568 0.735267 0.138666
H96   H     H_    0.186991 0.445568 0.264733 0.138666
H97   H     H_    0.313009 0.945568 0.735266 0.138667
H98   H     H_    0.686991 0.945568 0.264735 0.138667
H99   H     H_    0.881955 0.447142 0.666524 0.159806
H100  H     H_    0.118046 0.447142 0.333475 0.159805
H101  H     H_    0.381954 0.947142 0.666524 0.159806
H102  H     H_    0.618046 0.947142 0.333475 0.159805
H103  H     H_    0.957990 0.544183 0.344167 0.166976
H104  H     H_    0.504266 0.062588 0.298692 0.182645
H105  H     H_    0.042010 0.544183 0.655833 0.166976
H106  H     H_    0.457990 0.044183 0.344166 0.166976
H107  H     H_    0.542010 0.044183 0.655833 0.166975
H108  H     H_    0.808725 0.550291 0.639277 0.128196
H109  H     H_    0.191275 0.550291 0.360726 0.128196
H110  H     H_    0.308725 0.050291 0.639274 0.128197
H111  H     H_    0.691274 0.050290 0.360729 0.128197
H112  H     H_    0.555990 0.311561 0.907170 0.149269
H113  H     H_    0.444010 0.311561 0.092830 0.149269
H114  H     H_    0.056008 0.811561 0.907224 0.149270
H115  H     H_    0.495735 0.062588 0.701307 0.182646
H116  H     H_    0.943992 0.811562 0.092776 0.149270
H117  H     H_    0.049332 0.689558 0.894136 0.137423
H118  H     H_    0.950668 0.689558 0.105864 0.137423
H119  H     H_    0.549332 0.189558 0.894137 0.137421
H120  H     H_    0.450668 0.189558 0.105863 0.137422
H121  H     H_    0.008074 0.560681 0.190184 0.135886
H122  H     H_    0.991926 0.560681 0.809817 0.135887
H123  H     H_    0.508074 0.060680 0.190183 0.135886
H124  H     H_    0.491926 0.060681 0.809816 0.135886
H125  H     H_    0.060606 0.515428 0.136764 0.174156
H126  H     H_    0.986957 0.440014 0.213309 0.161007
H127  H     H_    0.939394 0.515427 0.863236 0.174156
H128  H     H_    0.560606 0.015427 0.136764 0.174156
H129  H     H_    0.439394 0.015428 0.863236 0.174156
H130  H     H_    0.978387 0.441487 0.326436 0.196224
H131  H     H_    0.021614 0.441487 0.673563 0.196223
H132  H     H_    0.478386 0.941487 0.326436 0.196223
H133  H     H_    0.521613 0.941487 0.673564 0.196224
H134  H     H_    0.943807 0.477473 0.354260 0.163247
H135  H     H_    0.056193 0.477474 0.645740 0.163246
H136  H     H_    0.443807 0.977474 0.354260 0.163247
H137  H     H_    0.013043 0.440014 0.786690 0.161007
H138  H     H_    0.556193 0.977473 0.645741 0.163247
H139  H     H_    0.946355 0.469497 0.247111 0.194072
H140  H     H_    0.053645 0.469497 0.752889 0.194072
H141  H     H_    0.446355 0.969498 0.247111 0.194073
H142  H     H_    0.553645 0.969497 0.752889 0.194072
H143  H     H_    0.039575 0.429268 0.252201 0.229161
H144  H     H_    0.086282 0.447583 0.203543 0.231826
H145  H     H_    0.060545 0.450920 0.299478 0.253283
H146  H     H_    0.960426 0.429267 0.747799 0.229161
H147  H     H_    0.913718 0.447582 0.796456 0.231827
H148  H     H_    0.486957 0.940014 0.213310 0.161007
H149  H     H_    0.939455 0.450919 0.700522 0.253283
H150  H     H_    0.539574 0.929267 0.252202 0.229161
H151  H     H_    0.586282 0.947582 0.203543 0.231826
H152  H     H_    0.560545 0.950920 0.299478 0.253283
H153  H     H_    0.460425 0.929268 0.747799 0.229161
H154  H     H_    0.413717 0.947583 0.796457 0.231827
H155  H     H_    0.439455 0.950920 0.700522 0.253283
H156  H     H_    0.725989 0.458374 0.871855 0.250509
H157  H     H_    0.688094 0.470490 0.959539 0.240313
H158  H     H_    0.686726 0.427198 0.916463 0.239966
H159  H     H_    0.513042 0.940014 0.786691 0.161007
H160  H     H_    0.274010 0.458383 0.128139 0.250510
H161  H     H_    0.311905 0.470504 0.040458 0.240313
H162  H     H_    0.313273 0.427207 0.083522 0.239965
H163  H     H_    0.225990 0.958386 0.871863 0.250509
H164  H     H_    0.188096 0.970508 0.959544 0.240312
H165  H     H_    0.186727 0.927211 0.916482 0.239966
H166  H     H_    0.774009 0.958393 0.128132 0.250510
H167  H     H_    0.811903 0.970520 0.040454 0.240313
H168  H     H_    0.813272 0.927219 0.083504 0.239966
H169  H     H_    0.621075 0.470612 0.019697 0.196233
H170  H     H_    0.052534 0.466129 0.142498 0.176740
H171  H     H_    0.620090 0.430783 0.976599 0.182943
H172  H     H_    0.378923 0.470623 0.980299 0.196231
H173  H     H_    0.379909 0.430791 0.023387 0.182944
H174  H     H_    0.121077 0.970629 0.019703 0.196233
H175  H     H_    0.120092 0.930795 0.976619 0.182941
H176  H     H_    0.878921 0.970639 0.980293 0.196231
H177  H     H_    0.879907 0.930802 0.023369 0.182941
H178  H     H_    0.864082 0.579750 0.558262 0.171563
H179  H     H_    0.896152 0.548359 0.502654 0.165308
H180  H     H_    0.135917 0.579750 0.441741 0.171563
N1    N     N_3   0.613326 0.459440 0.984181 -0.443680
N2    N     N_3   0.435035 0.385255 0.106788 -0.463330
N3    N     N_3   0.064985 0.885257 0.893275 -0.463335
N4    N     N_3   0.935015 0.885257 0.106725 -0.463335
N5    N     N_3   0.056277 0.615303 0.877154 -0.433098
N6    N     N_3   0.943723 0.615303 0.122846 -0.433098
N7    N     N_3   0.556277 0.115303 0.877154 -0.433098
N8    N     N_3   0.443723 0.115303 0.122845 -0.433097
N9    N     N_3   0.551501 0.612664 0.025643 -0.445702
N10   N     N_3   0.448499 0.612665 0.974355 -0.445701
N11   N     N_3   0.051499 0.112664 0.025648 -0.445699
N12   N     N_3   0.386673 0.459448 0.015812 -0.443674
N13   N     N_3   0.948500 0.112665 0.974352 -0.445700
N14   N     N_3   0.040116 0.305978 0.054586 -0.461728
N15   N     N_3   0.959885 0.305978 0.945412 -0.461727
N16   N     N_3   0.540119 0.805978 0.054578 -0.461728
N17   N     N_3   0.459884 0.805978 0.945414 -0.461729
N18   N     N_3   0.950323 0.549654 0.237100 -0.429943
N19   N     N_3   0.049676 0.549654 0.762900 -0.429944
N20   N     N_3   0.450324 0.049654 0.237099 -0.429945
N21   N     N_3   0.549677 0.049654 0.762900 -0.429944
N22   N     N_3   0.113328 0.959452 0.984192 -0.443681
N23   N     N_3   0.886671 0.959459 0.015802 -0.443675
N24   N     N_3   0.883505 0.559639 0.554715 -0.434306
N25   N     N_3   0.116494 0.559639 0.445287 -0.434306
N26   N     N_3   0.383506 0.059639 0.554713 -0.434306
N27   N     N_3   0.616494 0.059638 0.445289 -0.434306
N28   N     N_3   0.564965 0.385255 0.893212 -0.463330
O1    O     O_R   0.944550 0.531270 0.555450 -0.594714
O2    O     O_R   0.444590 0.500090 0.003140 -0.590806
O3    O     O_R   0.055410 0.000090 0.996860 -0.590808
O4    O     O_R   0.944590 0.000090 0.003140 -0.590806
O5    O     O_R   0.500010 0.555520 0.947680 -0.609265
O6    O     O_R   0.499990 0.555520 0.052320 -0.609265
O7    O     O_R   0.000010 0.055520 0.947680 -0.609264
O8    O     O_R   0.999990 0.055520 0.052320 -0.609264
O9    O     O_R   0.944500 0.468660 0.555500 -0.629781
O10   O     O_R   0.055500 0.468660 0.444500 -0.629781
O11   O     O_R   0.444500 0.968660 0.555500 -0.629781
O12   O     O_R   0.055450 0.531270 0.444550 -0.594713
O13   O     O_R   0.555500 0.968660 0.444500 -0.629782
O14   O     O_R   0.999990 0.531270 0.407410 -0.629346
O15   O     O_R   0.000010 0.531270 0.592590 -0.629346
O16   O     O_R   0.499990 0.031270 0.407410 -0.629346
O17   O     O_R   0.500010 0.031270 0.592590 -0.629345
O18   O     O_R   0.999940 0.468660 0.407460 -0.630569
O19   O     O_R   0.000060 0.468660 0.592540 -0.630569
O20   O     O_R   0.499940 0.968660 0.407460 -0.630569
O21   O     O_R   0.500060 0.968660 0.592540 -0.630569
O22   O     O_R   0.968670 0.555400 0.031330 -0.600221
O23   O     O_R   0.444550 0.031270 0.555450 -0.594714
O24   O     O_R   0.031330 0.555400 0.968670 -0.600222
O25   O     O_R   0.468670 0.055400 0.031330 -0.600221
O26   O     O_R   0.531330 0.055400 0.968670 -0.600223
O27   O     O_R   0.968670 0.499940 0.123930 -0.601924
O28   O     O_R   0.031330 0.499940 0.876070 -0.601923
O29   O     O_R   0.468670 0.999940 0.123930 -0.601924
O30   O     O_R   0.531330 0.999940 0.876070 -0.601923
O31   O     O_R   0.031270 0.499990 0.061330 -0.647355
O32   O     O_R   0.968730 0.499990 0.938670 -0.647355
O33   O     O_R   0.531270 0.999990 0.061330 -0.647355
O34   O     O_R   0.555450 0.031270 0.444550 -0.594714
O35   O     O_R   0.468730 0.999990 0.938670 -0.647355
O36   O     O_R   0.968660 0.444490 0.031330 -0.623817
O37   O     O_R   0.031340 0.444490 0.968670 -0.623817
O38   O     O_R   0.468660 0.944490 0.031330 -0.623817
O39   O     O_R   0.531340 0.944490 0.968670 -0.623817
O40   O     O_R   0.499920 0.444610 0.947830 -0.619522
O41   O     O_R   0.500080 0.444610 0.052170 -0.619521
O42   O     O_R   0.999920 0.944610 0.947830 -0.619512
O43   O     O_R   0.000080 0.944610 0.052170 -0.619511
O44   O     O_R   0.555400 0.500060 0.892310 -0.634577
O45   O     O_R   0.444600 0.500060 0.107690 -0.634579
O46   O     O_R   0.055400 0.000060 0.892310 -0.634577
O47   O     O_R   0.944600 0.000060 0.107690 -0.634580
O48   O     O_R   0.555410 0.500090 0.996860 -0.590808
Zn1   Zn    Zn3+2 1.000000 0.541770 0.500000 0.957279
Zn2   Zn    Zn3+2 0.500040 0.500060 0.069780 0.959742
Zn3   Zn    Zn3+2 0.999960 0.000060 0.930220 0.959749
Zn4   Zn    Zn3+2 0.000040 0.000060 0.069780 0.959749
Zn5   Zn    Zn3+2 0.500000 0.041770 0.500000 0.957279
Zn6   Zn    Zn3+2 0.000000 0.458160 0.500000 0.927248
Zn7   Zn    Zn3+2 0.500000 0.958160 0.500000 0.927248
Zn8   Zn    Zn3+2 0.958170 0.499940 0.041830 0.948980
Zn9   Zn    Zn3+2 0.041830 0.499940 0.958170 0.948979
Zn10  Zn    Zn3+2 0.458170 0.999940 0.041830 0.948979
Zn11  Zn    Zn3+2 0.541830 0.999940 0.958170 0.948978
Zn12  Zn    Zn3+2 0.499960 0.500060 0.930220 0.959743

loop_
_geom_bond_atom_site_label_1
_geom_bond_atom_site_label_2
_ccdc_geom_bond_type
O8    Zn4   S    
O33   Zn11  S    
O27   Zn8   S    
H21   N7    S    
H45   N13   S    
C136  C140  A    
O43   Zn4   S    
C55   C66   S    
H9    N28   S    
C56   C81   S    
C54   C65   S    
C84   H162  S    
C135  C139  A    
C165  C187  S    
H16   N4    S    
C164  C186  S    
C136  H101  S    
C58   C82   S    
C5    C6    T    
C97   H82   S    
C149  H110  S    
C180  H114  S    
C8    C23   A    
C88   H29   S    
C145  H140  S    
C179  H113  S    
C149  C153  A    
O26   Zn11  S    
C73   C161  S    
C103  H35   S    
C54   C74   S    
C62   C145  S    
C70   C74   S    
C80   H146  S    
O3    Zn4   S    
C20   C71   S    
C134  H126  S    
C101  O12   A    
C128  C154  A    
C35   C178  A    
O38   Zn10  S    
H12   N3    S    
C143  C148  A    
C15   N7    S    
H72   N19   S    
C172  H105  S    
C170  O4    A    
C86   H166  S    
C50   C53   A    
C1    O1    A    
C174  H107  S    
C21   C72   S    
C27   C31   A    
C63   H132  S    
H19   N6    S    
C28   C32   A    
C75   H2    S    
O1    Zn1   S    
C127  C136  A    
C167  H142  S    
C62   C66   S    
C53   C163  S    
C98   H85   S    
C179  C188  A    
C8    H117  S    
C108  C113  A    
H23   N8    S    
C99   H88   S    
C123  C141  S    
C26   C37   A    
O18   Zn6   S    
O36   Zn8   S    
C90   C104  A    
H172  N12   S    
C167  H159  S    
C20   C172  S    
C169  O46   A    
C185  N4    S    
C21   C173  S    
C134  H139  S    
C158  O31   A    
O42   Zn3   S    
H14   N3    S    
C17   C155  S    
O23   Zn5   S    
C29   C91   S    
C109  H92   S    
C83   C178  S    
C61   H134  S    
C9    C23   A    
C94   H64   S    
C160  O29   A    
C175  O5    A    
C97   H84   S    
C130  O15   A    
C88   H31   S    
C74   H170  S    
C4    C188  S    
O31   Zn9   S    
C18   C157  S    
C55   C80   S    
C19   H121  S    
C45   C50   A    
C43   N14   S    
H70   N18   S    
C137  H102  S    
C176  O7    A    
C61   C65   S    
C48   C52   A    
O34   Zn5   S    
C13   C85   S    
C70   C134  S    
C73   C77   S    
O6    Zn2   S    
C103  C107  A    
C49   C93   S    
C91   H36   S    
C82   H154  S    
C75   H127  S    
C180  C184  A    
C51   C95   S    
O29   Zn10  S    
C96   H80   S    
C15   C18   A    
C62   H131  S    
C72   C156  S    
C183  N2    S    
C29   C33   A    
H71   N18   S    
C127  H97   S    
H41   N10   S    
C30   N9    S    
C33   C36   A    
C101  C139  S    
O45   Zn2   S    
C144  C149  A    
C177  C188  A    
C32   C36   A    
H171  N1    S    
C64   C167  S    
C89   H33   S    
C57   N22   S    
C185  C187  A    
C13   C57   A    
C147  H108  S    
C11   C25   A    
C44   C59   A    
C123  O13   A    
C112  O23   A    
O10   Zn6   S    
C125  C151  A    
C58   C77   S    
H48   N14   S    
C63   H136  S    
C139  C143  A    
C9    H118  S    
C31   N10   S    
C26   C87   S    
C157  O26   A    
C177  H112  S    
C87   H28   S    
C145  H137  S    
C28   C89   S    
C34   C175  S    
C155  O24   A    
C43   C59   A    
C55   C75   S    
C64   H133  S    
C104  H46   S    
H53   N16   S    
C146  C150  A    
C14   C17   A    
C79   C103  A    
C4    C7    T    
H5    N26   S    
C131  O20   A    
C31   C34   A    
O28   Zn9   S    
C30   C34   A    
C106  H68   S    
H74   N20   S    
C159  O32   A    
C183  C186  A    
C76   H13   S    
C50   C94   S    
C96   H81   S    
C116  C120  T    
C51   C53   A    
C13   C114  A    
C147  C151  A    
C3    C180  A    
O35   Zn10  S    
C163  O39   A    
O9    Zn6   S    
C8    C12   A    
C81   H150  S    
C78   H145  S    
C64   C69   S    
C105  H57   S    
H75   N20   S    
C142  N24   S    
C109  C114  A    
C113  C117  S    
C172  H93   S    
C62   H135  S    
C10   C25   A    
C71   C145  S    
O14   Zn1   S    
C26   C30   A    
C115  C119  S    
C91   H38   S    
C146  N27   S    
C161  O35   A    
C85   H164  S    
C166  O48   A    
C162  O36   A    
C156  H141  S    
C93   H62   S    
H47   N13   S    
C177  C182  A    
C105  C109  A    
C132  O21   A    
C120  C151  S    
C90   C168  S    
H76   N21   S    
C107  C111  A    
C142  C147  A    
C173  H104  S    
C148  C152  A    
H11   N2    S    
C14   N6    S    
C110  H94   S    
O4    Zn3   S    
C168  O2    A    
C150  H111  S    
C184  C187  A    
O16   Zn5   S    
C99   H89   S    
C10   H119  S    
C35   C79   A    
C122  C153  S    
C87   H26   S    
C88   H30   S    
C158  O27   A    
H20   N6    S    
C155  O22   A    
C165  O43   A    
C166  O44   A    
C48   C92   S    
C174  H115  S    
C135  H100  S    
C24   C86   S    
H6    N27   S    
C52   C162  S    
C130  O19   A    
C102  C170  S    
O19   Zn6   S    
H169  N1    S    
C2    C84   S    
C73   C167  S    
C163  O38   A    
C33   N13   S    
C45   C60   A    
C159  O28   A    
C86   H167  S    
H3    N25   S    
O17   Zn5   S    
C161  O30   A    
C68   C102  A    
C63   C156  S    
H175  N22   S    
H52   N16   S    
H49   N14   S    
C81   H152  S    
C78   H143  S    
C182  C186  A    
C83   H158  S    
C112  C140  S    
C168  O45   A    
O15   Zn1   S    
C77   H24   S    
H42   N10   S    
C125  H95   S    
C80   H149  S    
O44   Zn12  S    
C126  H96   S    
C12   C17   A    
C111  C116  S    
C132  O17   A    
C148  H109  S    
C133  C138  A    
O37   Zn9   S    
H10   N2    S    
C96   H78   S    
O30   Zn11  S    
C61   C134  S    
C35   N1    S    
C39   C42   T    
H17   N5    S    
C84   H161  S    
H8    N28   S    
C85   H165  S    
H176  N23   S    
H40   N9    S    
C138  C142  A    
C94   H65   S    
C97   H83   S    
C47   C51   A    
C144  N26   S    
C181  H116  S    
C70   C158  S    
C9    C14   A    
O41   Zn2   S    
C76   H128  S    
C49   C52   A    
C77   H129  S    
C55   C97   S    
C3    C181  A    
C95   H66   S    
O47   Zn4   S    
H22   N7    S    
C176  O8    A    
C131  O16   A    
C126  C135  A    
C36   C176  S    
C64   H138  S    
C16   N8    S    
H55   N17   S    
C129  O14   A    
O32   Zn8   S    
C69   C174  S    
C82   H155  S    
C104  C108  A    
H18   N5    S    
C71   C159  S    
O24   Zn9   S    
C137  C141  A    
C162  O37   A    
C92   H58   S    
C164  O41   A    
C100  C169  S    
C58   C99   S    
C140  C144  A    
C3    C5    S    
C164  O40   A    
C170  O47   A    
H25   N8    S    
C65   C129  S    
C58   C69   S    
C46   C90   A    
C7    C25   S    
C83   H156  S    
C37   C39   S    
H4    N26   S    
O25   Zn10  S    
C89   H32   S    
C38   C40   S    
C46   N12   S    
C67   C173  S    
C169  O3    A    
C80   H147  S    
H51   N15   S    
C98   H87   S    
C24   C68   A    
H174  N22   S    
C20   H122  S    
C157  O25   A    
C21   H123  S    
C87   H27   S    
C22   H124  S    
C20   N19   S    
C110  C115  A    
C54   C78   S    
H77   N21   S    
C44   C49   A    
C21   N20   S    
C56   C76   S    
C124  C154  S    
H177  N23   S    
H7    N27   S    
H178  N24   S    
C56   C98   S    
C72   C76   S    
C74   H125  S    
C94   H63   S    
C127  C153  A    
C112  O11   A    
C119  C124  T    
C2    C46   A    
O21   Zn7   S    
C100  C105  A    
C65   C171  S    
C66   C172  S    
C184  N3    S    
C19   C171  S    
C10   C15   A    
C118  C122  T    
C156  H148  S    
C2    C113  A    
H179  N24   S    
C123  O34   A    
C171  H1    S    
O48   Zn2   S    
C11   C16   A    
O11   Zn7   S    
O46   Zn3   S    
C117  C121  T    
H15   N4    S    
C47   C60   A    
C68   N23   S    
O7    Zn3   S    
C133  H99   S    
C111  C178  A    
C82   H153  S    
C98   H86   S    
C43   C48   A    
C54   C96   S    
H39   N9    S    
H43   N11   S    
H44   N11   S    
C91   H37   S    
C85   H163  S    
C126  C152  A    
C108  H90   S    
C22   C174  S    
C92   H59   S    
C93   H61   S    
C179  C183  A    
C61   H130  S    
H54   N17   S    
C63   C67   S    
C175  O6    A    
C12   N5    S    
C41   C59   S    
O5    Zn12  S    
C42   C60   S    
C89   H34   S    
C181  C185  A    
C84   H160  S    
C57   C100  A    
H173  N12   S    
C29   C38   A    
C128  C137  A    
C44   N15   S    
O12   Zn1   S    
O40   Zn12  S    
C93   H60   S    
C160  O33   A    
O13   Zn7   S    
C28   C38   A    
H50   N15   S    
C114  C118  S    
C47   N17   S    
O20   Zn7   S    
C165  O42   A    
C141  C146  A    
C40   C41   T    
C107  H79   S    
C45   N16   S    
C95   H67   S    
C101  O10   A    
C106  C110  A    
C125  C133  A    
C95   H69   S    
C11   H120  S    
O2    Zn12  S    
H180  N25   S    
C67   C131  S    
C143  N25   S    
C1    O9    A    
C56   C67   S    
C86   H168  S    
C173  H106  S    
C72   C160  S    
C121  C152  S    
C19   N18   S    
C128  H98   S    
C71   C75   S    
C92   H56   S    
C32   N11   S    
O39   Zn11  S    
C27   C37   A    
C69   C132  S    
C6    C23   S    
C129  O18   A    
C81   H151  S    
C78   H144  S    
C102  C106  A    
C79   C166  S    
C27   C88   S    
C83   H157  S    
C22   N21   S    
C99   H91   S    
H73   N19   S    
C24   C115  A    
C16   C18   A    
C150  C154  A    
O22   Zn8   S    
C19   C70   S    
C22   C73   S    
C182  N28   S    
C1    C138  S    
C66   C130  S    
C171  H103  S    
