data_mof_unit_62388.cif
_audit_creation_date              2012-12-10T19:50:54-0500
_audit_creation_method            fapswitch 2.2
_symmetry_space_group_name_H-M    P1
_symmetry_Int_Tables_number       1
_space_group_crystal_system       triclinic
_cell_length_a                    23.531239
_cell_length_b                    10.775669
_cell_length_c                    22.287746
_cell_angle_alpha                 89.372814
_cell_angle_beta                  90.568223
_cell_angle_gamma                 89.369436
_cell_volume                      5650.42325599

loop_
_atom_site_label
_atom_site_type_symbol
_atom_type_description
_atom_site_fract_x
_atom_site_fract_y
_atom_site_fract_z
_atom_type_partial_charge
C1    C     C_R   0.499133 0.262138 0.500224 0.829051
C2    C     C_R   0.700383 0.551331 0.453962 -0.190563
C3    C     C_R   0.240623 0.446379 0.546941 -0.105455
C4    C     C_R   0.759377 0.553633 0.453065 -0.105489
C5    C     C_R   0.208945 0.503550 0.500928 0.227659
C6    C     C_R   0.791054 0.496457 0.499076 0.227663
C7    C     C_R   0.324857 0.234485 0.420127 -0.239744
C8    C     C_R   0.675165 0.765544 0.579827 -0.239771
C9    C     C_R   0.366090 0.169805 0.453591 0.311831
C10   C     C_R   0.633920 0.830218 0.546375 0.311823
C11   C     C_R   0.416485 0.129339 0.426112 -0.082825
C12   C     C_R   0.500868 0.737862 0.499776 0.829040
C13   C     C_R   0.583529 0.870661 0.573870 -0.082841
C14   C     C_R   0.424803 0.152994 0.364376 0.064281
C15   C     C_R   0.575226 0.846986 0.635606 0.064287
C16   C     C_R   0.390785 0.504570 0.499650 0.854468
C17   C     C_R   0.609215 0.495431 0.500349 0.854447
C18   C     C_R   0.382837 0.219055 0.330865 0.134434
C19   C     C_R   0.617201 0.780922 0.669103 0.134454
C20   C     C_R   0.333037 0.260159 0.359371 0.335270
C21   C     C_R   0.666998 0.739848 0.640583 0.335267
C22   C     C_R   0.463064 0.935361 0.462241 -0.153209
C23   C     C_R   0.236442 0.564848 0.453537 0.208763
C24   C     C_R   0.536938 0.064638 0.537757 -0.153209
C25   C     C_R   0.501735 0.871546 0.499490 -0.057519
C26   C     C_R   0.498267 0.128453 0.500509 -0.057523
C27   C     C_R   0.539248 0.935872 0.537378 0.121068
C28   C     C_R   0.460756 0.064127 0.462618 0.121070
C29   C     C_R   0.541799 0.438925 0.873357 0.628596
C30   C     C_R   0.458198 0.561064 0.126643 0.628598
C31   C     C_R   0.478836 0.605495 0.872904 0.631397
C32   C     C_R   0.521159 0.394490 0.127097 0.631404
C33   C     C_R   0.471142 0.597424 0.936092 -0.107211
C34   C     C_R   0.763556 0.435152 0.546465 0.208805
C35   C     C_R   0.528852 0.402558 0.063908 -0.107210
C36   C     C_R   0.501636 0.503831 0.968217 -0.060266
C37   C     C_R   0.498358 0.496152 0.031783 -0.060265
C38   C     C_R   0.537671 0.422006 0.936596 -0.107556
C39   C     C_R   0.462324 0.577979 0.063403 -0.107558
C40   C     C_R   0.879476 0.603026 0.514557 0.599173
C41   C     C_R   0.120524 0.396975 0.485459 0.599157
C42   C     C_R   0.435138 0.680344 0.967803 0.154149
C43   C     C_R   0.564854 0.319635 0.032196 0.154144
C44   C     C_R   0.431354 0.671814 0.031163 0.157758
C45   C     C_R   0.296284 0.570425 0.453196 0.106162
C46   C     C_R   0.568641 0.328171 0.968836 0.157758
C47   C     C_R   0.541816 0.425431 0.259825 0.125066
C48   C     C_R   0.458184 0.574564 0.740175 0.125068
C49   C     C_R   0.534892 0.419167 0.322376 0.015234
C50   C     C_R   0.465108 0.580831 0.677625 0.015253
C51   C     C_R   0.475884 0.595992 0.319546 0.043304
C52   C     C_R   0.524116 0.404008 0.680453 0.043297
C53   C     C_R   0.481047 0.604943 0.256906 0.121446
C54   C     C_R   0.518953 0.395053 0.743093 0.121438
C55   C     C_R   0.505812 0.505177 0.224252 0.169147
C56   C     C_R   0.703715 0.429571 0.546804 0.106185
C57   C     C_R   0.494187 0.494816 0.775748 0.169151
C58   C     C_R   0.880808 0.395159 0.478513 0.594701
C59   C     C_R   0.119192 0.604849 0.521494 0.594706
C60   C     C_R   0.940881 0.391024 0.480217 -0.078181
C61   C     C_R   0.059119 0.608976 0.519800 -0.078183
C62   C     C_R   0.969931 0.499075 0.498911 -0.037789
C63   C     C_R   0.030069 0.500926 0.501107 -0.037787
C64   C     C_R   0.938935 0.605611 0.515551 -0.049236
C65   C     C_R   0.061064 0.394389 0.484468 -0.049235
C66   C     C_R   0.973177 0.284064 0.464672 0.202703
C67   C     C_R   0.328140 0.508675 0.499169 -0.159888
C68   C     C_R   0.026822 0.715930 0.535354 0.202698
C69   C     C_R   0.032355 0.287561 0.466772 -0.155300
C70   C     C_R   0.967644 0.712433 0.533254 -0.155294
C71   C     C_R   0.671860 0.491326 0.500832 -0.159880
C72   C     C_R   0.299618 0.448677 0.546041 -0.190499
Cl1   Cl    Cl    0.279512 0.344072 0.320364 -0.461777
Cl2   Cl    Cl    0.720537 0.655947 0.679572 -0.461803
Cl3   Cl    Cl    0.353197 0.139751 0.530077 -0.566240
Cl4   Cl    Cl    0.646795 0.860291 0.469888 -0.566224
Cu1   Cu    Cu3+1 0.500000 0.499970 0.559570 0.992016
Cu2   Cu    Cu3+1 0.500000 0.500030 0.440430 0.992017
H1    H     H_    0.433775 0.884792 0.433968 0.165724
H2    H     H_    0.676882 0.598017 0.418111 0.216193
H3    H     H_    0.219312 0.399583 0.583451 0.184345
H4    H     H_    0.780690 0.600434 0.416557 0.184357
H5    H     H_    0.286165 0.265371 0.441539 0.229073
H6    H     H_    0.713854 0.734679 0.558404 0.229093
H7    H     H_    0.566228 0.115207 0.566030 0.165725
H8    H     H_    0.561946 0.357840 0.349043 0.178547
H9    H     H_    0.438054 0.642159 0.650959 0.178541
H10   H     H_    0.457294 0.672304 0.343720 0.172388
H11   H     H_    0.542707 0.327695 0.656278 0.172389
H12   H     H_    0.056052 0.205017 0.454558 0.215496
H13   H     H_    0.943948 0.794973 0.545475 0.215498
H14   H     H_    0.323119 0.401996 0.581893 0.216181
I1    I     I_    0.940254 0.108323 0.439049 -0.131584
I2    I     I_    0.616034 0.185735 0.923121 -0.053404
I3    I     I_    0.624477 0.366724 0.232979 -0.162984
I4    I     I_    0.375521 0.633263 0.767020 -0.163008
I5    I     I_    0.476031 0.790706 0.223461 -0.136515
I6    I     I_    0.523970 0.209289 0.776537 -0.136519
I7    I     I_    0.185775 0.645566 0.382781 -0.084891
I8    I     I_    0.814222 0.354425 0.617220 -0.084880
I9    I     I_    0.336405 0.684027 0.387152 -0.213200
I10   I     I_    0.663593 0.315961 0.612844 -0.213225
I11   I     I_    0.059744 0.891657 0.561003 -0.131574
I12   I     I_    0.501470 0.090348 0.323331 -0.183132
I13   I     I_    0.498567 0.909612 0.676675 -0.183162
I14   I     I_    0.393350 0.256974 0.237524 -0.056042
I15   I     I_    0.606701 0.742944 0.762440 -0.056040
I16   I     I_    0.379377 0.809826 0.921039 -0.070926
I17   I     I_    0.620607 0.190136 0.078961 -0.070920
I18   I     I_    0.383968 0.814259 0.076880 -0.053401
N1    N     N_R   0.851932 0.498706 0.496856 -0.465022
N2    N     N_R   0.148067 0.501301 0.503152 -0.465021
N3    N     N_R   0.501859 0.507967 0.841812 -0.441773
N4    N     N_R   0.498139 0.492022 0.158187 -0.441775
N5    N     N_R   0.500010 0.500010 0.350920 -0.215966
N6    N     N_R   0.499990 0.499990 0.649080 -0.215963
O1    O     O_R   0.500000 0.319610 0.550310 -0.575202
O2    O     O_2   0.150776 0.296471 0.468336 -0.489855
O3    O     O_2   0.850880 0.297513 0.459057 -0.464490
O4    O     O_2   0.149120 0.702504 0.540937 -0.464491
O5    O     O_2   0.589036 0.400997 0.845117 -0.451240
O6    O     O_2   0.410963 0.598997 0.154885 -0.451232
O7    O     O_2   0.471282 0.715354 0.844680 -0.453019
O8    O     O_2   0.528714 0.284635 0.155323 -0.453021
O9    O     O_R   0.500000 0.680390 0.449690 -0.575203
O10   O     O_R   0.499990 0.319670 0.449690 -0.586203
O11   O     O_R   0.500010 0.680330 0.550310 -0.586197
O12   O     O_R   0.417880 0.499930 0.550320 -0.576265
O13   O     O_R   0.582120 0.500070 0.449680 -0.576260
O14   O     O_R   0.417880 0.499990 0.449700 -0.564986
O15   O     O_R   0.582120 0.500010 0.550300 -0.564988
O16   O     O_2   0.849223 0.703528 0.531684 -0.489852

loop_
_geom_bond_atom_site_label_1
_geom_bond_atom_site_label_2
_ccdc_geom_bond_type
C23   I7    S    
C63   C65   A    
C34   C56   A    
C59   O4    S    
C23   C45   A    
C17   O15   A    
C6    N1    S    
C14   C18   A    
C7    H5    S    
Cu2   N5    S    
C24   C27   A    
C48   C57   A    
C47   C49   A    
C12   O11   A    
Cu1   Cu2   S    
C68   I11   S    
C15   C19   A    
C33   C42   A    
C36   C37   A    
C35   C37   A    
Cu2   O13   S    
C24   C26   A    
C22   H1    S    
C52   N6    A    
Cu1   O1    S    
C72   H14   S    
C11   C14   A    
C66   C69   A    
C58   C60   A    
C33   C36   A    
C60   C62   A    
C67   C72   A    
Cu1   O15   S    
C61   C63   A    
C32   O8    S    
C62   C64   A    
C10   Cl4   S    
C30   O6    S    
C41   N2    A    
C5    C23   A    
C29   C38   A    
C45   C67   A    
C34   I8    S    
C31   C33   A    
C64   C70   A    
C41   O2    S    
Cu1   N6    S    
C16   O14   A    
C24   H7    S    
C18   C20   A    
Cu1   O11   S    
C48   C50   A    
C40   O16   S    
C60   C66   A    
C22   C28   A    
C52   H11   S    
C42   C44   A    
C52   C54   A    
C8    C21   A    
C40   N1    A    
C53   C55   A    
C59   C61   A    
C17   O13   A    
C58   N1    A    
C32   C35   A    
C1    O10   A    
C4    C6    A    
C41   C65   A    
C12   O9    A    
C53   I5    S    
C20   Cl1   S    
C21   Cl2   S    
C22   C25   A    
C51   N5    A    
C6    C34   A    
C29   O5    S    
C51   C53   A    
C2    C4    A    
C18   I14   S    
C3    H3    S    
C62   C63   A    
C9    C11   A    
C14   I12   S    
C46   I2    S    
C56   C71   A    
C59   N2    A    
C16   C67   S    
C1    O1    A    
C16   O12   A    
C70   H13   S    
Cu1   O12   S    
C45   I9    S    
C50   H9    S    
C66   I1    S    
C8    C10   A    
C49   N5    A    
C17   C71   S    
C13   C15   A    
C1    C26   S    
C2    C71   A    
Cu2   O10   S    
C35   C43   A    
C47   C55   A    
C30   N4    A    
C7    C9    A    
C29   N3    A    
C48   I4    S    
C19   C21   A    
C8    H6    S    
C49   H8    S    
C54   I6    S    
C3    C5    A    
C10   C13   A    
C51   H10   S    
C57   N3    S    
C39   C44   A    
C55   N4    S    
C25   C27   A    
C5    N2    S    
C9    Cl3   S    
C26   C28   A    
C40   C64   A    
C12   C25   S    
C15   I13   S    
C36   C38   A    
C3    C72   A    
Cu2   O14   S    
C56   I10   S    
C37   C39   A    
C61   C68   A    
C11   C28   S    
C65   C69   A    
C58   O3    S    
C30   C39   A    
C50   N6    A    
C43   C46   A    
C38   C46   A    
C2    H2    S    
C31   O7    S    
C4    H4    S    
C68   C70   A    
C7    C20   A    
C47   I3    S    
C13   C27   S    
C43   I17   S    
C32   N4    A    
Cu2   O9    S    
C42   I16   S    
C31   N3    A    
C69   H12   S    
C44   I18   S    
C54   C57   A    
C19   I15   S    
