data_mof_unit_37010.cif
_audit_creation_date              2013-03-05T15:39:28-0500
_audit_creation_method            fapswitch 2.2
_symmetry_space_group_name_H-M    P1
_symmetry_Int_Tables_number       1
_space_group_crystal_system       triclinic
_cell_length_a                    16.872747
_cell_length_b                    16.871055
_cell_length_c                    16.870741
_cell_angle_alpha                 66.891504
_cell_angle_beta                  66.785846
_cell_angle_gamma                 66.788098
_cell_volume                      3893.23838833

loop_
_atom_site_label
_atom_site_type_symbol
_atom_site_description
_atom_site_fract_x
_atom_site_fract_y
_atom_site_fract_z
_atom_type_partial_charge
O1    O     O_R   0.124540 0.978640 0.385460 -0.548140
O2    O     O_R   0.875460 0.021360 0.614540 -0.540576
O3    O     O_R   0.978640 0.385460 0.124540 -0.545724
O4    O     O_R   0.021360 0.614540 0.875460 -0.540431
O5    O     O_R   0.385460 0.124540 0.978640 -0.546653
O6    O     O_R   0.614540 0.875460 0.021360 -0.540628
O7    O     O_R   0.614540 0.021360 0.875460 -0.546671
O8    O     O_R   0.385460 0.978640 0.124540 -0.540634
O9    O     O_R   0.875460 0.614540 0.021360 -0.548110
O10   O     O_R   0.124540 0.385460 0.978640 -0.540549
O11   O     O_R   0.021360 0.875460 0.614540 -0.545752
O12   O     O_R   0.978640 0.124540 0.385460 -0.540472
C1    C     C_R   0.590766 0.026567 0.602944 -0.043287
C2    C     C_R   0.396289 0.975907 0.408558 -0.046657
C3    C     C_R   0.018494 0.602973 0.594960 -0.025146
C4    C     C_R   0.981863 0.404932 0.396869 -0.025854
C5    C     C_R   0.603712 0.591490 0.024018 -0.046569
C6    C     C_R   0.409225 0.397051 0.973455 -0.043351
Cu1   Cu    Cu3+1 0.995180 0.995180 0.424630 1.167106
Cu2   Cu    Cu3+1 0.004820 0.004820 0.575370 1.173946
Cu3   Cu    Cu3+1 0.995180 0.424630 0.995180 1.173807
Cu4   Cu    Cu3+1 0.004820 0.575370 0.004820 1.167052
Cu5   Cu    Cu3+1 0.424630 0.995180 0.995180 1.170525
Cu6   Cu    Cu3+1 0.575370 0.004820 0.004820 1.170487
C7    C     C_R   0.032458 0.828477 0.563304 0.816286
C8    C     C_R   0.981933 0.169470 0.430629 0.853598
C9    C     C_R   0.828603 0.563043 0.033585 0.811345
C10   C     C_R   0.169642 0.430472 0.982092 0.851913
C11   C     C_R   0.562903 0.033796 0.828655 0.813045
C12   C     C_R   0.430380 0.982433 0.169512 0.851195
C13   C     C_R   0.437095 0.171344 0.966211 0.813005
C14   C     C_R   0.569620 0.830491 0.017565 0.851263
C15   C     C_R   0.967537 0.436696 0.171526 0.816244
C16   C     C_R   0.018105 0.569353 0.830520 0.853071
C17   C     C_R   0.171394 0.966406 0.436961 0.811735
C18   C     C_R   0.830355 0.017920 0.569525 0.851900
O13   O     O_R   0.013780 0.867370 0.487190 -0.519662
O14   O     O_R   0.986220 0.132630 0.512810 -0.523144
O15   O     O_R   0.867370 0.487190 0.013780 -0.518875
O16   O     O_R   0.132630 0.512810 0.986220 -0.524065
O17   O     O_R   0.487190 0.013780 0.867370 -0.519510
O18   O     O_R   0.512810 0.986220 0.132630 -0.525156
O19   O     O_R   0.512810 0.132630 0.986220 -0.519582
O20   O     O_R   0.487190 0.867370 0.013780 -0.525164
O21   O     O_R   0.986220 0.512810 0.132630 -0.519617
O22   O     O_R   0.013780 0.487190 0.867370 -0.523055
O23   O     O_R   0.132630 0.986220 0.512810 -0.518795
O24   O     O_R   0.867370 0.013780 0.487190 -0.524071
C19   C     C_R   0.538711 0.014793 0.554078 -0.168968
C20   C     C_R   0.445123 0.987975 0.460585 -0.168384
C21   C     C_R   0.006277 0.552104 0.545717 -0.174627
C22   C     C_R   0.994217 0.454116 0.447709 -0.175329
C23   C     C_R   0.554877 0.539492 0.011918 -0.168232
C24   C     C_R   0.461280 0.445948 0.985190 -0.168922
C25   C     C_R   0.576312 0.017053 0.461768 0.222893
C26   C     C_R   0.401596 0.000607 0.548169 0.196538
C27   C     C_R   0.012556 0.458747 0.582736 0.219445
C28   C     C_R   0.010590 0.539743 0.405325 0.223981
C29   C     C_R   0.463093 0.578084 0.012025 0.224371
C30   C     C_R   0.547497 0.401557 0.000549 0.198599
C31   C     C_R   0.536893 0.987926 0.421963 0.224440
C32   C     C_R   0.452537 0.999339 0.598517 0.198656
C33   C     C_R   0.423653 0.538251 0.982951 0.222868
C34   C     C_R   0.598434 0.451953 0.999203 0.196756
C35   C     C_R   0.988346 0.416926 0.540981 0.219161
C36   C     C_R   0.989641 0.594545 0.460209 0.224161
C37   C     C_R   0.547530 0.065194 0.675939 0.427245
C38   C     C_R   0.418706 0.007254 0.312728 0.408502
C39   C     C_R   0.055165 0.677140 0.548793 0.420013
C40   C     C_R   0.010055 0.309636 0.419326 0.407654
C41   C     C_R   0.675934 0.548254 0.063670 0.426972
C42   C     C_R   0.313400 0.419639 0.005228 0.403570
C43   C     C_R   0.324063 0.936257 0.451764 0.426986
C44   C     C_R   0.686592 0.994813 0.580338 0.403486
C45   C     C_R   0.452460 0.324059 0.934826 0.427324
C46   C     C_R   0.581311 0.687309 0.992688 0.408422
C47   C     C_R   0.944981 0.451150 0.322845 0.420209
C48   C     C_R   0.990334 0.580406 0.690256 0.406977
C49   C     C_R   0.598287 0.055022 0.729950 -0.289489
C50   C     C_R   0.388090 0.976661 0.265883 -0.275452
C51   C     C_R   0.051271 0.729748 0.598503 -0.292977
C52   C     C_R   0.977224 0.265310 0.388492 -0.273027
C53   C     C_R   0.729931 0.598731 0.054116 -0.288705
C54   C     C_R   0.266229 0.388374 0.975700 -0.271414
C55   C     C_R   0.270062 0.945862 0.401272 -0.288482
C56   C     C_R   0.733764 0.024327 0.611616 -0.271398
C57   C     C_R   0.401705 0.270045 0.945001 -0.289491
C58   C     C_R   0.611913 0.734129 0.023320 -0.275490
C59   C     C_R   0.948734 0.401494 0.270259 -0.293086
C60   C     C_R   0.022879 0.611445 0.734662 -0.273228
C61   C     C_R   0.688067 0.054519 0.688715 0.297498
C62   C     C_R   0.311205 0.946369 0.311560 0.300258
C63   C     C_R   0.054069 0.687728 0.687420 0.298331
C64   C     C_R   0.945892 0.312592 0.312298 0.298280
C65   C     C_R   0.688783 0.688436 0.053637 0.300284
C66   C     C_R   0.311926 0.311277 0.945506 0.297455
N1    N     N_R   0.417510 0.978844 0.694738 0.204045
O25   O     O_R   0.339923 0.027242 0.732566 -0.213443
O26   O     O_R   0.465565 0.914111 0.745108 -0.356526
N2    N     N_R   0.591749 0.952581 0.346322 0.189822
O27   O     O_R   0.635106 0.000504 0.272664 -0.201139
O28   O     O_R   0.594784 0.873095 0.349628 -0.395437
N3    N     N_R   0.941838 0.688833 0.433240 0.199871
O29   O     O_R   0.917703 0.722057 0.359632 -0.250632
O30   O     O_R   0.902912 0.735404 0.491001 -0.370669
N4    N     N_R   0.954318 0.340439 0.593892 0.190999
O31   O     O_R   0.002161 0.267565 0.638194 -0.202298
O32   O     O_R   0.875992 0.342496 0.594985 -0.392873
N5    N     N_R   0.694323 0.414661 0.981727 0.204418
O33   O     O_R   0.729344 0.337403 0.032415 -0.213525
O34   O     O_R   0.747212 0.460235 0.917377 -0.352339
N6    N     N_R   0.348834 0.592766 0.946443 0.189271
O35   O     O_R   0.274766 0.637065 0.993297 -0.200996
O36   O     O_R   0.353005 0.593927 0.867326 -0.394550
N7    N     N_R   0.305736 0.017850 0.585605 0.204519
O37   O     O_R   0.270909 0.966994 0.662846 -0.213728
O38   O     O_R   0.252678 0.082232 0.540243 -0.350966
N8    N     N_R   0.651076 0.053643 0.407222 0.189239
O39   O     O_R   0.725172 0.006839 0.362903 -0.201030
O40   O     O_R   0.646839 0.132774 0.406079 -0.394610
N9    N     N_R   0.582550 0.305341 0.021066 0.204027
O41   O     O_R   0.660111 0.267520 0.972628 -0.213576
O42   O     O_R   0.534529 0.254965 0.085851 -0.356603
N10   N     N_R   0.408257 0.653749 0.047329 0.189831
O43   O     O_R   0.364931 0.727397 0.999372 -0.201114
O44   O     O_R   0.405205 0.650476 0.126811 -0.395425
N11   N     N_R   0.058188 0.566913 0.310991 0.199845
O45   O     O_R   0.082189 0.640594 0.277818 -0.250551
O46   O     O_R   0.097080 0.509287 0.264269 -0.370187
N12   N     N_R   0.046962 0.405850 0.658989 0.190864
O47   O     O_R   0.999512 0.361168 0.731900 -0.202595
O48   O     O_R   0.125198 0.405206 0.656715 -0.393458
O49   O     O_3   0.457773 0.112908 0.695509 -0.510710
C67   C     C_3   0.448075 0.199314 0.633966 -0.295931
H1    H     H_    0.468368 0.196267 0.563726 0.181413
H2    H     H_    0.486889 0.236255 0.639445 0.121787
H3    H     H_    0.376092 0.238069 0.650206 0.203735
O50   O     O_3   0.464987 0.071200 0.265116 -0.489957
C68   C     C_3   0.404378 0.155824 0.273136 -0.237710
H4    H     H_    0.367717 0.155949 0.344314 0.131095
H5    H     H_    0.355785 0.178482 0.233921 0.127266
H6    H     H_    0.442847 0.205461 0.245738 0.232188
O51   O     O_3   0.087543 0.703100 0.456192 -0.502070
C69   C     C_3   0.177296 0.650495 0.431743 -0.263312
H7    H     H_    0.181775 0.578033 0.451492 0.165894
H8    H     H_    0.220183 0.660007 0.461425 0.109386
H9    H     H_    0.204391 0.672202 0.357586 0.217481
O52   O     O_3   0.073440 0.260046 0.466141 -0.490478
C70   C     C_3   0.159050 0.264200 0.405599 -0.235924
H10   H     H_    0.161487 0.334161 0.365711 0.142377
H11   H     H_    0.180758 0.221968 0.359916 0.128550
H12   H     H_    0.208219 0.238026 0.444386 0.230051
O53   O     O_3   0.694130 0.459062 0.112842 -0.509437
C71   C     C_3   0.631515 0.451354 0.198771 -0.292754
H13   H     H_    0.561561 0.471730 0.194950 0.180544
H14   H     H_    0.636641 0.491237 0.234883 0.120852
H15   H     H_    0.646897 0.379873 0.238805 0.204340
O54   O     O_3   0.266193 0.467236 0.068245 -0.492646
C72   C     C_3   0.277292 0.409357 0.152839 -0.211102
H16   H     H_    0.347376 0.365683 0.150299 0.121947
H17   H     H_    0.230458 0.366973 0.183637 0.142057
H18   H     H_    0.261435 0.450810 0.197187 0.234847
O55   O     O_3   0.305901 0.886982 0.540926 -0.509556
C73   C     C_3   0.368539 0.801073 0.548526 -0.292868
H19   H     H_    0.438485 0.804911 0.528172 0.180666
H20   H     H_    0.363423 0.765041 0.508562 0.120886
H21   H     H_    0.353173 0.760955 0.619981 0.204279
O56   O     O_3   0.733802 0.931836 0.532697 -0.492762
C74   C     C_3   0.722706 0.847229 0.590531 -0.210785
H22   H     H_    0.652618 0.849747 0.634186 0.121875
H23   H     H_    0.769519 0.816420 0.632938 0.142068
H24   H     H_    0.738591 0.802913 0.549036 0.235070
O57   O     O_3   0.542209 0.304514 0.887076 -0.510651
C75   C     C_3   0.551867 0.366048 0.800663 -0.296326
H25   H     H_    0.531554 0.436293 0.803699 0.181389
H26   H     H_    0.513046 0.360533 0.763753 0.121864
H27   H     H_    0.623844 0.349833 0.761882 0.203513
O58   O     O_3   0.535082 0.734926 0.928701 -0.489883
C76   C     C_3   0.595745 0.726916 0.844089 -0.237920
H28   H     H_    0.557314 0.754248 0.794428 0.232156
H29   H     H_    0.632480 0.655748 0.843971 0.131359
H30   H     H_    0.644280 0.766192 0.821448 0.127316
O59   O     O_3   0.912533 0.543742 0.296983 -0.501979
C77   C     C_3   0.822793 0.568087 0.349655 -0.263392
H31   H     H_    0.818363 0.548248 0.422117 0.165805
H32   H     H_    0.779922 0.538413 0.340107 0.109337
H33   H     H_    0.795644 0.642241 0.328041 0.217573
O60   O     O_3   0.927332 0.533131 0.739747 -0.490752
C78   C     C_3   0.841431 0.593359 0.736369 -0.233633
H34   H     H_    0.838808 0.635264 0.666933 0.140126
H35   H     H_    0.818974 0.637122 0.780688 0.130571
H36   H     H_    0.792961 0.554186 0.760536 0.230075
O61   O     O_3   0.733108 0.074196 0.728597 -0.510815
C79   C     C_3   0.707054 0.168171 0.712807 -0.145150
H37   H     H_    0.723550 0.203189 0.639505 0.120309
H38   H     H_    0.745024 0.184303 0.742414 0.227014
H39   H     H_    0.634195 0.194022 0.745611 0.130117
O62   O     O_3   0.271416 0.926447 0.266641 -0.508118
C80   C     C_3   0.289902 0.832306 0.290656 -0.159510
H40   H     H_    0.260159 0.815994 0.252950 0.219161
H41   H     H_    0.258989 0.804779 0.363569 0.116320
H42   H     H_    0.363635 0.799100 0.272203 0.125531
O63   O     O_3   0.077365 0.726436 0.730706 -0.509987
C81   C     C_3   0.171677 0.709095 0.701876 -0.151400
H43   H     H_    0.190720 0.737665 0.738524 0.227973
H44   H     H_    0.195948 0.741866 0.628805 0.126519
H45   H     H_    0.205850 0.635550 0.717611 0.120098
O64   O     O_3   0.922468 0.269345 0.273658 -0.509907
C82   C     C_3   0.828154 0.298302 0.291002 -0.151835
H46   H     H_    0.793976 0.282675 0.364549 0.120011
H47   H     H_    0.809010 0.261656 0.262520 0.227924
H48   H     H_    0.803982 0.371363 0.258147 0.126514
O65   O     O_3   0.728554 0.733336 0.073606 -0.508109
C83   C     C_3   0.710105 0.709238 0.167752 -0.159472
H49   H     H_    0.739814 0.746947 0.184101 0.219180
H50   H     H_    0.741078 0.636329 0.195214 0.116359
H51   H     H_    0.636376 0.727617 0.200995 0.125472
O66   O     O_3   0.266888 0.271397 0.925823 -0.510855
C84   C     C_3   0.292934 0.287208 0.831842 -0.144844
H52   H     H_    0.276428 0.360511 0.796839 0.120464
H53   H     H_    0.254968 0.257601 0.815705 0.227088
H54   H     H_    0.365795 0.254420 0.805977 0.130010

loop_
_geom_bond_atom_site_label_1
_geom_bond_atom_site_label_2
_geom_bond_distance
_ccdc_geom_bond_type
Cu2   O14   1.950206 S    
C38   C50   1.417756 A    
O6    C14   1.297599 A    
O63   C81   1.410302 S    
C6    C45   1.421413 A    
C52   C64   1.402366 A    
O49   C67   1.409854 S    
C45   O57   1.379863 S    
C15   O21   1.293643 A    
C74   H22   1.114040 S    
C79   H38   1.109248 S    
O55   C73   1.409822 S    
C17   O23   1.296388 A    
O8    Cu5   1.951361 S    
C67   H3    1.109051 S    
N6    O36   1.301320 A    
O58   C76   1.412143 S    
C23   C29   1.423419 A    
C73   H20   1.113806 S    
C24   C30   1.424883 A    
O57   C75   1.409855 S    
C48   C60   1.412748 A    
O1    C17   1.301765 A    
C13   O19   1.296833 A    
N10   O43   1.301541 A    
O7    C11   1.301864 A    
C73   H19   1.112763 S    
C37   O49   1.379875 S    
C46   O58   1.381394 S    
C56   C61   1.402028 A    
C70   H11   1.112918 S    
C72   H16   1.114049 S    
C61   O61   1.384836 S    
C23   C34   1.426926 A    
C83   H50   1.112477 S    
O9    Cu4   1.950946 S    
C3    C48   1.419642 A    
C10   C54   1.476867 S    
C24   C33   1.422290 A    
O3    C15   1.305290 A    
O10   C10   1.297843 A    
O51   C69   1.409470 S    
C41   O53   1.379693 S    
C33   N6    1.439439 S    
C82   H48   1.112915 S    
C42   O54   1.381263 S    
C77   H31   1.112928 S    
C4    C47   1.421502 A    
C54   C66   1.402042 A    
C59   C64   1.396362 A    
C78   H35   1.112295 S    
C75   H25   1.112740 S    
Cu1   O13   1.950207 S    
C7    O13   1.293617 A    
N8    O39   1.301508 A    
C38   O50   1.381393 S    
C28   C36   1.411901 A    
Cu1   Cu2   2.681759 S    
C9    O15   1.296403 A    
O64   C82   1.410293 S    
N7    O38   1.299240 A    
C11   C49   1.474572 S    
C80   H42   1.113854 S    
Cu5   Cu6   2.682294 S    
C72   H17   1.111685 S    
O62   C80   1.409968 S    
C16   O22   1.296468 A    
C3    C21   1.517664 S    
C46   C58   1.417717 A    
C71   H14   1.113804 S    
C76   H30   1.112691 S    
C12   C50   1.475790 S    
C79   H37   1.113825 S    
C58   C65   1.401224 A    
C53   C65   1.392517 A    
C28   N11   1.448405 S    
C8    C52   1.472105 S    
Cu3   Cu4   2.681801 S    
C7    C51   1.477585 S    
C74   H23   1.111678 S    
C30   N9    1.438108 S    
C69   H9    1.108955 S    
C62   O62   1.384489 S    
C44   O56   1.381257 S    
N6    O35   1.301511 A    
N1    O26   1.299602 A    
C55   C62   1.392463 A    
N1    O25   1.302142 A    
C41   C53   1.403322 A    
O10   Cu3   1.950945 S    
C6    C42   1.427638 A    
C3    C39   1.421446 A    
O4    C16   1.295593 A    
O11   Cu2   1.952136 S    
O1    Cu1   1.950930 S    
C13   C57   1.474581 S    
O2    Cu2   1.950930 S    
C2    C43   1.422486 A    
C27   N12   1.437903 S    
C4    C40   1.419782 A    
O52   C70   1.412504 S    
C71   H15   1.109058 S    
C69   H8    1.113740 S    
C70   H12   1.106267 S    
C84   H52   1.113824 S    
Cu1   O24   1.948122 S    
C8    O14   1.296538 A    
C67   H2    1.113794 S    
C18   C56   1.476844 S    
O65   C83   1.409985 S    
C20   C26   1.427031 A    
Cu5   O20   1.948871 S    
O12   C8    1.295515 A    
O60   C78   1.412512 S    
C21   C36   1.422155 A    
C50   C62   1.401178 A    
C78   H36   1.106129 S    
N12   O48   1.301248 A    
O59   C77   1.409450 S    
N11   O46   1.299224 A    
C15   C59   1.477613 S    
C5    C46   1.428526 A    
C32   N1    1.438112 S    
C51   C63   1.396359 A    
C16   C60   1.472092 S    
O5    Cu5   1.951428 S    
C81   H45   1.113831 S    
Cu4   O16   1.948154 S    
C57   C66   1.393735 A    
N2    O28   1.301333 A    
C82   H46   1.113833 S    
C71   H13   1.112763 S    
C72   H18   1.107196 S    
C64   O64   1.384652 S    
N3    O30   1.299216 A    
C75   H26   1.113793 S    
C44   C56   1.417601 A    
Cu6   O18   1.948786 S    
C75   H27   1.109050 S    
C43   C55   1.403276 A    
N9    O41   1.302136 A    
C42   C54   1.417606 A    
C22   C28   1.422172 A    
C1    C19   1.525600 S    
C45   C57   1.403472 A    
O56   C74   1.413492 S    
C81   H44   1.112919 S    
C5    C41   1.422492 A    
C34   N5    1.437907 S    
O54   C72   1.413516 S    
C65   O65   1.384497 S    
C74   H24   1.107192 S    
C26   C32   1.416872 A    
C47   O59   1.381855 S    
O3    Cu3   1.952083 S    
C31   N2    1.439379 S    
C40   O52   1.381834 S    
O7    Cu6   1.951363 S    
N11   O45   1.301739 A    
C5    C23   1.527469 S    
C35   N4    1.437857 S    
O9    C9    1.301800 A    
C60   C63   1.402342 A    
N10   O44   1.301332 A    
Cu3   O22   1.950158 S    
C1    C37   1.421398 A    
C40   C52   1.412718 A    
O2    C18   1.297837 A    
C29   N10   1.439356 S    
C20   C31   1.423447 A    
O4    Cu4   1.952085 S    
C17   C55   1.474106 S    
C2    C38   1.428641 A    
C19   C32   1.424844 A    
C11   O17   1.296821 A    
C83   H49   1.109149 S    
C49   C61   1.393729 A    
C36   N3    1.448386 S    
C73   H21   1.109062 S    
C4    C22   1.517761 S    
C27   C35   1.416013 A    
C69   H7    1.112910 S    
C83   H51   1.113856 S    
C68   H4    1.113566 S    
O6    Cu6   1.951429 S    
C47   C59   1.410737 A    
C39   O51   1.381876 S    
C67   H1    1.112738 S    
C29   C33   1.415486 A    
Cu5   O17   1.948788 S    
C77   H33   1.108963 S    
C30   C34   1.416872 A    
O8    C12   1.297628 A    
N5    O34   1.299231 A    
N12   O47   1.301467 A    
C43   O55   1.379687 S    
C19   C25   1.422254 A    
N5    O33   1.302175 A    
C84   H54   1.112767 S    
C68   H5    1.112695 S    
O66   C84   1.410424 S    
C2    C20   1.527558 S    
N4    O32   1.301250 A    
C68   H6    1.106505 S    
C66   O66   1.384835 S    
C25   C31   1.415490 A    
O12   Cu1   1.952136 S    
C9    C53   1.474181 S    
N2    O27   1.301538 A    
C82   H47   1.109258 S    
C26   N7    1.437895 S    
C77   H32   1.113743 S    
C18   O24   1.297017 A    
C84   H53   1.109250 S    
C78   H34   1.113636 S    
C63   O63   1.384652 S    
N8    O40   1.301319 A    
N9    O42   1.299604 A    
Cu2   O23   1.948122 S    
C39   C51   1.410769 A    
O50   C68   1.412112 S    
C6    C24   1.525625 S    
C76   H28   1.106512 S    
C79   H39   1.112765 S    
O11   C7    1.305267 A    
C21   C27   1.424957 A    
C80   H40   1.109148 S    
Cu4   O21   1.950157 S    
C48   O60   1.381725 S    
C81   H43   1.109260 S    
C14   O20   1.297032 A    
O61   C79   1.410423 S    
N4    O31   1.301478 A    
N3    O29   1.301737 A    
C80   H41   1.112468 S    
Cu6   O19   1.948871 S    
C10   O16   1.297051 A    
C12   O18   1.297016 A    
Cu3   O15   1.948155 S    
C76   H29   1.113601 S    
O53   C71   1.409818 S    
C70   H10   1.113851 S    
C37   C49   1.403476 A    
C22   C35   1.425027 A    
N7    O37   1.302191 A    
C1    C44   1.427628 A    
O5    C13   1.301858 A    
C25   N8    1.439446 S    
C14   C58   1.475767 S    
