data_mof_unit_10301.cif
_audit_creation_date              2012-12-11T16:56:08-0500
_audit_creation_method            fapswitch 2.2
_symmetry_space_group_name_H-M    P1
_symmetry_Int_Tables_number       1
_space_group_crystal_system       triclinic
_cell_length_a                    6.956289
_cell_length_b                    14.526598
_cell_length_c                    16.199858
_cell_angle_alpha                 90.388484
_cell_angle_beta                  89.900324
_cell_angle_gamma                 90.119194
_cell_volume                      1636.97170709

loop_
_atom_site_label
_atom_site_type_symbol
_atom_type_description
_atom_site_fract_x
_atom_site_fract_y
_atom_site_fract_z
_atom_type_partial_charge
O1    O     O_R   0.505830 0.583360 0.413880 -0.546740
O2    O     O_R   0.175830 0.595460 0.585520 -0.540786
O3    O     O_R   0.005520 0.416640 0.586120 -0.544199
C1    C     C_R   0.344865 0.619464 0.612817 0.698026
O4    O     O_R   0.176120 0.594390 0.414490 -0.544886
O5    O     O_R   0.005810 0.415570 0.413870 -0.546301
C2    C     C_R   0.344961 0.616298 0.386114 0.733031
O6    O     O_R   0.505540 0.584430 0.586130 -0.538265
O7    O     O_3   0.339200 0.441330 0.500000 -0.357881
V1    V     V_3+5 0.064350 0.510880 0.500000 1.436595
O8    O     O_R   0.676100 0.404540 0.414480 -0.526301
C3    C     C_R   0.845066 0.382585 0.385690 0.706944
O9    O     O_R   0.675810 0.405610 0.585510 -0.503073
C4    C     C_R   0.844115 0.383850 0.614010 0.774773
V2    V     V_3+5 0.564340 0.489120 0.500000 1.488940
O10   O     O_3   0.839360 0.558670 0.500000 -0.386155
C5    C     C_2   0.720236 0.209169 0.787732 -0.223859
C6    C     C_2   0.885589 0.183997 0.824416 -0.339676
H1    H     H_    0.587706 0.176341 0.807592 0.140944
H2    H     H_    0.020871 0.216251 0.808196 0.126936
C7    C     C_2   0.702147 0.281872 0.722757 0.383411
C8    C     C_2   0.856158 0.313891 0.680117 -0.314548
C9    C     C_R   0.722970 0.183290 0.240829 0.099920
C10   C     C_R   0.882017 0.180314 0.187626 -0.106016
C11   C     C_R   0.034131 0.241851 0.203724 -0.184757
C12   C     C_R   0.021966 0.306723 0.268489 -0.180451
C13   C     C_R   0.858332 0.312132 0.319251 -0.109294
C14   C     C_R   0.710780 0.248593 0.304577 0.043302
C15   C     C_3   0.504994 0.267751 0.285108 0.177338
C16   C     C_3   0.516838 0.194192 0.218022 -0.454374
H3    H     H_    0.431533 0.131541 0.232546 0.168631
C17   C     C_R   0.492600 0.678136 0.743809 0.062548
C18   C     C_R   0.353469 0.687687 0.681788 -0.201645
C19   C     C_R   0.214624 0.759075 0.692732 0.341892
C20   C     C_R   0.223637 0.817423 0.762782 -0.169545
H4    H     H_    0.118685 0.872084 0.768745 0.142537
C21   C     C_R   0.375791 0.811996 0.819986 -0.169563
C22   C     C_R   0.505176 0.739231 0.810134 0.088484
C23   C     C_3   0.719459 0.738550 0.809033 -0.378120
C24   C     C_3   0.706149 0.671253 0.736892 -0.355556
H5    H     H_    0.780642 0.707347 0.865638 0.170991
H6    H     H_    0.781537 0.806327 0.791760 0.186601
H7    H     H_    0.759136 0.601239 0.752047 0.162459
H8    H     H_    0.760733 0.699595 0.677828 0.218531
C25   C     C_R   0.479291 0.758863 0.319562 -0.033288
C26   C     C_R   0.351819 0.684391 0.318584 -0.194932
C27   C     C_R   0.223414 0.678075 0.251564 -0.153722
C28   C     C_R   0.238999 0.737267 0.182790 0.397043
C29   C     C_R   0.377320 0.810142 0.183143 -0.247781
C30   C     C_R   0.489292 0.820894 0.254479 -0.004717
C31   C     C_3   0.702077 0.832140 0.265518 0.650756
C32   C     C_3   0.689896 0.763954 0.337299 0.109412
O11   O     O_R   0.229930 0.912420 0.917160 -0.546971
O12   O     O_R   0.559420 0.902500 0.088780 -0.511842
O13   O     O_R   0.729660 0.081330 0.089380 -0.533444
C33   C     C_R   0.390130 0.879173 0.116102 0.735179
O14   O     O_R   0.559650 0.901420 0.917750 -0.542368
O15   O     O_R   0.729880 0.080250 0.917130 -0.542568
C34   C     C_R   0.390545 0.879669 0.888762 0.696297
O16   O     O_R   0.229700 0.913500 0.089410 -0.526082
O17   O     O_3   0.396250 0.055540 0.003280 -0.382586
V3    V     V_3+5 0.671130 0.986010 0.003260 1.478237
O18   O     O_R   0.059600 0.091310 0.917720 -0.550610
C35   C     C_R   0.891185 0.113544 0.889815 0.750154
O19   O     O_R   0.059370 0.092380 0.088750 -0.547831
C36   C     C_R   0.890563 0.114450 0.117419 0.723920
V4    V     V_3+5 0.171120 0.007820 0.003230 1.430171
O20   O     O_3   0.896130 0.938240 0.003240 -0.355015
O21   O     O_3   0.076898 0.779102 0.634432 -0.646685
H9    H     H_    0.122996 0.758262 0.579614 0.296095
H10   H     H_    0.119296 0.622505 0.249544 0.134062
O22   O     O_3   0.125356 0.717039 0.115224 -0.633222
H11   H     H_    0.178631 0.747451 0.065747 0.282932
O23   O     O_3   0.750726 0.922314 0.289016 -0.610159
H12   H     H_    0.890984 0.921886 0.300118 0.317410
O24   O     O_3   0.810703 0.801006 0.197521 -0.629891
H13   H     H_    0.766158 0.738011 0.182718 0.272670
O25   O     O_3   0.725524 0.805488 0.414137 -0.610474
H14   H     H_    0.710549 0.756059 0.455652 0.305017
H15   H     H_    0.768410 0.698013 0.327233 0.069513
O26   O     O_3   0.521617 0.316160 0.704696 -0.632532
H16   H     H_    0.425781 0.287350 0.741833 0.272108
H17   H     H_    0.998804 0.287768 0.692575 0.097022
H18   H     H_    0.157550 0.243470 0.163232 0.149259
H19   H     H_    0.135214 0.356683 0.276174 0.191842
O27   O     O_3   0.477361 0.357328 0.254271 -0.650029
H20   H     H_    0.568119 0.367823 0.207825 0.298636
H21   H     H_    0.405871 0.250584 0.336646 0.130146
H22   H     H_    0.497989 0.220227 0.154138 0.168028

loop_
_geom_bond_atom_site_label_1
_geom_bond_atom_site_label_2
_ccdc_geom_bond_type
O15   V3    S    
C20   H4    S    
C31   O23   S    
C1    O6    A    
O26   H16   S    
O11   C34   A    
O14   V3    S    
C23   H5    S    
C25   C26   A    
C12   C13   A    
C21   C22   A    
C14   C15   S    
C20   C21   A    
O5    C3    A    
C22   C23   S    
O14   C34   A    
V2    O10   S    
O13   V3    S    
C19   C20   A    
C15   H21   S    
C26   C27   A    
O8    V2    S    
C24   H7    S    
O16   V4    S    
O19   V4    S    
C11   H18   S    
C9    C10   A    
O1    V2    S    
C17   C22   A    
O7    V1    S    
C10   C36   S    
O9    C4    A    
O21   H9    S    
C28   O22   S    
C16   H22   S    
C32   O25   S    
C5    C6    D    
C23   H6    S    
O12   C33   A    
O15   C35   A    
O18   V4    S    
O23   H12   S    
C3    C13   S    
C31   C32   S    
C9    C16   S    
C10   C11   A    
C23   C24   S    
O4    C2    A    
O27   H20   S    
O12   V3    S    
C25   C32   S    
C30   C31   S    
C11   C12   A    
C5    C7    S    
V4    O20   S    
O2    C1    A    
C2    C26   S    
C15   C16   S    
O17   V4    S    
C27   C28   A    
C18   C19   A    
C9    C14   A    
O24   H13   S    
C19   O21   S    
C27   H10   S    
C15   O27   S    
C21   C34   S    
O3    C4    A    
C28   C29   A    
C7    O26   S    
C29   C30   A    
O6    V2    S    
O9    V2    S    
O2    V1    S    
C13   C14   A    
O13   C36   A    
C1    C18   S    
O1    C2    A    
C32   H15   S    
O22   H11   S    
O5    V1    S    
O8    C3    A    
C29   C33   S    
V3    O20   S    
C17   C18   A    
C4    C8    S    
O7    V2    S    
O4    V1    S    
O3    V1    S    
V1    O10   S    
C8    H17   S    
O25   H14   S    
C6    C35   S    
C16   H3    S    
C25   C30   A    
C12   H19   S    
C5    H1    S    
C6    H2    S    
C17   C24   S    
O17   V3    S    
O11   V4    S    
O18   C35   A    
C33   O16   A    
C24   H8    S    
O19   C36   A    
C31   O24   S    
C7    C8    D    
