data_mof_unit_29573.cif
_audit_creation_date              2012-12-10T16:56:32-0500
_audit_creation_method            fapswitch 2.2
_symmetry_space_group_name_H-M    P1
_symmetry_Int_Tables_number       1
_space_group_crystal_system       triclinic
_cell_length_a                    7.769002
_cell_length_b                    8.619207
_cell_length_c                    15.691264
_cell_angle_alpha                 90.975146
_cell_angle_beta                  86.086725
_cell_angle_gamma                 93.07418
_cell_volume                      1046.67597669

loop_
_atom_site_label
_atom_site_type_symbol
_atom_type_description
_atom_site_fract_x
_atom_site_fract_y
_atom_site_fract_z
_atom_type_partial_charge
C1    C     C_R   0.544232 0.794104 0.496804 0.952021
C2    C     C_R   0.455769 0.205895 0.503198 0.952021
C3    C     C_R   0.502412 0.500034 0.661996 0.898312
C4    C     C_R   0.497588 0.499966 0.338004 0.898320
C5    C     C_2   0.559919 0.954273 0.480274 -0.014382
C6    C     C_2   0.440085 0.045727 0.519730 -0.014383
C7    C     C_3   0.438535 0.634418 0.030436 -0.165376
C8    C     C_3   0.561465 0.365582 0.969564 -0.165377
C9    C     C_3   0.603654 0.619979 0.970542 -0.168184
C10   C     C_3   0.396345 0.380020 0.029458 -0.168184
C11   C     C_1   0.507155 0.499531 0.750817 -0.182847
C12   C     C_1   0.492845 0.500468 0.249183 -0.182848
C13   C     C_3   0.339431 0.514065 0.975297 -0.164225
C14   C     C_3   0.660569 0.485935 0.024702 -0.164224
C15   C     C_3   0.504536 0.499628 0.917224 0.213012
C16   C     C_3   0.495464 0.500372 0.082776 0.213011
C17   C     C_1   0.507733 0.499409 0.826197 -0.086042
C18   C     C_1   0.492267 0.500591 0.173803 -0.086042
H1    H     H_    0.688582 0.717859 0.944223 0.130614
H2    H     H_    0.311418 0.282141 0.055777 0.130614
H3    H     H_    0.388068 0.744152 0.057549 0.131354
H4    H     H_    0.611932 0.255848 0.942450 0.131354
H5    H     H_    0.791740 0.474480 0.047126 0.131871
H6    H     H_    0.208260 0.525520 0.952874 0.131871
H7    H     H_    0.013676 0.381876 0.436497 0.192319
H8    H     H_    0.986323 0.618124 0.563503 0.192322
N1    N     N_2   0.950320 0.457950 0.477300 -0.170670
N2    N     N_2   0.049680 0.542050 0.522700 -0.170666
O1    O     O_R   0.389250 0.738570 0.505570 -0.618569
O2    O     O_R   0.610750 0.261430 0.494430 -0.618575
O3    O     O_R   0.678390 0.711630 0.491020 -0.627240
O4    O     O_R   0.321610 0.288370 0.508980 -0.627236
O5    O     O_R   0.355460 0.513480 0.630490 -0.614779
O6    O     O_R   0.644540 0.486520 0.369510 -0.614778
O7    O     O_R   0.644600 0.486540 0.615950 -0.620453
O8    O     O_R   0.355400 0.513460 0.384050 -0.620453
Zn1   Zn    Zn3+2 0.306940 0.517990 0.509710 0.941130
Zn2   Zn    Zn3+2 0.693060 0.482010 0.490290 0.941125
C19   C     C_3   0.688371 0.004404 0.406752 -0.893145
H9    H     H_    0.735083 0.902996 0.368898 0.237507
H10   H     H_    0.626739 0.078660 0.361643 0.232691
H11   H     H_    0.803350 0.067184 0.431701 0.265082
C20   C     C_3   0.311652 0.995600 0.593261 -0.893132
H12   H     H_    0.264993 0.097011 0.631131 0.237493
H13   H     H_    0.196645 0.932855 0.568319 0.265072
H14   H     H_    0.373280 0.921312 0.638356 0.232691

loop_
_geom_bond_atom_site_label_1
_geom_bond_atom_site_label_2
_ccdc_geom_bond_type
C14   H5    S    
C7    C13   S    
C8    H4    S    
C9    C14   S    
C4    O8    A    
H7    N1    S    
H8    N2    S    
O3    Zn2   S    
C3    O7    A    
C20   H12   S    
C1    O1    A    
C9    C15   S    
C19   H10   S    
C10   C16   S    
O4    Zn1   S    
C20   H13   S    
C2    C6    S    
N2    Zn1   S    
C1    C5    S    
C16   C18   S    
O8    Zn1   S    
O5    Zn1   S    
C8    C15   S    
C14   C16   S    
C6    C20   S    
C5    C19   S    
C13   C15   S    
C5    C6    D    
C20   H14   S    
C4    O6    A    
C4    C12   S    
C2    O2    A    
C3    O5    A    
N1    Zn2   S    
O1    Zn1   S    
C7    C9    S    
C1    O3    A    
O7    Zn2   S    
C3    C11   S    
O2    Zn2   S    
C2    O4    A    
C12   C18   T    
C19   H9    S    
C15   C17   S    
C19   H11   S    
C7    C16   S    
C8    C14   S    
C7    H3    S    
C9    H1    S    
C8    C10   S    
C11   C17   T    
C13   H6    S    
C10   H2    S    
N1    N2    D    
C10   C13   S    
O6    Zn2   S    
