data_mof_unit_22369.cif
_audit_creation_date              2012-10-26T18:25:51-0400
_audit_creation_method            fapswitch 2.2
_symmetry_space_group_name_H-M    P1
_symmetry_Int_Tables_number       1
_space_group_crystal_system       triclinic
_cell_length_a                    11.676637
_cell_length_b                    8.728819
_cell_length_c                    7.440217
_cell_angle_alpha                 102.0612
_cell_angle_beta                  94.397907
_cell_angle_gamma                 91.998541
_cell_volume                      738.399272866

loop_
_atom_site_label
_atom_site_type_symbol
_atom_type_description
_atom_site_fract_x
_atom_site_fract_y
_atom_site_fract_z
_atom_type_partial_charge
C1    C     C_R   0.493497 0.200788 0.455917 0.595863
C2    C     C_2   0.529876 0.962911 0.558373 0.126735
C3    C     C_R   0.506533 0.799217 0.544033 0.584340
C4    C     C_R   0.284130 0.499639 0.501859 0.585527
C5    C     C_R   0.715869 0.500329 0.498134 0.579166
C6    C     C_1   0.162626 0.499984 0.504699 0.060526
C7    C     C_1   0.837371 0.499884 0.495262 0.066900
C8    C     C_1   0.059987 0.499970 0.502360 0.018917
C9    C     C_1   0.940009 0.499839 0.497574 0.023936
C10   C     C_2   0.470483 0.037074 0.441281 0.177590
Cu1   Cu    Cu3+1 0.512570 0.517380 0.684380 1.129213
Cu2   Cu    Cu3+1 0.487430 0.482620 0.315620 1.123998
H1    H     H_    0.411409 0.378649 0.949179 0.249766
H2    H     H_    0.588574 0.621365 0.050832 0.253486
H3    H     H_    0.203328 0.042183 0.150136 0.379910
H4    H     H_    0.561758 0.083758 0.953245 0.356237
N1    N     N_2   0.468500 0.456430 0.038520 -0.220127
N2    N     N_2   0.531500 0.543570 0.961480 -0.212964
O1    O     O_R   0.508170 0.286130 0.619770 -0.485077
O2    O     O_2   0.275099 0.850660 0.382370 -0.286367
O3    O     O_3   0.266379 0.097042 0.239564 -0.523494
O4    O     O_2   0.726471 0.919993 0.755878 -0.265178
O5    O     O_2   0.725294 0.148813 0.615264 -0.256539
O6    O     O_3   0.611846 0.155979 0.903513 -0.471992
O7    O     O_R   0.491830 0.713870 0.380230 -0.481052
O8    O     O_R   0.486940 0.256780 0.308360 -0.469394
O9    O     O_R   0.513060 0.743220 0.691640 -0.474290
O10   O     O_R   0.347810 0.514690 0.655710 -0.514154
O11   O     O_R   0.652190 0.485310 0.344290 -0.511607
O12   O     O_R   0.326590 0.485340 0.344300 -0.461265
O13   O     O_R   0.673410 0.514660 0.655700 -0.462810
O14   O     O_2   0.385448 0.858071 0.115912 -0.272333
S1    S     S_3+6 0.347026 0.953563 0.291292 0.016980
S2    S     S_3+6 0.653640 0.046843 0.707831 0.039554

loop_
_geom_bond_atom_site_label_1
_geom_bond_atom_site_label_2
_ccdc_geom_bond_type
Cu2   N1    S    
Cu1   Cu2   S    
Cu1   N2    S    
H1    N1    S    
Cu2   O11   S    
C5    C7    S    
H2    N2    S    
Cu1   O9    S    
Cu2   O7    S    
O5    S2    D    
O14   S1    D    
C2    S2    S    
C3    O9    A    
N1    N2    D    
Cu1   O13   S    
H4    O6    S    
Cu1   O1    S    
Cu1   O10   S    
O2    S1    D    
C4    O10   A    
C2    C3    S    
C10   S1    S    
C5    O11   A    
C1    O8    A    
O4    S2    D    
O6    S2    S    
C1    O1    A    
O3    S1    S    
C2    C10   D    
H3    O3    S    
C3    O7    A    
C4    C6    S    
C7    C9    T    
C6    C8    T    
Cu2   O12   S    
C4    O12   A    
C1    C10   S    
Cu2   O8    S    
C8    C9    S    
C5    O13   A    
