data_mof_unit_46887.cif
_audit_creation_date              2012-12-10T18:49:23-0500
_audit_creation_method            fapswitch 2.2
_symmetry_space_group_name_H-M    P1
_symmetry_Int_Tables_number       1
_space_group_crystal_system       triclinic
_cell_length_a                    9.953732
_cell_length_b                    10.687526
_cell_length_c                    13.563497
_cell_angle_alpha                 92.370112
_cell_angle_beta                  82.039592
_cell_angle_gamma                 90.121544
_cell_volume                      1427.75958658

loop_
_atom_site_label
_atom_site_type_symbol
_atom_type_description
_atom_site_fract_x
_atom_site_fract_y
_atom_site_fract_z
_atom_type_partial_charge
C1    C     C_R   0.500335 0.739633 0.500781 0.850916
C2    C     C_R   0.914693 0.580149 0.563235 0.461785
C3    C     C_1   0.546545 0.494292 0.209757 -0.166426
C4    C     C_1   0.454343 0.505425 0.790310 -0.198746
C5    C     C_2   0.559824 0.484576 0.016375 0.376324
C6    C     C_2   0.445588 0.519743 0.983516 0.380273
C7    C     C_1   0.443970 0.512025 0.878623 -0.092093
C8    C     C_1   0.559201 0.489234 0.121371 -0.067534
C9    C     C_R   0.602603 0.937779 0.543760 -0.212229
C10   C     C_R   0.396063 0.061148 0.466759 -0.229604
C11   C     C_R   0.600891 0.066495 0.545924 -0.205087
C12   C     C_R   0.499442 0.260286 0.502288 0.844944
C13   C     C_R   0.399057 0.933287 0.462512 -0.190070
C14   C     C_R   0.880618 0.336764 0.365483 0.216465
C15   C     C_R   0.863747 0.370976 0.269153 -0.104826
C16   C     C_R   0.815271 0.283579 0.202991 -0.186020
C17   C     C_R   0.785409 0.161573 0.231963 -0.127838
C18   C     C_R   0.806065 0.125887 0.326595 -0.152708
C19   C     C_R   0.854772 0.212749 0.392844 -0.173162
C20   C     C_R   0.117979 0.680000 0.622272 0.234738
C21   C     C_R   0.118186 0.803553 0.590655 -0.094745
C22   C     C_R   0.163279 0.901597 0.649066 -0.153503
C23   C     C_R   0.498517 0.127608 0.505689 0.012465
C24   C     C_R   0.209137 0.877071 0.739077 -0.108591
C25   C     C_R   0.205910 0.755039 0.772343 -0.182463
C26   C     C_R   0.157825 0.657132 0.715235 -0.157191
C27   C     C_3   0.171854 0.262616 0.321902 0.108432
C28   C     C_3   0.309178 0.224242 0.264597 -0.800642
C29   C     C_3   0.809364 0.658327 0.715767 0.111669
C30   C     C_3   0.696281 0.747171 0.761952 -0.805255
C31   C     C_3   0.214305 0.540663 0.029418 0.113226
C32   C     C_3   0.108691 0.593576 0.112213 -0.809508
C33   C     C_3   0.787589 0.483948 0.959506 0.091487
C34   C     C_R   0.501299 0.872036 0.501964 0.004759
C35   C     C_3   0.901071 0.410025 0.896294 -0.859219
C36   C     C_R   0.474656 0.499909 0.685778 0.897891
C37   C     C_R   0.525421 0.499321 0.314232 0.902425
C38   C     C_R   0.941093 0.424189 0.433602 -0.179583
C39   C     C_R   0.058901 0.579579 0.563837 -0.185802
C40   C     C_R   0.086403 0.429400 0.429623 0.473031
H1    H     H_    0.681785 0.890077 0.574956 0.196066
H2    H     H_    0.082441 0.823900 0.521127 0.116941
H3    H     H_    0.163101 0.996576 0.624335 0.136444
H4    H     H_    0.245300 0.952878 0.783727 0.134888
H5    H     H_    0.238931 0.736918 0.843051 0.145605
H6    H     H_    0.149084 0.564145 0.744260 0.127296
H7    H     H_    0.097211 0.238696 0.270814 0.161265
H8    H     H_    0.148720 0.208006 0.390109 0.100767
H9    H     H_    0.392144 0.248987 0.308402 0.256833
H10   H     H_    0.311365 0.121594 0.247964 0.197511
H11   H     H_    0.326896 0.273062 0.193219 0.253080
H12   H     H_    0.314678 0.107317 0.438751 0.155244
H13   H     H_    0.898939 0.681826 0.752491 0.133160
H14   H     H_    0.779649 0.560515 0.732862 0.166189
H15   H     H_    0.605423 0.734830 0.723563 0.256360
H16   H     H_    0.667844 0.728919 0.842079 0.200532
H17   H     H_    0.731098 0.845625 0.755053 0.239021
H18   H     H_    0.206978 0.436501 0.028077 0.137893
H19   H     H_    0.191281 0.575728 0.957614 0.130369
H20   H     H_    0.113677 0.697460 0.115642 0.252518
H21   H     H_    0.006054 0.564938 0.097675 0.181533
H22   H     H_    0.127186 0.557911 0.184938 0.283908
H23   H     H_    0.678458 0.117901 0.578987 0.149125
H24   H     H_    0.811193 0.490393 0.037212 0.129462
H25   H     H_    0.785487 0.579975 0.931170 0.130455
H26   H     H_    0.879732 0.398245 0.818271 0.248905
H27   H     H_    0.998574 0.460410 0.896645 0.190061
H28   H     H_    0.910377 0.316151 0.926953 0.257489
H29   H     H_    0.321282 0.882587 0.429045 0.152000
H30   H     H_    0.887362 0.465013 0.245837 0.128010
H31   H     H_    0.801271 0.309795 0.129060 0.158595
H32   H     H_    0.747848 0.094288 0.180626 0.139767
H33   H     H_    0.785364 0.030705 0.348330 0.152168
H34   H     H_    0.873780 0.183415 0.465118 0.112102
N1    N     N_R   0.142790 0.500030 0.500020 -0.142245
N2    N     N_R   0.857210 0.499970 0.499980 -0.141568
O1    O     O_R   0.385380 0.683250 0.500010 -0.617862
O2    O     O_3   0.834823 0.676084 0.612155 -0.596810
O3    O     O_3   0.343616 0.580880 0.048433 -0.622523
O4    O     O_3   0.662864 0.423132 0.953025 -0.622115
O5    O     O_R   0.614620 0.316750 0.499990 -0.613802
O6    O     O_R   0.614710 0.683220 0.500000 -0.576868
O7    O     O_R   0.385290 0.316780 0.500000 -0.621061
O8    O     O_R   0.368830 0.499990 0.640350 -0.620884
O9    O     O_R   0.631170 0.500010 0.359650 -0.620118
O10   O     O_R   0.598160 0.499960 0.640350 -0.595591
O11   O     O_R   0.401840 0.500040 0.359650 -0.532817
O12   O     O_3   0.171246 0.392981 0.342951 -0.581981
Zn1   Zn    Zn3+2 0.346870 0.500020 0.500000 0.979267
Zn2   Zn    Zn3+2 0.653130 0.499980 0.500000 0.977439

loop_
_geom_bond_atom_site_label_1
_geom_bond_atom_site_label_2
_ccdc_geom_bond_type
C27   H8    S    
C4    C36   S    
C1    O1    A    
C10   H12   S    
C33   H25   S    
C38   N2    A    
C12   C23   S    
O1    Zn1   S    
C13   H29   S    
C31   H18   S    
C37   O9    A    
C32   H21   S    
C11   H23   S    
C5    C6    D    
C28   H11   S    
C29   H14   S    
C15   C16   A    
C30   H17   S    
C18   C19   A    
C31   H19   S    
C28   H10   S    
C2    C39   A    
C29   O2    S    
C31   C32   S    
C16   C17   A    
C39   N1    A    
C21   C22   A    
C16   H31   S    
C4    C7    T    
C1    C34   S    
O7    Zn1   S    
C24   C25   A    
C3    C8    T    
O10   Zn2   S    
C20   C39   S    
C26   H6    S    
C35   H26   S    
C36   O10   A    
C25   C26   A    
C30   H16   S    
C12   O7    A    
C29   H13   S    
C29   C30   S    
C2    O2    S    
C14   C38   S    
C28   H9    S    
C22   H3    S    
C35   H27   S    
C17   C18   A    
C5    O4    S    
C9    C11   A    
O5    Zn2   S    
C18   H33   S    
O11   Zn1   S    
C9    C34   A    
C24   H4    S    
C22   C24   A    
O8    Zn1   S    
C32   H20   S    
C25   H5    S    
C2    N2    A    
C27   H7    S    
C15   H30   S    
C14   C19   A    
C37   O11   A    
C19   H34   S    
C10   C13   A    
C5    C8    S    
O9    Zn2   S    
C33   O4    S    
C31   O3    S    
C6    C7    S    
C10   C23   A    
C30   H15   S    
C9    H1    S    
O6    Zn2   S    
C40   N1    A    
C40   O12   S    
C1    O6    A    
C32   H22   S    
C13   C34   A    
C38   C40   A    
C6    O3    S    
C20   C26   A    
C35   H28   S    
C36   O8    A    
C33   H24   S    
C11   C23   A    
C33   C35   S    
C12   O5    A    
C27   O12   S    
N1    Zn1   S    
C21   H2    S    
C20   C21   A    
C3    C37   S    
C17   H32   S    
C27   C28   S    
C14   C15   A    
N2    Zn2   S    
