data_mof_unit_38555.cif
_audit_creation_date              2013-03-05T16:06:11-0500
_audit_creation_method            fapswitch 2.2
_symmetry_space_group_name_H-M    P1
_symmetry_Int_Tables_number       1
_space_group_crystal_system       triclinic
_cell_length_a                    15.046655
_cell_length_b                    15.467191
_cell_length_c                    15.703087
_cell_angle_alpha                 91.558944
_cell_angle_beta                  103.589889
_cell_angle_gamma                 81.348913
_cell_volume                      3511.71130954

loop_
_atom_site_label
_atom_site_type_symbol
_atom_site_description
_atom_site_fract_x
_atom_site_fract_y
_atom_site_fract_z
_atom_type_partial_charge
O1    O     O_R   0.383110 0.605620 0.475230 -0.631160
O2    O     O_R   0.616890 0.394380 0.524770 -0.612355
O3    O     O_R   0.531900 0.639510 0.506760 -0.644633
O4    O     O_R   0.468100 0.360490 0.493240 -0.638321
C1    C     C_R   0.441785 0.662170 0.486170 0.865534
C2    C     C_R   0.558240 0.337810 0.510350 0.873163
O5    O     O_R   0.425620 0.483070 0.607460 -0.629465
O6    O     O_R   0.574380 0.516930 0.392540 -0.613825
O7    O     O_R   0.574400 0.516960 0.638990 -0.633598
O8    O     O_R   0.425600 0.483040 0.361010 -0.614512
C3    C     C_R   0.500632 0.500438 0.661773 0.900777
C4    C     C_R   0.499288 0.499781 0.338238 0.905210
Zn1   Zn    Zn3+2 0.400660 0.477370 0.478940 0.916559
Zn2   Zn    Zn3+2 0.599340 0.522630 0.521060 0.916107
C5    C     C_3   0.444061 0.572470 0.017287 -0.163286
C6    C     C_3   0.554886 0.429333 0.982710 -0.162550
C7    C     C_3   0.531684 0.573130 0.981974 -0.166753
C8    C     C_3   0.467266 0.428675 0.018006 -0.166144
H1    H     H_    0.558088 0.632135 0.965116 0.132000
H2    H     H_    0.440837 0.369707 0.034930 0.130575
H3    H     H_    0.398683 0.630908 0.033581 0.132887
H4    H     H_    0.600274 0.370878 0.966466 0.132755
H5    H     H_    0.656143 0.501326 0.090986 0.131041
H6    H     H_    0.342782 0.500494 0.909028 0.129494
C9    C     C_1   0.501937 0.501179 0.751258 -0.194980
C10   C     C_1   0.497689 0.499744 0.248761 -0.192719
C11   C     C_3   0.413247 0.500663 0.951141 -0.164395
C12   C     C_3   0.585698 0.501138 0.048832 -0.166511
C13   C     C_3   0.500868 0.501317 0.917619 0.211478
C14   C     C_3   0.498092 0.500481 0.082347 0.211648
C15   C     C_1   0.501958 0.501470 0.826755 -0.087992
C16   C     C_1   0.497309 0.499987 0.173229 -0.090332
C17   C     C_R   0.407093 0.754850 0.466304 -0.107575
C18   C     C_R   0.593108 0.244716 0.504375 -0.114715
C19   C     C_R   0.282937 0.874015 0.408759 0.167094
C20   C     C_R   0.717204 0.124706 0.498584 0.166019
C21   C     C_R   0.313208 0.785464 0.433311 -0.197029
C22   C     C_R   0.686712 0.214120 0.510270 -0.193954
C23   C     C_R   0.471735 0.811623 0.473865 -0.274696
C24   C     C_R   0.528876 0.187239 0.484647 -0.281717
C25   C     C_R   0.446210 0.897837 0.444871 0.069119
C26   C     C_R   0.554519 0.099793 0.466802 0.070784
C27   C     C_R   0.350581 0.930948 0.416068 0.098715
C28   C     C_R   0.650015 0.066626 0.478814 0.100345
C29   C     C_R   0.514373 0.952950 0.449147 0.088852
C30   C     C_R   0.486531 0.043861 0.442512 0.088279
C31   C     C_R   0.391671 0.076075 0.411267 -0.225610
C32   C     C_R   0.609273 0.920180 0.459328 -0.229361
C33   C     C_R   0.325403 0.020471 0.396290 -0.249468
C34   C     C_R   0.675358 0.976094 0.471590 -0.249413
H7    H     H_    0.254179 0.049509 0.371847 0.140654
H8    H     H_    0.746613 0.946799 0.478360 0.142825
H9    H     H_    0.458086 0.211272 0.485833 0.169486
H10   H     H_    0.542824 0.788036 0.504936 0.171865
H11   H     H_    0.734882 0.260712 0.524094 0.174348
H12   H     H_    0.264705 0.739579 0.427010 0.180143
H13   H     H_    0.367143 0.144162 0.394931 0.135893
H14   H     H_    0.633954 0.851317 0.454763 0.144528
N1    N     N_R   0.731710 0.552730 0.549140 -0.124387
N2    N     N_R   0.268290 0.447270 0.450860 -0.136210
C35   C     C_R   0.854949 0.573560 0.672591 -0.310666
C36   C     C_R   0.157712 0.363087 0.363417 -0.333260
C37   C     C_R   0.761490 0.587570 0.630718 0.301628
C38   C     C_R   0.245064 0.388593 0.383887 0.285345
C39   C     C_R   0.794164 0.525431 0.499268 0.200131
C40   C     C_R   0.205111 0.479028 0.499664 0.189112
C41   C     C_R   0.889878 0.504126 0.541790 -0.045215
C42   C     C_R   0.119273 0.444483 0.486345 -0.006117
C43   C     C_R   0.918852 0.530128 0.629691 0.106710
C44   C     C_R   0.094417 0.391732 0.412502 0.104454
C45   C     C_R   0.958569 0.460620 0.500630 0.082314
C46   C     C_R   0.053240 0.465569 0.538189 0.106090
C47   C     C_R   0.078668 0.482709 0.628084 -0.222057
C48   C     C_R   0.937308 0.405311 0.428693 -0.263276
C49   C     C_R   0.012136 0.514959 0.673395 -0.199193
C50   C     C_R   0.005416 0.369002 0.386826 -0.188925
H15   H     H_    0.033924 0.530059 0.742296 0.140332
H16   H     H_    0.987145 0.326609 0.331330 0.139917
H17   H     H_    0.877766 0.597451 0.738547 0.151834
H18   H     H_    0.138999 0.320307 0.308188 0.152086
H19   H     H_    0.149067 0.465976 0.665085 0.139374
H20   H     H_    0.868725 0.387877 0.405988 0.141198
C51   C     C_3   0.219918 0.560799 0.554044 -0.356413
C52   C     C_3   0.148848 0.639664 0.515943 -0.914060
H21   H     H_    0.146258 0.647715 0.445291 0.261259
H22   H     H_    0.078928 0.632449 0.523525 0.274965
H23   H     H_    0.168815 0.699668 0.551016 0.246395
H24   H     H_    0.223146 0.552301 0.624025 0.177636
H25   H     H_    0.287194 0.578715 0.555907 0.266932
C53   C     C_3   0.764483 0.541967 0.400952 -0.390500
C54   C     C_3   0.712961 0.634800 0.379024 -0.811836
H26   H     H_    0.652274 0.649175 0.408355 0.292075
H27   H     H_    0.760136 0.683336 0.404025 0.232661
H28   H     H_    0.688666 0.642876 0.306837 0.236662
H29   H     H_    0.824712 0.538408 0.371152 0.198074
H30   H     H_    0.723474 0.491713 0.368181 0.220034
C55   C     C_3   0.307675 0.350310 0.325442 -0.359798
C56   C     C_3   0.281796 0.397416 0.236666 -0.845807
H31   H     H_    0.278944 0.469193 0.245132 0.278301
H32   H     H_    0.333921 0.373681 0.198410 0.242661
H33   H     H_    0.213121 0.383992 0.198812 0.239493
H34   H     H_    0.381177 0.347922 0.355049 0.252569
H35   H     H_    0.300262 0.280282 0.313459 0.157320
C57   C     C_3   0.697816 0.646328 0.676499 -0.372938
C58   C     C_3   0.720469 0.739786 0.683584 -0.939369
H36   H     H_    0.716715 0.766125 0.617474 0.264929
H37   H     H_    0.669525 0.782217 0.713168 0.258155
H38   H     H_    0.790508 0.742163 0.725689 0.263862
H39   H     H_    0.625379 0.651687 0.641632 0.264215
H40   H     H_    0.703822 0.619864 0.743056 0.194189
C59   C     C_3   0.180425 0.908878 0.374594 -0.418063
C60   C     C_3   0.113127 0.842847 0.368663 -0.900371
H41   H     H_    0.128130 0.788715 0.323816 0.260093
H42   H     H_    0.116820 0.816780 0.434723 0.263417
H43   H     H_    0.041462 0.875990 0.342142 0.254267
H44   H     H_    0.160256 0.962359 0.418156 0.206957
H45   H     H_    0.170268 0.936658 0.307864 0.206122
C61   C     C_3   0.819452 0.090341 0.506382 -0.425650
C62   C     C_3   0.885292 0.158670 0.522930 -0.876995
H46   H     H_    0.866139 0.207792 0.468896 0.257063
H47   H     H_    0.884731 0.191499 0.586638 0.260875
H48   H     H_    0.956823 0.125840 0.525637 0.253762
H49   H     H_    0.843052 0.041742 0.560872 0.208706
H50   H     H_    0.826980 0.056496 0.444557 0.205822

loop_
_geom_bond_atom_site_label_1
_geom_bond_atom_site_label_2
_geom_bond_distance
_ccdc_geom_bond_type
C9    C15   1.185350 T    
C40   C42   1.439445 A    
C6    C12   1.546767 S    
C11   C13   1.531604 S    
C7    C13   1.530905 S    
C59   C60   1.529309 S    
H6    C11   1.110285 S    
C60   H42   1.109353 S    
C55   C56   1.529937 S    
C53   H29   1.107325 S    
C23   C25   1.389159 A    
Zn1   N2    2.057479 S    
C29   C30   1.404923 A    
O5    C3    1.303780 A    
Zn2   N1    2.057478 S    
C58   H37   1.110650 S    
C17   C23   1.388605 A    
C48   C50   1.386087 A    
O1    C1    1.314111 A    
C36   H18   1.085974 S    
C19   C21   1.410863 A    
C52   H22   1.108321 S    
C57   H39   1.090624 S    
C29   C32   1.414504 A    
C23   H10   1.078126 S    
C31   H13   1.079061 S    
C3    C9    1.400460 S    
C28   C34   1.403597 A    
C36   C44   1.377281 A    
C26   C30   1.416096 A    
O4    Zn1   1.926505 S    
C35   C37   1.392257 A    
C61   C62   1.531315 S    
C57   C58   1.529626 S    
C36   C38   1.391766 A    
C40   C51   1.521536 S    
C21   H12   1.078953 S    
C22   H11   1.080022 S    
C39   C41   1.430334 A    
C1    C17   1.465405 S    
C34   H8    1.081226 S    
C52   H23   1.110524 S    
C59   H44   1.111548 S    
C8    C14   1.530727 S    
C19   C27   1.426128 A    
C41   C45   1.421220 A    
C55   H34   1.089807 S    
O6    C4    1.303534 A    
C32   C34   1.390473 A    
C51   H24   1.099152 S    
N2    C40   1.383372 A    
C25   C27   1.422094 A    
O2    C2    1.312723 A    
C26   C28   1.421111 A    
C48   H20   1.081831 S    
C47   H19   1.078470 S    
C60   H41   1.110724 S    
C62   H47   1.110751 S    
C39   C53   1.520358 S    
C51   H25   1.082762 S    
C58   H38   1.109964 S    
C52   H21   1.110700 S    
C31   C33   1.387789 A    
C54   H26   1.107432 S    
C10   C16   1.184858 T    
C27   C33   1.402705 A    
O6    Zn2   1.966186 S    
C33   H7    1.081120 S    
C6    C13   1.531102 S    
C17   C21   1.398707 A    
C2    C18   1.464888 S    
C4    C10   1.399591 S    
C41   C43   1.413092 A    
O7    Zn2   1.980715 S    
C54   H27   1.111234 S    
O7    C3    1.304701 A    
C5    C11   1.547010 S    
C51   C52   1.528419 S    
O5    Zn1   1.966183 S    
C42   C46   1.422853 A    
C6    C8    1.547002 S    
C61   H50   1.111577 S    
H5    C12   1.110305 S    
C53   H30   1.105906 S    
C49   H15   1.084092 S    
C55   H35   1.111946 S    
O3    Zn2   1.926509 S    
O8    C4    1.304602 A    
O4    C2    1.313602 A    
C38   C55   1.513060 S    
C56   H31   1.110113 S    
C56   H32   1.110664 S    
C44   C50   1.399894 A    
C18   C24   1.386802 A    
C20   C28   1.426888 A    
O1    Zn1   1.962024 S    
C47   C49   1.386533 A    
C20   C22   1.411285 A    
C19   C59   1.527874 S    
C57   H40   1.111677 S    
C5    C14   1.530933 S    
C62   H48   1.110557 S    
C35   C43   1.383878 A    
C5    C7    1.547200 S    
C30   C31   1.412979 A    
C6    H4    1.110173 S    
C18   C22   1.398846 A    
C7    C12   1.546964 S    
C8    C11   1.547001 S    
C50   H16   1.084204 S    
C46   C47   1.402034 A    
O3    C1    1.312665 A    
O8    Zn1   1.980716 S    
C45   C48   1.403621 A    
C62   H46   1.111105 S    
C32   H14   1.080232 S    
C56   H33   1.110581 S    
C58   H36   1.111484 S    
N1    C37   1.377509 A    
C59   H45   1.111531 S    
N2    C38   1.386584 A    
C12   C14   1.531347 S    
C45   C46   1.420705 A    
C13   C15   1.430864 S    
N1    C39   1.372280 A    
C54   H28   1.110598 S    
C14   C16   1.430184 S    
C53   C54   1.532282 S    
C35   H17   1.085059 S    
C24   C26   1.389230 A    
C7    H1    1.110173 S    
C43   C49   1.397553 A    
C37   C57   1.512242 S    
C8    H2    1.110230 S    
C61   H49   1.111393 S    
O2    Zn2   1.962023 S    
C5    H3    1.110174 S    
C42   C44   1.409500 A    
C24   H9    1.078381 S    
C25   C29   1.417963 A    
C20   C61   1.527575 S    
C60   H43   1.110524 S    
