data_mof_unit_40996.cif
_audit_creation_date              2012-10-26T17:13:00-0400
_audit_creation_method            fapswitch 2.2
_symmetry_space_group_name_H-M    P1
_symmetry_Int_Tables_number       1
_space_group_crystal_system       triclinic
_cell_length_a                    16.877541
_cell_length_b                    16.90217
_cell_length_c                    16.769859
_cell_angle_alpha                 68.064182
_cell_angle_beta                  67.795907
_cell_angle_gamma                 67.899377
_cell_volume                      3951.59067598

loop_
_atom_site_label
_atom_site_type_symbol
_atom_type_description
_atom_site_fract_x
_atom_site_fract_y
_atom_site_fract_z
_atom_type_partial_charge
C1    C     C_R   0.313948 0.992697 0.439466 0.016557
C2    C     C_R   0.678174 0.048944 0.546000 0.000978
C3    C     C_R   0.956243 0.450335 0.323338 0.014251
C4    C     C_R   0.043951 0.550048 0.676925 0.018662
C5    C     C_R   0.432977 0.304573 0.019218 0.046039
C6    C     C_R   0.544027 0.675900 0.058922 0.007956
C7    C     C_R   0.548583 0.048362 0.676382 0.015443
C8    C     C_R   0.451188 0.964903 0.319952 0.006188
C9    C     C_R   0.674788 0.547628 0.055039 0.035978
C10   C     C_R   0.300877 0.431012 0.026711 0.010686
C11   C     C_R   0.996524 0.688684 0.569027 0.005690
C12   C     C_R   0.003029 0.311526 0.431797 0.010733
C13   C     C_R   0.453670 0.997104 0.449488 -0.018346
C14   C     C_R   0.544794 0.028012 0.540908 -0.021733
C15   C     C_R   0.991038 0.452663 0.451689 -0.015594
C16   C     C_R   0.007272 0.547634 0.549871 -0.016217
C17   C     C_R   0.438738 0.441040 0.035324 -0.015138
C18   C     C_R   0.534955 0.537849 0.050870 -0.016803
C19   C     C_R   0.018427 0.830220 0.568508 0.764166
C20   C     C_R   0.981728 0.169799 0.431493 0.735738
C21   C     C_R   0.828031 0.564519 0.029852 0.758949
C22   C     C_R   0.165843 0.429094 0.992506 0.777799
C23   C     C_R   0.564053 0.030259 0.828104 0.788316
C24   C     C_R   0.435992 0.971143 0.171739 0.749119
C25   C     C_R   0.429555 0.166851 0.990425 0.770062
C26   C     C_R   0.563633 0.828310 0.030842 0.776050
C27   C     C_R   0.970327 0.436096 0.171798 0.741972
C28   C     C_R   0.029939 0.563864 0.828241 0.795095
C29   C     C_R   0.170598 0.979112 0.432650 0.757011
C30   C     C_R   0.828205 0.030652 0.563838 0.756932
C31   C     C_R   0.406342 0.983782 0.403254 0.063774
C32   C     C_R   0.590977 0.040992 0.588143 0.073962
C33   C     C_R   0.982530 0.404900 0.402767 0.069173
C34   C     C_R   0.016647 0.595410 0.598198 0.072362
C35   C     C_R   0.391380 0.392923 0.024807 0.072548
C36   C     C_R   0.584965 0.587645 0.053871 0.075149
C37   C     C_R   0.267330 0.974391 0.395003 -0.158308
C38   C     C_R   0.728768 0.050454 0.597002 -0.178357
C39   C     C_R   0.955668 0.401035 0.270932 -0.179841
C40   C     C_R   0.044971 0.599093 0.729125 -0.198101
C41   C     C_R   0.385840 0.256770 0.006674 -0.166919
C42   C     C_R   0.596427 0.728586 0.052716 -0.130747
C43   C     C_R   0.598076 0.050032 0.728034 -0.184881
C44   C     C_R   0.402262 0.957403 0.270824 -0.176247
C45   C     C_R   0.727883 0.598946 0.050378 -0.170368
C46   C     C_R   0.255073 0.385050 0.010030 -0.175874
C47   C     C_R   0.020456 0.734759 0.609022 -0.154741
C48   C     C_R   0.979725 0.265356 0.391240 -0.154318
C49   C     C_R   0.456520 0.056889 0.709131 -0.162622
C50   C     C_R   0.544010 0.954170 0.288589 -0.133147
C51   C     C_R   0.955205 0.732294 0.499359 -0.156065
C52   C     C_R   0.044089 0.267936 0.501845 -0.161941
C53   C     C_R   0.706865 0.455377 0.067373 -0.210920
C54   C     C_R   0.256971 0.509941 0.054164 -0.161968
C55   C     C_R   0.273055 0.016061 0.521410 -0.158894
C56   C     C_R   0.710316 0.059321 0.452737 -0.171500
C57   C     C_R   0.517808 0.264769 0.034653 -0.239932
C58   C     C_R   0.450489 0.706308 0.077292 -0.161443
C59   C     C_R   0.929237 0.543571 0.299537 -0.181367
C60   C     C_R   0.071437 0.457054 0.700395 -0.172759
C61   C     C_R   0.314946 0.949865 0.314120 -0.096824
C62   C     C_R   0.685182 0.059949 0.684810 -0.084628
C63   C     C_R   0.952173 0.312711 0.312146 -0.116691
C64   C     C_R   0.048315 0.687441 0.687956 -0.108655
C65   C     C_R   0.294721 0.295041 0.011350 -0.130770
C66   C     C_R   0.684559 0.686319 0.059639 -0.110867
C67   C     C_R   0.671240 0.035581 0.407316 0.072943
C68   C     C_R   0.322221 0.007904 0.575804 0.069203
C69   C     C_R   0.060754 0.408225 0.654944 0.060247
C70   C     C_R   0.936528 0.592477 0.347205 0.058616
C71   C     C_R   0.400086 0.660017 0.070622 0.065512
C72   C     C_R   0.569783 0.313646 0.032408 -0.003042
C73   C     C_R   0.586974 0.984448 0.324243 0.063268
C74   C     C_R   0.412981 0.032976 0.669239 0.074210
C75   C     C_R   0.303185 0.561707 0.058394 0.059354
C76   C     C_R   0.663242 0.407538 0.053930 0.021997
C77   C     C_R   0.045291 0.313354 0.556366 0.062731
C78   C     C_R   0.953420 0.686815 0.445343 0.061687
C79   C     C_R   0.712772 0.028899 0.317734 -0.125977
C80   C     C_R   0.282778 0.003038 0.667902 -0.142023
C81   C     C_R   0.081053 0.314530 0.684725 -0.090009
C82   C     C_R   0.915661 0.686431 0.318247 -0.064874
C83   C     C_R   0.306763 0.695088 0.082230 -0.093572
C84   C     C_R   0.660663 0.273686 0.031264 -0.096622
C85   C     C_R   0.672954 0.997810 0.278388 -0.111154
C86   C     C_R   0.326680 0.020388 0.713997 -0.119234
C87   C     C_R   0.258236 0.645768 0.076457 -0.067227
C88   C     C_R   0.706274 0.319573 0.046474 -0.044407
C89   C     C_R   0.070441 0.267167 0.637104 -0.085943
C90   C     C_R   0.927331 0.733165 0.365468 -0.102644
C91   C     C_R   0.542496 0.001131 0.408411 0.005217
C92   C     C_R   0.457081 0.020905 0.582942 0.009124
C93   C     C_R   0.021089 0.406745 0.529344 0.002954
C94   C     C_R   0.977085 0.593504 0.472425 0.001746
C95   C     C_R   0.395503 0.527011 0.047742 0.001063
C96   C     C_R   0.576168 0.449593 0.045260 0.016456
C97   C     C_R   0.586879 0.020211 0.452517 0.006691
C98   C     C_R   0.411407 0.007725 0.536440 0.010422
C99   C     C_R   0.443732 0.575714 0.054696 0.005195
C100  C     C_R   0.528776 0.402036 0.035979 0.037158
C101  C     C_R   0.028877 0.454142 0.578571 0.007198
C102  C     C_R   0.968707 0.546254 0.423433 0.003790
Cu1   Cu    Cu3+1 0.995180 0.995180 0.424630 1.156362
Cu2   Cu    Cu3+1 0.004820 0.004820 0.575370 1.143515
Cu3   Cu    Cu3+1 0.995180 0.424630 0.995180 1.101568
Cu4   Cu    Cu3+1 0.004820 0.575370 0.004820 1.062190
Cu5   Cu    Cu3+1 0.424630 0.995180 0.995180 1.145939
Cu6   Cu    Cu3+1 0.575370 0.004820 0.004820 1.071210
H1    H     H_    0.416234 0.087103 0.762996 0.187731
H2    H     H_    0.584124 0.918747 0.238762 0.228177
H3    H     H_    0.920073 0.801624 0.488943 0.195887
H4    H     H_    0.079692 0.198748 0.511931 0.178407
H5    H     H_    0.763330 0.418636 0.093161 0.206677
H6    H     H_    0.185862 0.527851 0.080538 0.195021
H7    H     H_    0.203447 0.046735 0.544265 0.190837
H8    H     H_    0.762682 0.091002 0.414751 0.210375
H9    H     H_    0.541416 0.194398 0.060041 0.190867
H10   H     H_    0.415668 0.763042 0.103609 0.186903
H11   H     H_    0.898714 0.578283 0.245621 0.212160
H12   H     H_    0.105551 0.422580 0.751839 0.190849
O1    O     O_R   0.124540 0.978640 0.385460 -0.525805
O2    O     O_R   0.875460 0.021360 0.614540 -0.525783
O3    O     O_R   0.978640 0.385460 0.124540 -0.543893
O4    O     O_R   0.021360 0.614540 0.875460 -0.530523
O5    O     O_R   0.385460 0.124540 0.978640 -0.542156
O6    O     O_R   0.614540 0.875460 0.021360 -0.558721
O7    O     O_R   0.614540 0.021360 0.875460 -0.541213
O8    O     O_R   0.385460 0.978640 0.124540 -0.542756
O9    O     O_R   0.875460 0.614540 0.021360 -0.595299
O10   O     O_R   0.124540 0.385460 0.978640 -0.536532
O11   O     O_R   0.021360 0.875460 0.614540 -0.518330
O12   O     O_R   0.978640 0.124540 0.385460 -0.531275
O13   O     O_R   0.013780 0.867370 0.487190 -0.564818
O14   O     O_R   0.986220 0.132630 0.512810 -0.570794
O15   O     O_R   0.867370 0.487190 0.013780 -0.583781
O16   O     O_R   0.132630 0.512810 0.986220 -0.571171
O17   O     O_R   0.487190 0.013780 0.867370 -0.547407
O18   O     O_R   0.512810 0.986220 0.132630 -0.570013
O19   O     O_R   0.512810 0.132630 0.986220 -0.614510
O20   O     O_R   0.487190 0.867370 0.013780 -0.553041
O21   O     O_R   0.986220 0.512810 0.132630 -0.604463
O22   O     O_R   0.013780 0.487190 0.867370 -0.559870
O23   O     O_R   0.132630 0.986220 0.512810 -0.574998
O24   O     O_R   0.867370 0.013780 0.487190 -0.572026
C103  C     C_2   0.278905 0.905440 0.279433 0.455561
H13   H     H_    0.299535 0.833672 0.294309 0.018747
O25   O     O_2   0.228616 0.948653 0.232128 -0.465088
C104  C     C_2   0.725960 0.092481 0.726611 0.460167
H14   H     H_    0.713109 0.163277 0.714457 0.028631
O26   O     O_2   0.773695 0.040670 0.774471 -0.466928
C105  C     C_2   0.909722 0.275292 0.276753 0.491503
H15   H     H_    0.837921 0.296070 0.289723 0.035978
O27   O     O_2   0.954810 0.224318 0.230136 -0.435690
C106  C     C_2   0.091053 0.724798 0.723066 0.495060
H16   H     H_    0.162900 0.704211 0.709554 0.045013
O28   O     O_2   0.046212 0.775610 0.769895 -0.448226
C107  C     C_2   0.236803 0.237021 0.034790 0.504847
H17   H     H_    0.206671 0.208081 0.104579 0.063657
O29   O     O_2   0.222428 0.221956 0.976414 -0.474173
C108  C     C_2   0.724695 0.729138 0.091416 0.489760
H18   H     H_    0.784000 0.750468 0.049958 0.122477
O30   O     O_2   0.687438 0.745391 0.163891 -0.506476
C109  C     C_2   0.284722 0.018761 0.810103 0.353014
H19   H     H_    0.214272 0.049828 0.833497 0.060193
O31   O     O_2   0.327947 0.980041 0.864496 -0.452063
C110  C     C_2   0.722159 0.981514 0.188529 0.404696
H20   H     H_    0.793986 0.955029 0.170991 0.079051
O32   O     O_2   0.684059 0.001091 0.131960 -0.520166
C111  C     C_2   0.916402 0.830128 0.327468 0.352670
H21   H     H_    0.862820 0.871243 0.297109 0.067134
O33   O     O_2   0.970124 0.863591 0.325418 -0.481352
C112  C     C_2   0.075653 0.171246 0.678961 0.356036
H22   H     H_    0.118534 0.131526 0.721969 0.010677
O34   O     O_2   0.027604 0.137226 0.671262 -0.506223
C113  C     C_2   0.801315 0.279032 0.045655 0.439115
H23   H     H_    0.850813 0.263874 0.985446 0.126348
O35   O     O_2   0.824099 0.259733 0.113047 -0.533583
C114  C     C_2   0.161339 0.685861 0.084079 0.333594
H24   H     H_    0.117947 0.715572 0.138302 0.044284
O36   O     O_2   0.129995 0.688964 0.027843 -0.506239
C115  C     C_2   0.203866 0.966522 0.718795 0.414209
H25   H     H_    0.165653 0.973426 0.785353 0.078303
O37   O     O_2   0.182657 0.924312 0.688642 -0.489884
C116  C     C_2   0.795849 0.056506 0.261963 0.342990
H26   H     H_    0.803794 0.089445 0.191323 0.157504
O38   O     O_2   0.857444 0.039573 0.292266 -0.480438
C117  C     C_2   0.708068 0.187426 0.007180 0.380146
H27   H     H_    0.682144 0.166681 0.970359 0.115795
O39   O     O_2   0.776219 0.138605 0.027275 -0.547474
C118  C     C_2   0.259149 0.785180 0.096036 0.362118
H28   H     H_    0.197171 0.795513 0.148268 0.079342
O40   O     O_2   0.287001 0.849073 0.046866 -0.460668
C119  C     C_2   0.886566 0.737103 0.235712 0.297573
H29   H     H_    0.923385 0.781380 0.182219 0.082334
O41   O     O_2   0.818447 0.733531 0.229466 -0.505876
C120  C     C_2   0.108714 0.265485 0.768528 0.348012
H30   H     H_    0.169625 0.211902 0.767735 0.044811
O42   O     O_2   0.062266 0.283150 0.839117 -0.500173

loop_
_geom_bond_atom_site_label_1
_geom_bond_atom_site_label_2
_ccdc_geom_bond_type
C68   C80   A    
Cu4   O9    S    
C83   C87   A    
C9    C45   A    
C118  H28   S    
C18   C96   A    
C111  H21   S    
C6    C58   A    
C83   C118  S    
C11   C47   A    
C109  H19   S    
C50   H2    S    
C12   C48   A    
Cu1   O24   S    
C66   C108  S    
C114  H24   S    
C75   C95   A    
C113  O35   D    
C56   C67   A    
C115  H25   S    
C78   C90   A    
C77   C89   A    
C107  H17   S    
C88   C113  S    
Cu2   O14   S    
Cu4   O21   S    
C85   C110  S    
C57   H9    S    
C109  O31   D    
C104  O26   D    
Cu5   O8    S    
C26   O20   A    
C116  O38   D    
C19   C47   S    
C58   C71   A    
Cu2   O2    S    
C52   H4    S    
C29   O23   A    
C64   C106  S    
C1    C31   A    
C30   O24   A    
C116  H26   S    
Cu3   O3    S    
C2    C32   A    
C26   O6    A    
C74   C92   A    
C13   C98   A    
C58   H10   S    
C25   O5    A    
C82   C119  S    
C80   C86   A    
C53   H5    S    
C12   C52   A    
C54   H6    S    
C71   C83   A    
C118  O40   D    
C24   O8    A    
C30   O2    A    
C27   C39   S    
Cu5   O20   S    
C119  O41   D    
Cu2   O11   S    
C29   O1    A    
C10   C46   A    
C9    C36   A    
C59   H11   S    
Cu5   Cu6   S    
C10   C35   A    
C17   C95   A    
C7    C43   A    
Cu1   Cu2   S    
Cu1   O12   S    
C76   C88   A    
C106  O28   D    
C1    C37   A    
Cu3   O15   S    
C81   C89   A    
Cu4   O16   S    
C73   C91   A    
C3    C39   A    
C107  O29   D    
C62   C104  S    
C13   C91   A    
C110  O32   D    
C111  O33   D    
C63   C105  S    
C20   O12   A    
C10   C54   A    
C103  O25   D    
C112  O34   D    
C103  H13   S    
C21   C45   S    
C115  O37   D    
C19   O11   A    
C4    C34   A    
C21   O15   A    
C117  O39   D    
C92   C98   A    
C4    C40   A    
C67   C79   A    
C104  H14   S    
C7    C49   A    
C46   C65   A    
C120  O42   D    
C50   C73   A    
C93   C101  A    
Cu3   O22   S    
C27   O3    A    
C57   C72   A    
C48   C63   A    
C41   C65   A    
C24   O18   A    
C38   C62   A    
C71   C99   A    
C91   C97   A    
C22   O16   A    
C108  O30   D    
Cu5   O17   S    
Cu5   O5    S    
C8    C44   A    
C3    C33   A    
C16   C34   A    
C2    C38   A    
C114  O36   D    
C113  H23   S    
C61   C103  S    
C105  H15   S    
C21   O9    A    
C4    C60   A    
C70   C102  A    
C56   H8    S    
Cu2   O23   S    
C72   C84   A    
C80   C115  S    
C74   C86   A    
C73   C85   A    
C106  H16   S    
C20   C48   S    
C69   C81   A    
C75   C87   A    
C22   C46   S    
C14   C92   A    
C110  H20   S    
C24   C44   S    
C53   C76   A    
C28   O22   A    
C18   C99   A    
C25   C41   S    
C52   C77   A    
Cu1   O1    S    
C8    C50   A    
C47   C64   A    
C112  H22   S    
C26   C42   S    
C14   C97   A    
C23   O7    A    
C72   C100  A    
C5    C41   A    
C51   H3    S    
C7    C32   A    
C25   O19   A    
C55   C68   A    
C23   O17   A    
C11   C34   A    
C15   C102  A    
C84   C88   A    
C89   C112  S    
C14   C32   A    
C120  H30   S    
C82   C90   A    
C15   C93   A    
Cu6   O19   S    
C37   C61   A    
C28   O4    A    
Cu3   O10   S    
C69   C101  A    
C44   C61   A    
C19   O13   A    
C65   C107  S    
C39   C63   A    
Cu3   Cu4   S    
C96   C100  A    
C16   C94   A    
C40   C64   A    
C5    C57   A    
C20   O14   A    
C108  H18   S    
C1    C55   A    
C49   H1    S    
C117  H27   S    
C2    C56   A    
C76   C96   A    
C87   C114  S    
Cu6   O18   S    
C13   C31   A    
C79   C116  S    
C55   H7    S    
C60   C69   A    
C78   C94   A    
C5    C35   A    
C90   C111  S    
C77   C93   A    
C27   O21   A    
C79   C85   A    
C6    C36   A    
C60   H12   S    
C95   C99   A    
C105  O27   D    
Cu6   O7    S    
Cu1   O13   S    
C70   C82   A    
C17   C100  A    
C68   C98   A    
C51   C78   A    
C11   C51   A    
C67   C97   A    
C59   C70   A    
C54   C75   A    
C16   C101  A    
C9    C53   A    
C94   C102  A    
C119  H29   S    
C6    C42   A    
C29   C37   S    
C45   C66   A    
C42   C66   A    
Cu4   O4    S    
C28   C40   S    
C49   C74   A    
C84   C117  S    
C86   C109  S    
C17   C35   A    
C30   C38   S    
Cu6   O6    S    
C12   C33   A    
C23   C43   S    
C18   C36   A    
C15   C33   A    
C22   O10   A    
C8    C31   A    
C43   C62   A    
C81   C120  S    
C3    C59   A    
