data_mof_unit_68325.cif
_audit_creation_date              2012-12-11T17:41:04-0500
_audit_creation_method            fapswitch 2.2
_symmetry_space_group_name_H-M    P1
_symmetry_Int_Tables_number       1
_space_group_crystal_system       triclinic
_cell_length_a                    8.316059
_cell_length_b                    13.009096
_cell_length_c                    14.664423
_cell_angle_alpha                 94.360549
_cell_angle_beta                  91.23322
_cell_angle_gamma                 97.813438
_cell_volume                      1566.36835723

loop_
_atom_site_label
_atom_site_type_symbol
_atom_type_description
_atom_site_fract_x
_atom_site_fract_y
_atom_site_fract_z
_atom_type_partial_charge
Ba1   Ba    Ba6+2 0.855630 0.555280 0.454520 1.673790
Ba2   Ba    Ba6+2 0.334200 0.444810 0.545490 1.667192
C1    C     C_3   0.708883 0.939310 0.198077 -0.436339
C2    C     C_3   0.652141 0.833626 0.230652 0.265240
C3    C     C_3   0.586915 0.295602 0.264033 0.458023
C4    C     C_3   0.636024 0.248133 0.174165 0.332165
C5    C     C_3   0.092534 0.218687 0.797100 0.300868
C6    C     C_3   0.137276 0.201734 0.896189 -0.186187
C7    C     C_3   0.553038 0.154947 0.779620 0.288172
C8    C     C_3   0.542786 0.064425 0.842644 0.339987
C9    C     C_R   0.982445 0.456052 0.058701 -0.025912
C10   C     C_R   0.182146 0.487791 0.194298 0.009530
C11   C     C_R   0.339987 0.527967 0.224435 -0.210167
C12   C     C_3   0.072420 0.786002 0.209089 0.308341
C13   C     C_R   0.451484 0.573231 0.165471 0.084494
C14   C     C_R   0.406758 0.583761 0.075489 -0.117568
C15   C     C_R   0.249711 0.546045 0.039922 -0.034751
C16   C     C_R   0.136263 0.494390 0.098309 -0.051972
C17   C     C_R   0.058484 0.510099 0.904296 -0.085192
C18   C     C_R   0.941815 0.463243 0.964507 -0.021485
C19   C     C_R   0.016079 0.504372 0.806284 0.010812
C20   C     C_R   0.867880 0.446316 0.775704 -0.332623
C21   C     C_R   0.748357 0.413156 0.836571 -0.015192
C22   C     C_R   0.780368 0.429739 0.932022 0.328634
C23   C     C_3   0.069172 0.815704 0.110735 -0.323740
C24   C     C_R   0.206707 0.561487 0.947285 -0.033729
C25   C     C_R   0.757428 0.172857 0.535614 -0.277972
C26   C     C_R   0.413587 0.817976 0.482420 -0.189180
C27   C     C_R   0.403599 0.987397 0.428216 -0.130246
C28   C     C_R   0.327397 0.887216 0.440232 0.053155
C29   C     C_R   0.569770 0.848685 0.521008 0.051039
C30   C     C_R   0.637606 0.957406 0.523351 0.020618
C31   C     C_R   0.552542 0.028334 0.475939 -0.043646
C32   C     C_R   0.616755 0.137401 0.482120 -0.022216
C33   C     C_R   0.846937 0.104958 0.576367 -0.008643
C34   C     C_3   0.207251 0.762615 0.661521 0.294102
C35   C     C_R   0.786632 0.997794 0.570888 -0.059394
C36   C     C_3   0.136246 0.863564 0.676779 -0.248145
C37   C     C_3   0.985543 0.251009 0.356922 0.341424
C38   C     C_3   0.937957 0.133768 0.345340 -0.366006
C39   C     C_3   0.724224 0.669638 0.727984 0.391874
C40   C     C_3   0.781801 0.698245 0.826969 0.248100
H1    H     H_    0.712810 0.831842 0.298785 0.092957
H2    H     H_    0.005337 0.845625 0.689137 0.069679
H3    H     H_    0.194329 0.910035 0.738319 0.187960
H4    H     H_    0.152191 0.908612 0.615603 0.111293
H5    H     H_    0.892191 0.286904 0.395941 -0.031364
H6    H     H_    0.099578 0.266721 0.397375 0.098585
H7    H     H_    0.805203 0.115025 0.335935 0.122559
H8    H     H_    0.972165 0.097911 0.407643 0.070911
H9    H     H_    0.999236 0.099742 0.286210 0.152382
H10   H     H_    0.822434 0.637693 0.689928 -0.092907
H11   H     H_    0.615162 0.609792 0.725983 0.032885
H12   H     H_    0.655864 0.999011 0.240620 0.173029
H13   H     H_    0.902941 0.746918 0.827859 0.046246
H14   H     H_    0.792688 0.626032 0.860293 -0.051891
H15   H     H_    0.670534 0.942661 0.125554 0.122597
H16   H     H_    0.513063 0.358701 0.252788 -0.167992
H17   H     H_    0.698943 0.327139 0.302524 0.050257
H18   H     H_    0.526019 0.210943 0.133459 0.025689
H19   H     H_    0.701615 0.313662 0.141612 -0.059422
H20   H     H_    0.842557 0.955901 0.205759 0.136729
H21   H     H_    0.191526 0.849723 0.090723 0.153211
H22   H     H_    0.181383 0.284180 0.777996 0.123861
H23   H     H_    0.969030 0.242347 0.794475 -0.071004
H24   H     H_    0.141886 0.276605 0.938644 -0.024576
H25   H     H_    0.256070 0.174609 0.902581 0.141884
H26   H     H_    0.682695 0.183277 0.768574 -0.169231
H27   H     H_    0.414139 0.043373 0.860704 0.103514
H28   H     H_    0.954183 0.746258 0.226095 0.118411
H29   H     H_    0.609711 0.090286 0.908630 -0.052187
H30   H     H_    0.377416 0.524289 0.295165 0.077702
H31   H     H_    0.497580 0.621337 0.033153 0.085223
H32   H     H_    0.837856 0.436196 0.703078 0.072950
H33   H     H_    0.893680 0.418521 0.101048 0.122409
H34   H     H_    0.856637 0.947106 0.604268 0.067689
H35   H     H_    0.802895 0.255145 0.542138 0.054518
H36   H     H_    0.158599 0.728960 0.213318 0.058751
H37   H     H_    0.359334 0.737594 0.482947 0.054603
H38   H     H_    0.028675 0.745134 0.064192 0.092868
H39   H     H_    0.985690 0.873747 0.102371 0.140091
H40   H     H_    0.340469 0.780420 0.655730 0.043097
H41   H     H_    0.152584 0.722385 0.596659 0.033534
O1    O     O_2   0.887370 0.460630 0.272300 -0.488471
O2    O     O_3   0.684801 0.759752 0.691806 -0.615395
O3    O     O_3   0.112754 0.875223 0.269969 -0.599073
O4    O     O_2   0.302330 0.539400 0.727760 -0.474158
O5    O     O_3   0.060300 0.548700 0.611500 -0.503416
O6    O     O_3   0.519500 0.346920 0.670840 -0.494852
O7    O     O_3   0.176311 0.707550 0.738967 -0.605406
O8    O     O_3   0.614310 0.373510 0.452640 -0.498889
O9    O     O_3   0.100780 0.295230 0.623970 -0.499141
O10   O     O_2   0.181138 0.113667 0.565298 -0.486281
O11   O     O_3   0.099747 0.129016 0.737180 -0.608999
O12   O     O_3   0.129410 0.451380 0.388510 -0.500654
O13   O     O_3   0.575400 0.626570 0.547370 -0.496516
O14   O     O_2   0.344320 0.238700 0.455090 -0.489816
O15   O     O_3   0.496092 0.218097 0.307856 -0.618425
O16   O     O_2   0.418280 0.424001 0.824284 -0.500890
O17   O     O_3   0.475874 0.233997 0.823859 -0.683102
O18   O     O_3   0.670210 0.653170 0.329170 -0.465388
O19   O     O_2   0.788102 0.577570 0.170829 -0.486092
O20   O     O_3   0.006336 0.291528 0.271046 -0.617212
O21   O     O_3   0.694635 0.756868 0.166857 -0.659009
O22   O     O_2   0.845380 0.761330 0.544970 -0.491549
O23   O     O_3   0.088930 0.704860 0.376040 -0.476142
O24   O     O_2   0.982830 0.881396 0.431377 -0.516782
P1    P     P_3+3 0.054400 0.427280 0.286870 0.967282
P2    P     P_3+3 0.668300 0.742890 0.573060 0.984741
P3    P     P_3+3 0.126007 0.838604 0.382830 0.981725
P4    P     P_3+3 0.135310 0.572810 0.713130 0.973853
P5    P     P_3+3 0.053454 0.159416 0.625369 0.926564
P6    P     P_3+3 0.651054 0.634441 0.209629 0.980986
P7    P     P_3+3 0.525764 0.241527 0.425666 0.923661
P8    P     P_3+3 0.545947 0.357002 0.788287 0.907898
O25   O     O_3   0.668266 0.753135 0.872396 -0.618099
C41   C     C_3   0.721627 0.779342 0.963783 0.179177
H42   H     H_    0.745670 0.709622 0.998445 0.079306
H43   H     H_    0.624705 0.814368 0.000415 0.105012
H44   H     H_    0.832641 0.837434 0.967613 0.053494
C42   C     C_2   0.473220 0.820785 0.238239 0.405736
H45   H     H_    0.399609 0.858208 0.193034 0.063350
O26   O     O_2   0.410024 0.761142 0.291042 -0.661293
O27   O     O_3   0.739114 0.174052 0.189179 -0.651638
C43   C     C_3   0.819538 0.152163 0.108403 0.215204
H46   H     H_    0.888000 0.223722 0.083689 0.010576
H47   H     H_    0.731313 0.111134 0.055498 0.021351
H48   H     H_    0.910792 0.100509 0.122673 0.107479
C44   C     C_2   0.016460 0.124266 0.934483 0.488362
H49   H     H_    0.891118 0.137334 0.933558 -0.095950
O28   O     O_2   0.057306 0.047469 0.966621 -0.606653
C45   C     C_2   0.469486 0.118725 0.688193 0.552104
H50   H     H_    0.461002 0.172145 0.636699 0.050225
O29   O     O_2   0.412245 0.028264 0.669044 -0.607613
O30   O     O_3   0.593117 0.973952 0.798676 -0.602638
C46   C     C_3   0.762211 0.979317 0.807993 0.283531
H51   H     H_    0.795810 0.967766 0.879251 0.071135
H52   H     H_    0.825576 0.052201 0.784436 -0.016535
H53   H     H_    0.803962 0.916716 0.764644 0.097574
O31   O     O_3   0.657355 0.450255 0.990778 -0.654676
C47   C     C_3   0.545886 0.361455 0.004156 0.230636
H54   H     H_    0.596638 0.286859 0.991744 -0.019995
H55   H     H_    0.432006 0.359624 0.964560 0.106111
H56   H     H_    0.501956 0.370908 0.074390 -0.014254
C48   C     C_2   0.307287 0.645098 0.904351 0.550572
H57   H     H_    0.414715 0.628881 0.869009 0.081440
O32   O     O_2   0.277997 0.734519 0.915892 -0.560933
C49   C     C_2   0.329503 0.039869 0.356882 0.598646
H58   H     H_    0.228620 0.080444 0.372743 0.008838
O33   O     O_2   0.370944 0.029550 0.277843 -0.585388

loop_
_geom_bond_atom_site_label_1
_geom_bond_atom_site_label_2
_ccdc_geom_bond_type
O6    P8    S    
C9    C16   A    
C6    H24   S    
Ba2   O6    S    
C23   H38   S    
O18   P6    S    
C39   C40   S    
C17   C18   A    
C4    O27   S    
C27   C49   S    
C48   H57   S    
C5    C6    S    
C22   O31   S    
Ba1   O1    S    
C10   C11   A    
O10   P5    D    
C3    H16   S    
C28   P3    S    
C15   C24   A    
C4    H19   S    
Ba2   O12   S    
C17   C19   A    
C49   O33   D    
O3    P3    S    
O2    P2    S    
C47   H55   S    
O16   P8    D    
C3    C4    S    
C1    H12   S    
O15   P7    S    
O4    P4    D    
C34   H41   S    
C13   C14   A    
C27   C31   A    
O25   C41   S    
Ba1   Ba2   S    
C23   H21   S    
C8    O30   S    
C26   H37   S    
C17   C24   A    
C36   H3    S    
Ba1   P2    S    
O5    P4    S    
C18   C22   A    
Ba2   O14   S    
C34   H40   S    
C14   C15   A    
C43   H48   S    
C21   C22   A    
C13   P6    S    
Ba2   O5    S    
O20   P1    S    
O11   P5    S    
C7    C8    S    
C39   H10   S    
Ba1   O23   S    
C40   H14   S    
C8    H29   S    
Ba1   O5    S    
Ba1   O8    S    
C19   C20   A    
C23   H39   S    
C12   H28   S    
O17   P8    S    
O7    P4    S    
C46   H53   S    
C48   O32   D    
C31   C32   A    
C25   C32   A    
C9    C18   A    
Ba2   P4    S    
C36   H4    S    
C3    H17   S    
C14   H31   S    
C4    H18   S    
O30   C46   S    
O31   C47   S    
C12   O3    S    
C46   H52   S    
C47   H56   S    
C37   C38   S    
C10   P1    S    
O9    P5    S    
C7    C45   S    
C25   C33   A    
C1    C2    S    
C24   C48   S    
C36   H2    S    
C27   C28   A    
C40   H13   S    
C5    H23   S    
C19   P4    S    
C29   C30   A    
Ba1   O12   S    
C15   C16   A    
C29   P2    S    
Ba2   O4    S    
C30   C35   A    
C49   H58   S    
Ba2   O9    S    
C39   H11   S    
C42   H45   S    
C1    H15   S    
C40   O25   S    
C11   H30   S    
C35   H34   S    
C7    O17   S    
C11   C13   A    
C43   H46   S    
O24   P3    D    
C41   H44   S    
C20   H32   S    
C34   C36   S    
Ba1   O18   S    
C37   H5    S    
C44   H49   S    
O23   P3    S    
C1    H20   S    
C34   O7    S    
C5    O11   S    
O22   P2    D    
C33   C35   A    
C26   C29   A    
C46   H51   S    
C25   H35   S    
C37   O20   S    
C2    H1    S    
C32   P7    S    
C38   H9    S    
C39   O2    S    
O13   P2    S    
O8    P7    S    
C30   C31   A    
C41   H43   S    
C7    H26   S    
C26   C28   A    
O19   P6    D    
C9    H33   S    
C47   H54   S    
Ba1   O13   S    
C38   H8    S    
C2    O21   S    
Ba2   O13   S    
O1    P1    D    
C2    C42   S    
C45   H50   S    
C12   H36   S    
C12   C23   S    
Ba2   O8    S    
C5    H22   S    
C42   O26   D    
O12   P1    S    
Ba1   P1    S    
C21   P8    S    
O21   P6    S    
C8    H27   S    
C3    O15   S    
C6    H25   S    
C45   O29   D    
C10   C16   A    
C6    C44   S    
C43   H47   S    
C20   C21   A    
C37   H6    S    
O14   P7    D    
C41   H42   S    
C33   P5    S    
C38   H7    S    
Ba1   O22   S    
O27   C43   S    
C44   O28   D    
