data_mof_unit_63479.cif
_audit_creation_date              2013-03-05T15:47:24-0500
_audit_creation_method            fapswitch 2.2
_symmetry_space_group_name_H-M    P1
_symmetry_Int_Tables_number       1
_space_group_crystal_system       triclinic
_cell_length_a                    10.180958
_cell_length_b                    10.835831
_cell_length_c                    14.147685
_cell_angle_alpha                 90.49555
_cell_angle_beta                  82.115822
_cell_angle_gamma                 95.244757
_cell_volume                      1539.52252619

loop_
_atom_site_label
_atom_site_type_symbol
_atom_site_description
_atom_site_fract_x
_atom_site_fract_y
_atom_site_fract_z
_atom_type_partial_charge
O1    O     O_R   0.431050 0.692470 0.507130 -0.617937
O2    O     O_R   0.568950 0.307530 0.492870 -0.625216
O3    O     O_R   0.651120 0.659650 0.484400 -0.555129
O4    O     O_R   0.348880 0.340350 0.515600 -0.558376
C1    C     C_R   0.555856 0.732383 0.496634 0.935464
C2    C     C_R   0.444197 0.267654 0.507919 0.938105
O5    O     O_R   0.389940 0.516410 0.637650 -0.610377
O6    O     O_R   0.610060 0.483590 0.362350 -0.598348
O7    O     O_R   0.610010 0.483590 0.614920 -0.551437
O8    O     O_R   0.389990 0.516410 0.385080 -0.547257
C3    C     C_R   0.500279 0.500078 0.670662 0.882604
C4    C     C_R   0.499697 0.499894 0.329348 0.888418
Zn1   Zn    Zn3+2 0.353060 0.521920 0.515180 1.023930
Zn2   Zn    Zn3+2 0.646940 0.478080 0.484820 1.025313
H1    H     H_    0.119436 0.603603 0.592031 0.186332
H2    H     H_    0.873849 0.370560 0.429901 0.188078
C5    C     C_1   0.500768 0.500013 0.772116 -0.145301
C6    C     C_1   0.499139 0.499940 0.227902 -0.131313
C7    C     C_1   0.500665 0.499992 0.857399 0.017616
C8    C     C_1   0.499159 0.499954 0.142629 0.031055
C9    C     C_1   0.500145 0.499977 0.957357 0.034731
C10   C     C_1   0.499617 0.499966 0.042678 0.038056
H3    H     H_    0.615397 0.105728 0.522323 0.199973
H4    H     H_    0.385138 0.895122 0.545589 0.203640
C11   C     C_2   0.587426 0.864266 0.502359 -0.314331
C12   C     C_2   0.412826 0.135966 0.519968 -0.326075
C13   C     C_2   0.487811 0.934393 0.528088 -0.148983
C14   C     C_2   0.512659 0.066253 0.525555 -0.155464
H5    H     H_    0.310379 0.095972 0.523066 0.184754
H6    H     H_    0.689812 0.904038 0.484780 0.187955
N1    N     N_2   0.842710 0.448890 0.464580 -0.224932
N2    N     N_2   0.157290 0.551110 0.535420 -0.225275
C15   C     C_2   0.931749 0.525011 0.496485 0.244402
C16   C     C_2   0.075362 0.502009 0.480421 0.246195
N3    N     N_R   0.122497 0.425342 0.402469 0.219163
O9    O     O_R   0.116430 0.460754 0.315690 -0.385196
O10   O     O_R   0.137952 0.309929 0.418362 -0.388277
N4    N     N_R   0.893120 0.633657 0.547306 0.218298
O11   O     O_R   0.943135 0.742161 0.514517 -0.399284
O12   O     O_R   0.836490 0.623710 0.635354 -0.385574

loop_
_geom_bond_atom_site_label_1
_geom_bond_atom_site_label_2
_geom_bond_distance
_ccdc_geom_bond_type
N4    O12   1.299869 A    
O7    Zn2   1.828971 S    
N1    C15   1.294200 D    
C11   C13   1.331656 D    
Zn1   N2    2.027735 S    
C12   C14   1.331681 D    
N3    O9    1.300635 A    
H4    C13   1.088370 S    
Zn2   N1    2.027734 S    
O6    C4    1.301281 A    
C15   C16   1.491999 S    
H1    N2    1.030073 S    
O2    C2    1.293165 A    
H3    C14   1.088366 S    
H2    N1    1.030026 S    
O5    C3    1.301186 A    
O7    C3    1.301642 A    
C2    C12   1.439861 S    
O3    Zn2   1.964073 S    
O8    C4    1.301441 A    
O1    C1    1.293255 A    
C13   C14   1.427971 S    
C7    C9    1.413455 S    
C8    C10   1.413441 S    
C6    C8    1.206395 T    
N4    O11   1.300769 A    
O2    Zn2   1.941465 S    
C1    C11   1.439880 S    
O1    Zn1   1.941465 S    
C5    C7    1.206408 T    
O5    Zn1   1.825116 S    
C12   H5    1.087542 S    
O4    C2    1.297443 A    
C16   N3    1.431270 S    
C4    C6    1.436013 S    
C11   H6    1.087547 S    
C3    C5    1.436037 S    
O6    Zn2   1.825115 S    
N3    O10   1.299945 A    
C9    C10   1.206376 T    
C15   N4    1.431791 S    
O4    Zn1   1.964071 S    
O3    C1    1.297340 A    
O8    Zn1   1.828972 S    
N2    C16   1.293837 D    
