data_mof_unit_20859.cif
_audit_creation_date              2012-12-10T17:48:51-0500
_audit_creation_method            fapswitch 2.2
_symmetry_space_group_name_H-M    P1
_symmetry_Int_Tables_number       1
_space_group_crystal_system       triclinic
_cell_length_a                    10.729361
_cell_length_b                    14.703375
_cell_length_c                    14.710137
_cell_angle_alpha                 65.087171
_cell_angle_beta                  103.506603
_cell_angle_gamma                 103.067566
_cell_volume                      2024.91759313

loop_
_atom_site_label
_atom_site_type_symbol
_atom_type_description
_atom_site_fract_x
_atom_site_fract_y
_atom_site_fract_z
_atom_type_partial_charge
C1    C     C_R   0.479624 0.119671 0.312176 0.838158
C2    C     C_3   0.878063 0.001877 0.498193 0.146496
C3    C     C_3   0.926677 0.905742 0.584859 -0.388229
C4    C     C_3   0.961920 0.096873 0.514021 -0.402547
C5    C     C_R   0.478675 0.187033 0.204767 -0.133180
C6    C     C_R   0.542241 0.812600 0.795505 -0.053445
C7    C     C_R   0.476533 0.215040 0.029621 0.489704
C8    C     C_R   0.466219 0.148882 0.130072 -0.268872
C9    C     C_R   0.498499 0.291588 0.178418 -0.264350
C10   C     C_R   0.513288 0.360246 0.079249 0.027067
C11   C     C_R   0.497904 0.320849 0.003540 0.049074
C12   C     C_R   0.259870 0.001443 0.498387 0.791431
C13   C     C_R   0.540102 0.466921 0.053254 0.094963
C14   C     C_R   0.536165 0.533345 0.949443 0.070249
C15   C     C_R   0.522554 0.491428 0.876314 -0.244901
C16   C     C_R   0.504924 0.387513 0.903149 -0.193270
C17   C     C_R   0.573514 0.509346 0.127736 -0.224871
C18   C     C_R   0.593850 0.613397 0.100924 -0.236251
C19   C     C_R   0.579341 0.679019 0.999301 0.164245
C20   C     C_R   0.548472 0.639701 0.922483 0.085945
C21   C     C_R   0.594866 0.783886 0.973620 -0.198945
C22   C     C_R   0.577414 0.850427 0.872220 -0.197908
C23   C     C_R   0.522983 0.880284 0.687808 0.786682
C24   C     C_R   0.526934 0.708119 0.821121 -0.258961
C25   C     C_R   0.711528 0.282477 0.672409 -0.322273
C26   C     C_R   0.679821 0.201934 0.640982 0.068414
C27   C     C_R   0.519826 0.285589 0.508628 0.007519
C28   C     C_R   0.548139 0.370761 0.536269 -0.025392
C29   C     C_R   0.645829 0.366880 0.620711 0.173717
C30   C     C_R   0.482856 0.458302 0.484386 0.073086
C31   C     C_R   0.516549 0.540386 0.518449 0.102039
C32   C     C_R   0.613570 0.531535 0.603908 -0.245886
C33   C     C_R   0.676739 0.446665 0.653576 -0.208330
C34   C     C_R   0.739970 0.000529 0.499068 0.756188
C35   C     C_R   0.385216 0.466578 0.399516 -0.244805
C36   C     C_R   0.321439 0.550786 0.350377 -0.170093
C37   C     C_R   0.352878 0.631014 0.382555 0.105166
C38   C     C_R   0.451353 0.628175 0.465996 -0.017615
C39   C     C_R   0.286470 0.714667 0.330331 -0.420174
C40   C     C_R   0.316857 0.797535 0.360361 0.717140
C41   C     C_R   0.480639 0.714511 0.491699 -0.106050
C42   C     C_3   0.038475 0.000034 0.396944 -0.367299
C43   C     C_3   0.895866 0.005289 0.395101 -0.408442
C44   C     C_3   0.071759 0.908207 0.586561 -0.448666
C45   C     C_3   0.105269 0.099671 0.510939 0.022323
C46   C     C_3   0.122106 0.003291 0.497416 0.147005
Cu1   Cu    Cu3+1 0.465900 0.918260 0.475680 0.967033
Cu2   Cu    Cu3+1 0.534100 0.081740 0.524320 0.935494
H1    H     H_    0.043520 0.928062 0.390968 0.190237
H2    H     H_    0.953655 0.094927 0.588939 0.156076
H3    H     H_    0.127956 0.908987 0.660197 0.156354
H4    H     H_    0.912019 0.901062 0.659255 0.154020
H5    H     H_    0.495772 0.359615 0.844100 0.194645
H6    H     H_    0.494495 0.681536 0.760485 0.152826
H7    H     H_    0.590093 0.931088 0.854009 0.148818
H8    H     H_    0.619371 0.642611 0.160382 0.146970
H9    H     H_    0.449530 0.067875 0.149383 0.184995
H10   H     H_    0.499411 0.317747 0.236771 0.162021
H11   H     H_    0.075744 0.062877 0.329895 0.160017
H12   H     H_    0.529401 0.536997 0.797556 0.143071
H13   H     H_    0.589013 0.464338 0.208035 0.145321
H14   H     H_    0.619918 0.814369 0.032080 0.129852
H15   H     H_    0.750606 0.443361 0.718874 0.142061
H16   H     H_    0.556968 0.720240 0.551997 0.145060
H17   H     H_    0.246632 0.553231 0.285802 0.141015
H18   H     H_    0.786371 0.278468 0.737263 0.134033
H19   H     H_    0.729474 0.136293 0.681582 0.120781
H20   H     H_    0.444961 0.280663 0.447268 0.140113
H21   H     H_    0.866812 0.076405 0.332644 0.152480
H22   H     H_    0.642803 0.589030 0.634937 0.128135
H23   H     H_    0.355249 0.409044 0.368609 0.135690
H24   H     H_    0.213072 0.714607 0.265904 0.145182
H25   H     H_    0.832898 0.940716 0.378984 0.176229
H26   H     H_    0.085328 0.837865 0.581191 0.185281
H27   H     H_    0.870202 0.836642 0.573895 0.175440
H28   H     H_    0.162154 0.098047 0.585372 0.152551
H29   H     H_    0.925033 0.166926 0.455132 0.172702
N1    N     N_R   0.585360 0.204570 0.560800 -0.177169
N2    N     N_R   0.414550 0.795430 0.439160 -0.214478
O1    O     O_R   0.455060 0.022100 0.338110 -0.535162
O2    O     O_R   0.512640 0.160150 0.379180 -0.595510
O3    O     O_R   0.288900 0.930980 0.479450 -0.552587
O4    O     O_R   0.346480 0.069030 0.520520 -0.569599
O5    O     O_R   0.487360 0.839850 0.620820 -0.593742
O6    O     O_R   0.544940 0.977900 0.661890 -0.591343
O7    O     O_R   0.653520 0.930970 0.479480 -0.594819
O8    O     O_R   0.711100 0.069020 0.520550 -0.593484
O9    O     O_3   0.458334 0.176047 0.955990 -0.579777
C47   C     C_3   0.575876 0.147098 0.957892 -0.359965
H30   H     H_    0.603610 0.084055 0.030974 0.158848
H31   H     H_    0.655413 0.212588 0.943619 0.156192
H32   H     H_    0.562727 0.119426 0.896292 0.197847
O10   O     O_3   0.258250 0.885147 0.310119 -0.547300
C48   C     C_3   0.137201 0.872654 0.250299 -0.410154
H33   H     H_    0.090044 0.940518 0.227279 0.190920
H34   H     H_    0.071574 0.805701 0.293658 0.157712
H35   H     H_    0.150015 0.868737 0.179296 0.176725
N3    N     N_3   0.154880 0.193632 0.431154 -0.600357
H36   H     H_    0.157771 0.254333 0.451456 0.215687
H37   H     H_    0.091753 0.206541 0.362451 0.221157

loop_
_geom_bond_atom_site_label_1
_geom_bond_atom_site_label_2
_ccdc_geom_bond_type
C43   H25   S    
O10   C48   S    
C15   H12   S    
C19   C20   A    
Cu1   N2    S    
C40   O10   S    
C27   N1    A    
C7    C8    A    
C45   C46   S    
C7    C11   A    
C26   N1    A    
C30   C35   A    
C45   H28   S    
C1    C5    S    
C26   H19   S    
C36   C37   A    
C19   C21   A    
C18   C19   A    
C45   N3    S    
C42   C46   S    
C30   C31   A    
C24   H6    S    
C15   C16   A    
C6    C22   A    
C29   C33   A    
Cu2   O2    S    
C9    H10   S    
C34   O7    A    
Cu1   O3    S    
Cu2   N1    S    
C7    O9    S    
C16   H5    S    
C27   H20   S    
C17   H13   S    
C20   C24   A    
C39   H24   S    
C47   H31   S    
C3    H27   S    
C9    C10   A    
C18   H8    S    
C48   H34   S    
C2    C34   S    
C35   H23   S    
C43   H21   S    
C21   C22   A    
Cu1   O1    S    
C44   C46   S    
C4    C45   S    
C25   C29   A    
C3    C44   S    
Cu2   O8    S    
C23   O5    A    
Cu1   O7    S    
C14   C20   A    
C38   C41   A    
C12   C46   S    
C39   C40   A    
C36   H17   S    
C32   H22   S    
C48   H35   S    
C25   C26   A    
C12   O4    A    
C4    H2    S    
C35   C36   A    
C2    C4    S    
C5    C9    A    
C37   C38   A    
C8    H9    S    
C11   C16   A    
Cu1   Cu2   S    
C2    C43   S    
C33   H15   S    
C6    C24   A    
C17   C18   A    
C40   N2    A    
C12   O3    A    
Cu1   O5    S    
C47   H32   S    
C44   H26   S    
C21   H14   S    
C44   H3    S    
N3    H37   S    
C42   C43   S    
C28   C29   A    
C14   C15   A    
C31   C32   A    
C25   H18   S    
C10   C13   A    
C42   H11   S    
C41   N2    A    
C5    C8    A    
C3    H4    S    
Cu2   O4    S    
C22   H7    S    
C31   C38   A    
C13   C17   A    
C32   C33   A    
C28   C30   A    
C2    C3    S    
C4    H29   S    
C37   C39   A    
C6    C23   S    
C34   O8    A    
C48   H33   S    
C10   C11   A    
C42   H1    S    
O9    C47   S    
N3    H36   S    
C23   O6    A    
C27   C28   A    
C1    O1    A    
Cu2   O6    S    
C41   H16   S    
C47   H30   S    
C13   C14   A    
C1    O2    A    
