data_mof_unit_32945.cif
_audit_creation_date              2012-10-26T20:38:00-0400
_audit_creation_method            fapswitch 2.2
_symmetry_space_group_name_H-M    P1
_symmetry_Int_Tables_number       1
_space_group_crystal_system       triclinic
_cell_length_a                    9.995055
_cell_length_b                    10.994912
_cell_length_c                    12.933872
_cell_angle_alpha                 88.497695
_cell_angle_beta                  75.615811
_cell_angle_gamma                 110.866157
_cell_volume                      1276.13745393

loop_
_atom_site_label
_atom_site_type_symbol
_atom_type_description
_atom_site_fract_x
_atom_site_fract_y
_atom_site_fract_z
_atom_type_partial_charge
C1    C     C_R   0.439718 0.254254 0.506634 0.572985
C2    C     C_R   0.675334 0.626829 0.006615 0.070882
C3    C     C_R   0.375542 0.353291 0.870460 -0.129979
C4    C     C_R   0.663176 0.606364 0.115459 -0.141031
C5    C     C_R   0.546075 0.577686 0.863842 0.069645
C6    C     C_R   0.440087 0.408778 0.140739 0.065235
C7    C     C_R   0.560467 0.544052 0.965561 -0.008192
C8    C     C_R   0.457289 0.423016 0.028303 -0.014501
C9    C     C_2   0.405246 0.114037 0.510085 -0.081894
C10   C     C_2   0.593793 0.886399 0.478401 -0.077907
C11   C     C_2   0.514351 0.069591 0.476574 -0.127389
C12   C     C_R   0.560379 0.745978 0.490295 0.582905
C13   C     C_2   0.482867 0.930070 0.490441 -0.130033
C14   C     C_2   0.309932 0.302693 0.215190 0.639973
C15   C     C_2   0.600884 0.718175 0.817138 0.594609
C16   C     C_2   0.308345 0.181579 0.019308 0.606188
C17   C     C_2   0.817028 0.725115 0.936724 0.621421
C18   C     C_2   0.813806 0.345277 0.555500 0.609816
C19   C     C_2   0.176391 0.564589 0.372466 0.615205
C20   C     C_1   0.962003 0.687161 0.424130 0.386169
C21   C     C_1   0.052534 0.415495 0.655326 0.388304
C22   C     C_2   0.080671 0.499368 0.480803 0.114982
C23   C     C_2   0.917027 0.476529 0.499108 0.126388
C24   C     C_R   0.473384 0.495710 0.701855 0.575548
C25   C     C_R   0.526264 0.501845 0.297945 0.562325
C26   C     C_R   0.542511 0.504260 0.183015 -0.032692
C27   C     C_R   0.457948 0.478889 0.815786 -0.020260
C28   C     C_R   0.374742 0.322831 0.975750 0.071767
Cu1   Cu    Cu3+1 0.647370 0.522180 0.481340 1.082733
Cu2   Cu    Cu3+1 0.352630 0.477820 0.518660 1.067975
H1    H     H_    0.747078 0.672543 0.148644 0.171549
H2    H     H_    0.975048 0.773625 0.794301 0.350392
H3    H     H_    0.647252 0.237696 0.684467 0.332224
H4    H     H_    0.347073 0.721619 0.281934 0.342962
H5    H     H_    0.317832 0.276475 0.828170 0.150292
H6    H     H_    0.367063 0.862738 0.513129 0.190487
H7    H     H_    0.628249 0.136504 0.440673 0.207564
H8    H     H_    0.709199 0.954278 0.458110 0.150855
H9    H     H_    0.290305 0.046649 0.542540 0.131176
H10   H     H_    0.087187 0.205053 0.261784 0.361604
H11   H     H_    0.627678 0.904023 0.845101 0.359171
H12   H     H_    0.329502 0.030379 0.096408 0.364650
N1    N     N_2   0.131210 0.444490 0.546730 -0.295028
N2    N     N_2   0.868790 0.555510 0.453270 -0.295532
N3    N     N_1   0.038792 0.796729 0.400058 -0.259966
N4    N     N_1   0.987769 0.391568 0.745659 -0.229554
O1    O     O_R   0.578710 0.332530 0.490040 -0.492228
O2    O     O_R   0.166295 0.279257 0.206745 -0.625864
O3    O     O_2   0.657134 0.751797 0.720485 -0.487138
O4    O     O_R   0.586720 0.812262 0.885272 -0.670580
O5    O     O_2   0.189261 0.111308 0.006021 -0.448683
O6    O     O_R   0.385364 0.127665 0.071228 -0.660753
O7    O     O_2   0.882834 0.825843 0.970353 -0.454117
O8    O     O_R   0.878079 0.700080 0.833743 -0.663912
O9    O     O_2   0.832300 0.247831 0.522064 -0.543481
O10   O     O_R   0.707264 0.332621 0.652512 -0.656909
O11   O     O_2   0.146963 0.515720 0.293130 -0.472235
O12   O     O_R   0.421290 0.667470 0.509960 -0.480054
O13   O     O_R   0.292150 0.686298 0.360189 -0.682930
O14   O     O_R   0.329810 0.295070 0.521560 -0.474963
O15   O     O_R   0.670190 0.704930 0.478440 -0.485377
O16   O     O_R   0.604230 0.515670 0.637800 -0.424854
O17   O     O_R   0.395770 0.484330 0.362200 -0.465008
O18   O     O_R   0.355330 0.478200 0.669330 -0.518744
O19   O     O_R   0.644670 0.521800 0.330670 -0.502393
O20   O     O_2   0.328517 0.235987 0.283428 -0.483799

loop_
_geom_bond_atom_site_label_1
_geom_bond_atom_site_label_2
_ccdc_geom_bond_type
C16   C28   S    
C2    C4    A    
C24   C27   S    
Cu1   Cu2   S    
Cu2   O18   S    
C6    C14   S    
C11   C13   S    
C3    H5    S    
C4    C26   A    
C22   N1    D    
C16   O5    D    
C18   O10   S    
C10   H8    S    
C12   O12   A    
H3    O10   S    
C3    C27   A    
C14   O20   D    
C25   O19   A    
C7    C8    A    
C24   O18   A    
C5    C27   A    
Cu2   O17   S    
C19   O11   D    
C2    C17   S    
C24   O16   A    
C12   O15   A    
C9    C11   D    
C6    C26   A    
C10   C12   S    
C18   O9    D    
Cu1   O1    S    
Cu1   O19   S    
Cu2   O12   S    
H2    O8    S    
C3    C28   A    
C20   N2    S    
C15   O3    D    
Cu1   N2    S    
H4    O13   S    
C8    C28   A    
Cu1   O15   S    
Cu2   N1    S    
C5    C15   S    
C4    H1    S    
C15   O4    S    
C18   C23   S    
C17   O7    D    
H11   O4    S    
C9    H9    S    
C19   C22   S    
C1    C9    S    
Cu1   O16   S    
C13   H6    S    
C11   H7    S    
C21   N4    T    
C25   O17   A    
C1    O14   A    
C16   O6    S    
C5    C7    A    
C14   O2    S    
H10   O2    S    
C22   C23   S    
C1    O1    A    
C6    C8    A    
C2    C7    A    
C19   O13   S    
C25   C26   S    
C21   N1    S    
C17   O8    S    
C23   N2    D    
C20   N3    T    
H12   O6    S    
C10   C13   D    
Cu2   O14   S    
