data_mof_unit_62844.cif
_audit_creation_date              2012-12-10T17:54:39-0500
_audit_creation_method            fapswitch 2.2
_symmetry_space_group_name_H-M    P1
_symmetry_Int_Tables_number       1
_space_group_crystal_system       triclinic
_cell_length_a                    18.760107
_cell_length_b                    18.979098
_cell_length_c                    19.005124
_cell_angle_alpha                 110.016135
_cell_angle_beta                  109.71219
_cell_angle_gamma                 109.448418
_cell_volume                      5159.33023327

loop_
_atom_site_label
_atom_site_type_symbol
_atom_type_description
_atom_site_fract_x
_atom_site_fract_y
_atom_site_fract_z
_atom_type_partial_charge
C1    C     C_R   0.117191 0.998941 0.619257 0.943736
C2    C     C_R   0.264996 0.178509 0.504463 -0.118176
C3    C     C_R   0.192362 0.186625 0.505791 -0.036214
C4    C     C_R   0.181531 0.254592 0.499282 0.143284
C5    C     C_R   0.243238 0.314594 0.493627 -0.161910
C6    C     C_R   0.312094 0.304995 0.488189 -0.047721
C7    C     C_R   0.175725 0.923965 0.683646 0.080959
C8    C     C_R   0.183432 0.001308 0.689095 -0.102272
C9    C     C_R   0.250313 0.080854 0.767693 0.117522
C10   C     C_R   0.315416 0.081172 0.832842 0.299992
C11   C     C_R   0.311977 0.002070 0.819790 -0.160881
C12   C     C_R   0.121474 0.119112 0.502563 0.854980
C13   C     C_R   0.238100 0.924221 0.748231 0.045389
C14   C     C_3   0.231261 0.845558 0.684947 -0.499089
C15   C     C_3   0.163114 0.846061 0.613307 -0.013861
C16   C     C_R   0.736776 0.752757 0.429472 -0.113418
C17   C     C_R   0.818499 0.815592 0.502481 -0.167218
C18   C     C_R   0.837902 0.812977 0.579809 0.393394
C19   C     C_R   0.774384 0.748015 0.581200 0.092927
C20   C     C_R   0.689256 0.686827 0.504963 -0.145644
C21   C     C_R   0.674819 0.692434 0.431073 -0.057364
C22   C     C_3   0.608307 0.649948 0.337371 0.249263
C23   C     C_R   0.880231 0.999128 0.381387 0.802644
C24   C     C_3   0.679242 0.719193 0.335204 0.416853
C25   C     C_R   0.807143 0.981293 0.236679 0.030710
C26   C     C_R   0.812137 0.998939 0.315889 -0.071712
C27   C     C_R   0.750098 0.019579 0.330642 0.179318
C28   C     C_R   0.686363 0.020153 0.264714 -0.159876
C29   C     C_R   0.685521 0.003057 0.186282 -0.098039
C30   C     C_R   0.747927 0.985019 0.175702 0.094421
C31   C     C_3   0.778496 0.959759 0.113263 -0.026482
C32   C     C_3   0.847088 0.956425 0.183486 -0.488562
C33   C     C_R   0.499674 0.617961 0.618536 0.890796
C34   C     C_R   0.881141 0.881451 0.499382 0.869661
C35   C     C_R   0.380592 0.377593 0.495568 0.875690
C36   C     C_R   0.503164 0.384375 0.381466 0.900207
C37   C     C_R   0.619736 0.619573 0.501681 0.837099
C38   C     C_R   0.500103 0.118654 0.118353 0.897532
C39   C     C_R   0.380656 0.999884 0.881876 0.848010
C40   C     C_R   0.502449 0.881340 0.883697 0.851267
C41   C     C_R   0.618935 0.000292 0.118203 0.835315
C42   C     C_R   0.434105 0.669336 0.701105 -0.063523
C43   C     C_R   0.502862 0.686015 0.685481 -0.084755
C44   C     C_R   0.578215 0.769779 0.740716 0.059741
C45   C     C_R   0.288459 0.121474 0.525092 0.264758
C46   C     C_R   0.580756 0.834878 0.808504 0.350417
C47   C     C_R   0.506805 0.815450 0.820472 -0.174632
C48   C     C_R   0.436563 0.730248 0.766695 -0.020109
C49   C     C_3   0.347342 0.668212 0.745373 0.205947
C50   C     C_3   0.346372 0.598378 0.671103 0.591682
C51   C     C_R   0.432584 0.259477 0.234081 -0.006778
C52   C     C_R   0.506739 0.320171 0.315921 -0.218459
C53   C     C_R   0.583765 0.313740 0.333118 0.349573
C54   C     C_R   0.581837 0.246178 0.268502 0.314109
C55   C     C_R   0.503630 0.185471 0.187004 -0.174546
C56   C     C_R   0.344737 0.099191 0.502360 0.346986
C57   C     C_R   0.430787 0.194361 0.173391 -0.042926
C58   C     C_3   0.339074 0.159459 0.105107 -0.107428
C59   C     C_3   0.340715 0.234386 0.174749 0.485008
C60   C     C_R   0.384248 0.139093 0.465768 0.282269
C61   C     C_R   0.374076 0.207236 0.459449 0.013957
C62   C     C_R   0.318122 0.231207 0.484079 -0.004441
Cu1   Cu    Cu3+1 0.000020 0.938200 0.438210 1.025453
Cu2   Cu    Cu3+1 0.999980 0.061800 0.561790 1.102183
Cu3   Cu    Cu3+1 0.438170 0.500030 0.438220 1.122629
Cu4   Cu    Cu3+1 0.561770 0.500000 0.561810 1.066287
Cu5   Cu    Cu3+1 0.561810 0.061820 0.000030 1.144560
Cu6   Cu    Cu3+1 0.438190 0.938280 0.000080 1.030549
H1    H     H_    0.204223 0.789439 0.693546 0.222595
H2    H     H_    0.183750 0.859651 0.568741 0.214108
H3    H     H_    0.550025 0.657168 0.328755 0.160225
H4    H     H_    0.638000 0.034315 0.274689 0.175819
H5    H     H_    0.806335 0.011422 0.099259 0.208457
H6    H     H_    0.837645 0.890402 0.165452 0.219662
H7    H     H_    0.915710 0.008451 0.212850 0.191260
H8    H     H_    0.335749 0.165785 0.048263 0.235123
H9    H     H_    0.237720 0.369677 0.493694 0.207612
H10   H     H_    0.292848 0.859807 0.683017 0.201161
O1    O     O_R   0.090180 0.947810 0.537990 -0.561430
O2    O     O_R   0.552150 0.590170 0.642370 -0.575872
O3    O     O_R   0.357600 0.409850 0.447820 -0.576780
O4    O     O_R   0.461980 0.409830 0.552180 -0.559528
O5    O     O_R   0.447790 0.409860 0.357660 -0.523778
O6    O     O_R   0.552170 0.409840 0.462020 -0.563666
O7    O     O_R   0.537960 0.590200 0.447840 -0.570019
O8    O     O_R   0.642340 0.590180 0.552210 -0.598417
O9    O     O_R   0.552220 0.142430 0.090190 -0.531106
O10   O     O_R   0.447830 0.038100 0.090230 -0.578641
O11   O     O_R   0.462030 0.052220 0.909860 -0.535565
O12   O     O_R   0.090150 0.052180 0.642350 -0.547303
O13   O     O_R   0.357640 0.947890 0.909900 -0.583034
O14   O     O_R   0.552170 0.962000 0.909870 -0.532192
O15   O     O_R   0.447780 0.857670 0.909910 -0.596846
O16   O     O_R   0.642360 0.052210 0.090200 -0.556666
O17   O     O_R   0.537970 0.947880 0.090240 -0.586765
O18   O     O_R   0.090190 0.037990 0.447830 -0.583895
O19   O     O_R   0.090170 0.142360 0.552190 -0.540901
O20   O     O_R   0.909850 0.947820 0.357650 -0.595745
O21   O     O_R   0.909820 0.052190 0.462010 -0.559740
O22   O     O_R   0.909830 0.857640 0.447810 -0.601128
O23   O     O_R   0.909810 0.962010 0.552170 -0.549561
O24   O     O_R   0.447770 0.590190 0.538000 -0.558755
N1    N     N_3   0.107533 0.262369 0.498401 -0.521085
H11   H     H_    0.113132 0.319784 0.500321 0.259280
H12   H     H_    0.051509 0.211049 0.438958 0.198834
N2    N     N_3   0.074492 0.771213 0.567463 -0.532867
H13   H     H_    0.058126 0.761215 0.612081 0.260574
H14   H     H_    0.074844 0.716097 0.530458 0.251202
Cl1   Cl    Cl    0.942928 0.887634 0.674275 -0.572046
N3    N     N_3   0.798516 0.746108 0.660286 -0.501967
H15   H     H_    0.751713 0.746593 0.677980 0.241606
H16   H     H_    0.800628 0.689275 0.649821 0.262908
Cl2   Cl    Cl    0.581499 0.539829 0.276996 -0.484958
N4    N     N_3   0.712535 0.684377 0.280492 -0.473421
H17   H     H_    0.761474 0.736795 0.286311 0.243272
H18   H     H_    0.742986 0.653546 0.303880 0.249199
Cl3   Cl    Cl    0.650343 0.794362 0.316434 -0.627527
N5    N     N_3   0.751182 0.038999 0.411186 -0.513696
H19   H     H_    0.733272 0.982117 0.413977 0.266661
H20   H     H_    0.703871 0.056062 0.412407 0.251288
Cl4   Cl    Cl    0.269453 0.096974 0.600013 -0.588758
N6    N     N_3   0.711778 0.874641 0.034874 -0.539469
H21   H     H_    0.742086 0.855105 0.001235 0.256809
H22   H     H_    0.688568 0.828422 0.051803 0.249974
N7    N     N_3   0.651436 0.788297 0.727282 -0.598024
H23   H     H_    0.706481 0.807603 0.784159 0.265834
H24   H     H_    0.663683 0.839874 0.715635 0.271757
Cl5   Cl    Cl    0.679024 0.937323 0.878918 -0.585042
N8    N     N_3   0.350243 0.650325 0.815059 -0.492059
H25   H     H_    0.289522 0.596565 0.790074 0.255582
H26   H     H_    0.356197 0.702568 0.864220 0.258750
N9    N     N_3   0.282564 0.694299 0.717342 -0.592822
H27   H     H_    0.219800 0.640232 0.685092 0.256187
H28   H     H_    0.287735 0.713454 0.672971 0.245567
Cl6   Cl    Cl    0.354356 0.512681 0.686161 -0.574581
Cl7   Cl    Cl    0.367382 0.022163 0.521640 -0.426200
Cl8   Cl    Cl    0.267768 0.559584 0.561707 -0.614470
Cl9   Cl    Cl    0.684538 0.391963 0.431864 -0.466593
Cl10  Cl    Cl    0.676702 0.236957 0.290453 -0.515586
N10   N     N_3   0.279409 0.070679 0.079768 -0.559026
H29   H     H_    0.293011 0.062583 0.133609 0.240608
H30   H     H_    0.215084 0.058633 0.051592 0.241407
Cl11  Cl    Cl    0.337262 0.315005 0.147736 -0.466331
N11   N     N_3   0.280938 0.209164 0.206502 -0.554369
H31   H     H_    0.288516 0.166922 0.227915 0.186728
H32   H     H_    0.216468 0.176362 0.154940 0.238992
Cl12  Cl    Cl    0.451345 0.107423 0.432423 -0.510523
N12   N     N_3   0.416373 0.247890 0.422845 -0.575632
H33   H     H_    0.394398 0.200208 0.360153 0.231470
H34   H     H_    0.483655 0.272508 0.460348 0.287291
N13   N     N_3   0.254689 0.161204 0.778937 -0.493754
H35   H     H_    0.251494 0.190724 0.834509 0.269051
H36   H     H_    0.315096 0.202172 0.788867 0.296682
Cl13  Cl    Cl    0.401023 0.180789 0.929133 -0.566436

loop_
_geom_bond_atom_site_label_1
_geom_bond_atom_site_label_2
_ccdc_geom_bond_type
C40   C47   S    
C23   O21   A    
C24   N4    S    
C16   C21   A    
C1    C8    S    
C19   C20   A    
C18   Cl1   S    
Cu2   O12   S    
C40   O15   A    
C10   Cl13  S    
C32   H7    S    
N4    H17   S    
C35   O3    A    
C50   Cl8   S    
C58   H8    S    
C7    C8    A    
C41   O16   A    
Cu1   O1    S    
C53   C54   A    
C26   C27   A    
C1    O12   A    
C15   N2    S    
C46   Cl5   S    
C28   C29   A    
C61   N12   S    
N10   H30   S    
Cu1   O20   S    
C50   Cl6   S    
C32   H6    S    
C5    C6    A    
C31   H5    S    
N2    H13   S    
C36   O5    A    
C58   N10   S    
C4    N1    S    
Cu5   O11   S    
Cu6   O13   S    
C6    C35   S    
C18   C19   A    
C46   C47   A    
C23   C26   S    
C41   O17   A    
N5    H19   S    
C3    C12   S    
N3    H15   S    
Cu2   O21   S    
C9    N13   S    
C38   C55   S    
C31   C32   S    
C45   C56   A    
N9    H27   S    
Cu5   O16   S    
C34   O22   A    
N13   H35   S    
C51   C57   A    
C60   Cl12  S    
C9    C10   A    
C36   C52   S    
C25   C32   S    
C7    C15   S    
C59   Cl11  S    
C16   C24   S    
C21   C22   S    
N13   H36   S    
C28   H4    S    
Cu3   O24   S    
C39   O13   A    
C56   Cl7   S    
C35   O4    A    
C44   C46   A    
N3    H16   S    
C22   Cl2   S    
C2    C45   A    
Cu2   O23   S    
C49   N9    S    
C44   N7    S    
Cu6   O17   S    
Cu5   Cu6   S    
C34   O23   A    
C47   C48   A    
C37   O8    A    
N10   H29   S    
N11   H32   S    
C8    C9    A    
Cu1   O22   S    
C45   Cl4   S    
C58   C59   S    
C49   N8    S    
Cu1   O18   S    
C40   O14   A    
C33   O24   A    
C38   O10   A    
C60   C61   A    
C33   C43   S    
C43   C44   A    
C29   C30   A    
Cu4   O4    S    
Cu3   O3    S    
C54   Cl10  S    
C7    C13   A    
C30   C31   S    
C17   C18   A    
C24   Cl3   S    
N1    H12   S    
C42   C48   A    
N12   H33   S    
C11   C39   S    
C12   O19   A    
C42   C50   S    
Cu2   O19   S    
C59   N11   S    
Cu3   Cu4   S    
C53   Cl9   S    
C55   C57   A    
N7    H23   S    
C1    O1    A    
C14   H1    S    
C22   C24   S    
C51   C59   S    
C42   C43   A    
N6    H22   S    
C3    C4    A    
C22   H3    S    
N1    H11   S    
C52   C53   A    
N8    H25   S    
C19   N3    S    
C37   O7    A    
C25   C30   A    
C15   H2    S    
C54   C55   A    
C48   C49   S    
C29   C41   S    
C31   N6    S    
N12   H34   S    
N11   H31   S    
Cu4   O8    S    
N4    H18   S    
C33   O2    A    
Cu3   O7    S    
Cu4   O2    S    
Cu5   O9    S    
Cu6   O15   S    
C38   O9    A    
C6    C62   A    
C2    C3    A    
C25   C26   A    
C51   C52   A    
C20   C37   S    
C11   C13   A    
C57   C58   S    
C16   C17   A    
N2    H14   S    
C36   O6    A    
Cu6   O10   S    
Cu5   O14   S    
C14   H10   S    
C61   C62   A    
N5    H20   S    
Cu3   O5    S    
C10   C11   A    
Cu4   O6    S    
Cu1   Cu2   S    
C56   C60   A    
C4    C5    A    
C23   O20   A    
C20   C21   A    
N9    H28   S    
C49   C50   S    
C17   C34   S    
C27   C28   A    
N7    H24   S    
C14   C15   S    
C12   O18   A    
C27   N5    S    
N6    H21   S    
C13   C14   S    
C5    H9    S    
C39   O11   A    
C2    C62   A    
N8    H26   S    
