data_mof_unit_64021.cif
_audit_creation_date              2012-12-10T18:09:59-0500
_audit_creation_method            fapswitch 2.2
_symmetry_space_group_name_H-M    P1
_symmetry_Int_Tables_number       1
_space_group_crystal_system       triclinic
_cell_length_a                    18.372761
_cell_length_b                    18.373788
_cell_length_c                    32.031869
_cell_angle_alpha                 89.999453
_cell_angle_beta                  89.999859
_cell_angle_gamma                 90.02536
_cell_volume                      10813.2280874

loop_
_atom_site_label
_atom_site_type_symbol
_atom_type_description
_atom_site_fract_x
_atom_site_fract_y
_atom_site_fract_z
_atom_type_partial_charge
C1    C     C_R   0.639867 0.500032 0.000000 0.845624
C2    C     C_R   0.360133 0.500006 1.000000 0.843599
C3    C     C_R   0.139867 0.000032 0.500000 0.845632
C4    C     C_R   0.860133 0.000006 0.500000 0.843592
C5    C     C_3   0.517703 0.566590 0.735977 -0.003976
C6    C     C_3   0.517659 0.566584 0.264021 -0.003989
C7    C     C_3   0.017696 0.066573 0.235979 -0.003990
C8    C     C_3   0.017834 0.066519 0.764020 -0.003997
C9    C     C_1   0.500129 0.499989 0.837451 0.152963
C10   C     C_1   0.500112 0.499979 0.162550 0.152982
C11   C     C_1   0.000110 0.999980 0.337451 0.152953
C12   C     C_1   0.000093 0.999970 0.662549 0.152967
C13   C     C_1   0.500012 0.499904 0.662575 -0.046174
C14   C     C_1   0.500007 0.499896 0.337426 -0.046184
C15   C     C_1   0.000004 0.999893 0.162575 -0.046168
C16   C     C_1   0.999999 0.999886 0.837425 -0.046176
C17   C     C_1   0.717333 0.500087 0.000000 -0.157027
C18   C     C_1   0.282667 0.500017 1.000000 -0.160031
C19   C     C_1   0.217333 0.000087 0.500000 -0.157030
C20   C     C_1   0.782667 0.000017 0.500000 -0.160026
C21   C     C_1   0.782585 0.500073 0.000000 -0.162088
C22   C     C_1   0.217415 0.500015 1.000000 -0.164265
C23   C     C_1   0.282585 0.000073 0.500000 -0.162094
C24   C     C_1   0.717415 0.000015 0.500000 -0.164260
C25   C     C_R   0.499987 0.360009 0.500000 0.841592
C26   C     C_R   0.999987 0.860009 1.000000 0.841590
C27   C     C_R   0.499999 0.499874 0.580185 0.821983
C28   C     C_R   0.499999 0.499874 0.419815 0.821985
C29   C     C_R   0.999999 0.999873 0.080185 0.821981
C30   C     C_R   0.999999 0.999872 0.919815 0.821982
C31   C     C_R   0.500013 0.639722 0.500000 0.840365
C32   C     C_R   0.000013 0.139722 0.000000 0.840368
C33   C     C_R   0.999992 0.639906 1.000000 0.842349
C34   C     C_R   0.499991 0.139906 0.500000 0.842349
C35   C     C_R   0.860052 0.500026 0.000000 0.842348
C36   C     C_R   0.139947 0.500006 1.000000 0.841424
C37   C     C_R   0.360052 0.000026 0.500000 0.842345
C38   C     C_R   0.639947 0.000006 0.500000 0.841427
C39   C     C_R   0.500018 0.500005 0.919822 0.806762
C40   C     C_R   0.500015 0.500004 0.080178 0.806761
C41   C     C_R   0.000015 0.000005 0.419822 0.806768
C42   C     C_R   0.000013 0.000004 0.580178 0.806767
C43   C     C_R   0.000011 0.360036 0.000000 0.842045
C44   C     C_R   0.500011 0.860036 0.500000 0.842046
C45   C     C_1   0.499966 0.282575 0.500000 -0.167240
C46   C     C_1   0.999966 0.782575 1.000000 -0.167241
C47   C     C_1   0.999973 0.717342 1.000000 -0.164710
C48   C     C_1   0.499973 0.217342 0.500000 -0.164706
C49   C     C_1   0.500036 0.717238 0.500000 -0.167907
C50   C     C_1   0.000036 0.217238 0.000000 -0.167907
C51   C     C_1   0.000030 0.282519 0.000000 -0.166480
C52   C     C_1   0.500031 0.782519 0.500000 -0.166481
C53   C     C_3   0.549058 0.451380 0.735974 -0.000884
C54   C     C_3   0.549063 0.451388 0.264025 -0.000884
C55   C     C_3   0.433578 0.481767 0.736025 -0.005724
C56   C     C_3   0.433572 0.481726 0.263979 -0.005713
C57   C     C_3   0.049031 0.951357 0.235977 -0.000886
C58   C     C_3   0.048904 0.951232 0.764023 -0.000879
C59   C     C_3   0.933556 0.981763 0.236023 -0.005707
C60   C     C_3   0.933501 0.981904 0.763980 -0.005710
C61   C     C_3   0.566662 0.518044 0.763737 -0.025274
C62   C     C_3   0.566636 0.518058 0.236262 -0.025272
C63   C     C_3   0.451183 0.548477 0.763767 -0.019768
C64   C     C_3   0.451145 0.548442 0.236234 -0.019761
C65   C     C_3   0.066644 0.018017 0.263739 -0.025255
C66   C     C_3   0.066668 0.017851 0.736259 -0.025265
C67   C     C_3   0.951171 0.048469 0.263766 -0.019784
C68   C     C_3   0.951265 0.048569 0.736235 -0.019772
C69   C     C_1   0.500078 0.500004 0.875061 -0.067814
C70   C     C_1   0.500067 0.499999 0.124939 -0.067809
C71   C     C_1   0.000067 0.000001 0.375061 -0.067817
C72   C     C_1   0.000056 0.999996 0.624939 -0.067813
C73   C     C_1   0.499997 0.499893 0.624963 -0.164345
C74   C     C_1   0.499996 0.499888 0.375038 -0.164343
C75   C     C_1   0.999995 0.999887 0.124963 -0.164346
C76   C     C_1   0.999994 0.999883 0.875037 -0.164344
C77   C     C_3   0.482583 0.433266 0.763780 -0.026110
C78   C     C_3   0.482594 0.433245 0.236223 -0.026116
C79   C     C_3   0.982551 0.933254 0.263780 -0.026111
C80   C     C_3   0.982380 0.933281 0.736222 -0.026111
C81   C     C_3   0.500159 0.499954 0.791633 -0.077600
C82   C     C_3   0.500139 0.499940 0.208368 -0.077593
C83   C     C_3   0.000136 0.999939 0.291634 -0.077604
C84   C     C_3   0.000116 0.999925 0.708367 -0.077599
C85   C     C_3   0.500069 0.499905 0.708407 0.068284
C86   C     C_3   0.500058 0.499893 0.291593 0.068291
C87   C     C_3   0.000054 0.999890 0.208408 0.068279
C88   C     C_3   0.000042 0.999879 0.791593 0.068284
Cu1   Cu    Cu3+1 0.500000 0.427500 0.000000 1.002495
Cu2   Cu    Cu3+1 1.000000 0.927500 0.500000 1.002503
Cu3   Cu    Cu3+1 0.500000 0.572500 0.000000 0.999229
Cu4   Cu    Cu3+1 1.000000 0.072500 0.500000 0.999220
Cu5   Cu    Cu3+1 0.572520 0.499840 0.500000 0.979564
Cu6   Cu    Cu3+1 0.427480 0.499840 0.500000 0.978453
Cu7   Cu    Cu3+1 0.072520 0.999840 0.000000 0.979568
Cu8   Cu    Cu3+1 0.927480 0.999840 0.000000 0.978453
Cu9   Cu    Cu3+1 0.000000 0.500000 0.958560 0.983097
Cu10  Cu    Cu3+1 0.000000 0.500000 0.041440 0.983105
Cu11  Cu    Cu3+1 0.500000 0.000000 0.458560 0.983105
Cu12  Cu    Cu3+1 0.500000 0.000000 0.541440 0.983097
O1    O     O_R   0.605840 0.438770 0.000000 -0.580490
O2    O     O_R   0.394160 0.438770 0.000000 -0.579963
O3    O     O_R   0.105840 0.938770 0.500000 -0.580487
O4    O     O_R   0.894160 0.938770 0.500000 -0.579957
O5    O     O_R   0.000000 0.394210 0.965010 -0.582667
O6    O     O_R   0.000000 0.394210 0.034990 -0.582673
O7    O     O_R   0.500000 0.894210 0.465010 -0.582673
O8    O     O_R   0.500000 0.894210 0.534990 -0.582671
O9    O     O_R   0.605760 0.561230 0.000000 -0.580001
O10   O     O_R   0.394240 0.561230 0.000000 -0.579649
O11   O     O_R   0.105760 0.061230 0.500000 -0.580006
O12   O     O_R   0.894240 0.061230 0.500000 -0.579653
O13   O     O_R   0.500000 0.438780 0.939540 -0.572955
O14   O     O_R   0.500000 0.438780 0.060460 -0.572953
O15   O     O_R   0.000000 0.938780 0.439540 -0.572955
O16   O     O_R   1.000000 0.938780 0.560460 -0.572958
O17   O     O_R   0.500000 0.561230 0.939540 -0.574704
O18   O     O_R   0.500000 0.561230 0.060460 -0.574708
O19   O     O_R   1.000000 0.061230 0.439540 -0.574711
O20   O     O_R   0.000000 0.061230 0.560460 -0.574708
O21   O     O_R   0.561200 0.394070 0.500000 -0.581506
O22   O     O_R   0.438800 0.394070 0.500000 -0.580569
O23   O     O_R   0.061200 0.894070 0.000000 -0.581506
O24   O     O_R   0.938800 0.894070 0.000000 -0.580567
O25   O     O_R   0.561230 0.499860 0.560460 -0.579444
O26   O     O_R   0.561230 0.499860 0.439540 -0.579445
O27   O     O_R   0.438770 0.499860 0.560460 -0.580066
O28   O     O_R   0.438770 0.499860 0.439540 -0.580066
O29   O     O_R   0.061230 0.999860 0.060460 -0.579442
O30   O     O_R   0.061230 0.999860 0.939540 -0.579441
O31   O     O_R   0.938770 0.999860 0.060460 -0.580065
O32   O     O_R   0.938770 0.999860 0.939540 -0.580068
O33   O     O_R   0.561270 0.605640 0.500000 -0.580296
O34   O     O_R   0.438730 0.605640 0.500000 -0.580075
O35   O     O_R   0.061270 0.105640 0.000000 -0.580299
O36   O     O_R   0.938730 0.105640 0.000000 -0.580074
O37   O     O_R   1.000000 0.605780 0.965000 -0.581111
O38   O     O_R   0.000000 0.605780 0.035000 -0.581101
O39   O     O_R   0.500000 0.105780 0.465000 -0.581102
O40   O     O_R   0.500000 0.105780 0.535000 -0.581103
O41   O     O_R   0.894200 0.500000 0.965010 -0.580589
O42   O     O_R   0.894200 0.500000 0.034990 -0.580597
O43   O     O_R   0.105800 0.500000 0.965010 -0.582037
O44   O     O_R   0.105800 0.500000 0.034990 -0.582027
O45   O     O_R   0.394200 0.000000 0.465010 -0.580597
O46   O     O_R   0.394200 0.000000 0.534990 -0.580597
O47   O     O_R   0.605800 0.000000 0.465010 -0.582027
O48   O     O_R   0.605800 0.000000 0.534990 -0.582032
C89   C     C_2   0.641533 0.538349 0.778369 0.813533
O49   O     O_2   0.689060 0.551343 0.752737 -0.590729
O50   O     O_R   0.656658 0.542336 0.821035 -0.776105
H1    H     H_    0.708998 0.556548 0.826868 0.339843
C90   C     C_2   0.641499 0.538394 0.221626 0.813509
O51   O     O_2   0.689023 0.551412 0.247254 -0.590747
O52   O     O_R   0.656617 0.542382 0.178958 -0.776121
H2    H     H_    0.708950 0.556617 0.173123 0.339832
C91   C     C_2   0.396102 0.603128 0.778338 0.808659
O53   O     O_2   0.361168 0.637762 0.752665 -0.605626
O54   O     O_R   0.384925 0.614234 0.820989 -0.774083
H3    H     H_    0.346408 0.652421 0.826761 0.335517
C92   C     C_2   0.396038 0.603068 0.221663 0.808645
O55   O     O_2   0.361089 0.637688 0.247335 -0.605626
O56   O     O_R   0.384855 0.614165 0.179012 -0.774088
H4    H     H_    0.346322 0.652335 0.173238 0.335516
C93   C     C_2   0.141520 0.038308 0.278371 0.813517
O57   O     O_2   0.189049 0.051290 0.252739 -0.590763
O58   O     O_R   0.156646 0.042295 0.321037 -0.776118
H5    H     H_    0.208991 0.056493 0.326869 0.339827
C94   C     C_2   0.141590 0.037968 0.721624 0.813522
O59   O     O_2   0.189152 0.050840 0.747253 -0.590759
O60   O     O_R   0.156720 0.041916 0.678957 -0.776129
H6    H     H_    0.209097 0.055990 0.673122 0.339828
C95   C     C_2   0.896096 0.103129 0.278335 0.808679
O61   O     O_2   0.861172 0.137769 0.252660 -0.605617
O62   O     O_R   0.884914 0.114236 0.320985 -0.774084
H7    H     H_    0.846403 0.152431 0.326756 0.335518
C96   C     C_2   0.896312 0.103351 0.721666 0.808656
O63   O     O_2   0.861471 0.138075 0.747340 -0.605627
O64   O     O_R   0.885149 0.114475 0.679015 -0.774070
H8    H     H_    0.846726 0.152758 0.673244 0.335518
C97   C     C_3   0.603802 0.397057 0.717753 -0.379337
C98   C     C_3   0.645603 0.355673 0.751734 -0.340330
C99   C     C_3   0.699515 0.302127 0.732524 -0.772126
H9    H     H_    0.670382 0.261492 0.713014 0.255971
H10   H     H_    0.739868 0.331518 0.712949 0.256118
H11   H     H_    0.729017 0.272927 0.757719 0.262633
H12   H     H_    0.676119 0.394392 0.771752 0.237320
H13   H     H_    0.607176 0.324916 0.771815 0.237697
H14   H     H_    0.573769 0.357749 0.697783 0.219698
H15   H     H_    0.642822 0.427374 0.697738 0.221487
C100  C     C_3   0.603828 0.397090 0.282246 -0.379360
C101  C     C_3   0.645643 0.355727 0.248264 -0.340354
C102  C     C_3   0.699559 0.302186 0.267473 -0.772147
H16   H     H_    0.739899 0.331581 0.287055 0.256097
H17   H     H_    0.670427 0.261540 0.286975 0.256012
H18   H     H_    0.729075 0.273002 0.242278 0.262635
H19   H     H_    0.607225 0.324969 0.228178 0.237714
H20   H     H_    0.676154 0.394460 0.228253 0.237320
H21   H     H_    0.642837 0.427423 0.302260 0.221486
H22   H     H_    0.573810 0.357769 0.302216 0.219710
C103  C     C_3   0.359060 0.461077 0.718065 -0.374973
C104  C     C_3   0.302614 0.446035 0.752301 -0.325154
C105  C     C_3   0.229741 0.423437 0.733487 -0.815585
H23   H     H_    0.208301 0.467250 0.713003 0.259992
H24   H     H_    0.236014 0.372651 0.715016 0.261342
H25   H     H_    0.189875 0.413347 0.758896 0.244634
H26   H     H_    0.321814 0.401774 0.773125 0.235940
H27   H     H_    0.294127 0.495560 0.771516 0.235018
H28   H     H_    0.339758 0.506317 0.697885 0.220043
H29   H     H_    0.365805 0.411809 0.698320 0.221822
C106  C     C_3   0.359069 0.461006 0.281945 -0.375001
C107  C     C_3   0.302627 0.445929 0.247714 -0.325209
C108  C     C_3   0.229764 0.423317 0.266534 -0.815412
H30   H     H_    0.236061 0.372550 0.285020 0.261371
H31   H     H_    0.208309 0.467140 0.287005 0.259975
H32   H     H_    0.189901 0.413187 0.241129 0.244617
H33   H     H_    0.294123 0.495441 0.228489 0.235030
H34   H     H_    0.321839 0.401664 0.226897 0.235964
H35   H     H_    0.365842 0.411746 0.301694 0.221815
H36   H     H_    0.339750 0.506243 0.302121 0.220062
C109  C     C_3   0.103770 0.897023 0.217757 -0.379329
C110  C     C_3   0.145553 0.855622 0.251739 -0.340323
C111  C     C_3   0.199461 0.802069 0.232530 -0.772108
H37   H     H_    0.170329 0.761451 0.213008 0.255987
H38   H     H_    0.239835 0.831456 0.212967 0.256093
H39   H     H_    0.228939 0.772847 0.257726 0.262625
H40   H     H_    0.176070 0.894330 0.271763 0.237304
H41   H     H_    0.107114 0.824867 0.271814 0.237706
H42   H     H_    0.073734 0.857725 0.197782 0.219691
H43   H     H_    0.142802 0.927334 0.197747 0.221495
C112  C     C_3   0.103513 0.896770 0.782243 -0.379356
C113  C     C_3   0.145208 0.855286 0.748260 -0.340330
C114  C     C_3   0.198957 0.801575 0.767469 -0.772130
H44   H     H_    0.239385 0.830839 0.787055 0.256138
H45   H     H_    0.169698 0.761013 0.786967 0.255953
H46   H     H_    0.228387 0.772304 0.742273 0.262634
H47   H     H_    0.106701 0.824649 0.728169 0.237693
H48   H     H_    0.175842 0.893929 0.728253 0.237332
H49   H     H_    0.142610 0.926987 0.802258 0.221480
H50   H     H_    0.073380 0.857536 0.802212 0.219706
C115  C     C_3   0.859036 0.961086 0.218059 -0.374981
C116  C     C_3   0.802579 0.946043 0.252289 -0.325187
C117  C     C_3   0.729703 0.923467 0.233468 -0.815348
H51   H     H_    0.708270 0.967296 0.212993 0.259958
H52   H     H_    0.735969 0.872693 0.214985 0.261348
H53   H     H_    0.689832 0.913363 0.258872 0.244613
H54   H     H_    0.821765 0.901769 0.273109 0.235954
H55   H     H_    0.794099 0.995561 0.271512 0.235019
H56   H     H_    0.839742 0.006333 0.197881 0.220051
H57   H     H_    0.865777 0.911823 0.198310 0.221813
C118  C     C_3   0.858939 0.961400 0.781950 -0.374982
C119  C     C_3   0.802444 0.946479 0.747725 -0.325229
C120  C     C_3   0.729522 0.924072 0.766553 -0.815354
H58   H     H_    0.735681 0.873292 0.785043 0.261302
H59   H     H_    0.708191 0.967958 0.787022 0.259976
H60   H     H_    0.689623 0.914044 0.741153 0.244626
H61   H     H_    0.794073 0.996014 0.728500 0.235020
H62   H     H_    0.821526 0.902158 0.726907 0.235954
H63   H     H_    0.865573 0.912125 0.801702 0.221816
H64   H     H_    0.839753 0.006695 0.802127 0.220048
C121  C     C_3   0.537723 0.641213 0.717916 -0.378521
C122  C     C_3   0.552401 0.697904 0.752064 -0.321807
C123  C     C_3   0.574276 0.770901 0.733127 -0.817315
H65   H     H_    0.625034 0.765005 0.714586 0.261022
H66   H     H_    0.530183 0.791877 0.712680 0.259505
H67   H     H_    0.584134 0.810950 0.758469 0.245265
H68   H     H_    0.502876 0.706017 0.771336 0.235580
H69   H     H_    0.596920 0.679169 0.772849 0.236171
H70   H     H_    0.586989 0.634810 0.698129 0.221933
H71   H     H_    0.492263 0.660067 0.697756 0.218352
C124  C     C_3   0.537653 0.641213 0.282079 -0.378525
C125  C     C_3   0.552286 0.697905 0.247925 -0.321800
C126  C     C_3   0.574171 0.770902 0.266855 -0.817510
H72   H     H_    0.530103 0.791863 0.287323 0.259534
H73   H     H_    0.624958 0.765012 0.285370 0.261015
H74   H     H_    0.583982 0.810957 0.241509 0.245294
H75   H     H_    0.596784 0.679177 0.227124 0.236160
H76   H     H_    0.502737 0.706012 0.228672 0.235583
H77   H     H_    0.492193 0.660047 0.302244 0.218335
H78   H     H_    0.586933 0.634831 0.301857 0.221954
C127  C     C_3   0.037725 0.141196 0.217920 -0.378506
C128  C     C_3   0.052418 0.197880 0.252069 -0.321758
C129  C     C_3   0.074241 0.270893 0.233133 -0.817528
H79   H     H_    0.124983 0.265028 0.214575 0.260982
H80   H     H_    0.030119 0.291859 0.212704 0.259540
H81   H     H_    0.084104 0.310938 0.258476 0.245285
H82   H     H_    0.002912 0.205967 0.271361 0.235570
H83   H     H_    0.096968 0.179156 0.272835 0.236160
H84   H     H_    0.086986 0.134791 0.198129 0.221917
H85   H     H_    0.992264 0.160059 0.197764 0.218366
C130  C     C_3   0.038041 0.141096 0.782073 -0.378509
C131  C     C_3   0.052837 0.197742 0.747918 -0.321749
C132  C     C_3   0.074873 0.270697 0.766844 -0.817557
H86   H     H_    0.030839 0.291767 0.787300 0.259532
H87   H     H_    0.125634 0.264703 0.785371 0.261055
H88   H     H_    0.084788 0.310720 0.741495 0.245277
H89   H     H_    0.097311 0.178903 0.727132 0.236160
H90   H     H_    0.003327 0.205958 0.728648 0.235584
H91   H     H_    0.992634 0.160061 0.802238 0.218353
H92   H     H_    0.087301 0.134580 0.801853 0.221944
C133  C     C_2   0.462931 0.358245 0.778445 0.812530
O65   O     O_2   0.450336 0.310579 0.752835 -0.591670
O66   O     O_R   0.459083 0.343141 0.821118 -0.770209
H93   H     H_    0.445315 0.290693 0.826971 0.340702
C134  C     C_2   0.462971 0.358216 0.221557 0.812534
O67   O     O_2   0.450397 0.310542 0.247166 -0.591647
O68   O     O_R   0.459124 0.343117 0.178884 -0.770197
H94   H     H_    0.445373 0.290665 0.173029 0.340714
C135  C     C_2   0.962882 0.858237 0.278445 0.812547
O69   O     O_2   0.950282 0.810574 0.252834 -0.591645
O70   O     O_R   0.959026 0.843135 0.321117 -0.770195
H95   H     H_    0.945247 0.790690 0.326970 0.340715
C136  C     C_2   0.962535 0.858311 0.721557 0.812540
O71   O     O_2   0.949823 0.810676 0.747168 -0.591639
O72   O     O_R   0.958642 0.843221 0.678885 -0.770206
H96   H     H_    0.944734 0.790810 0.673032 0.340714

loop_
_geom_bond_atom_site_label_1
_geom_bond_atom_site_label_2
_ccdc_geom_bond_type
C15   C75   T    
C91   O53   D    
C130  C131  S    
C111  H39   S    
C119  H62   S    
C57   C109  S    
C133  O65   D    
C106  H36   S    
C105  H24   S    
C128  C129  S    
Cu10  O38   S    
Cu4   O19   S    
Cu5   O21   S    
C108  H32   S    
C124  C125  S    
C126  H74   S    
C12   C84   S    
C103  H28   S    
C98   C99   S    
C46   C47   T    
C111  H37   S    
C33   O37   A    
C125  C126  S    
C3    C19   S    
Cu2   O16   S    
Cu9   O5    S    
C124  H77   S    
C5    C121  S    
C131  H89   S    
C92   O56   S    
C108  H31   S    
Cu1   O13   S    
C104  C105  S    
C100  C101  S    
C123  H65   S    
C115  H56   S    
C97   C98   S    
C10   C82   S    
C17   C21   T    
C19   C23   T    
C99   H9    S    
C118  H64   S    
C30   C76   S    
C97   H15   S    
C78   C82   S    
Cu2   Cu4   S    
O62   H7    S    
C42   C72   S    
Cu3   O18   S    
C135  O69   D    
Cu2   O4    S    
Cu6   O22   S    
C42   O16   A    
C13   C73   T    
C33   C47   S    
C34   C48   S    
C26   O23   A    
C1    O1    A    
C3    O3    A    
C123  H66   S    
Cu11  O47   S    
C125  H76   S    
Cu10  O44   S    
C58   C88   S    
C32   O35   A    
Cu4   O11   S    
C21   C35   S    
C22   C36   S    
Cu10  O6    S    
C36   O44   A    
C110  H40   S    
C4    O4    A    
C34   O40   A    
C59   C87   S    
C4    C20   S    
C107  C108  S    
C102  H16   S    
C13   C85   S    
O52   H2    S    
C53   C85   S    
C27   C73   S    
C61   C89   S    
C119  C120  S    
C67   C83   S    
Cu9   Cu10  S    
C60   C88   S    
Cu6   O27   S    
C109  C110  S    
C40   C70   S    
C14   C74   T    
Cu5   O33   S    
C89   O50   S    
C121  C122  S    
C136  O72   S    
C2    O2    A    
C55   C103  S    
C68   C96   S    
C56   C78   S    
C115  C116  S    
Cu5   O26   S    
C59   C67   S    
C53   C61   S    
C29   O29   A    
C134  O68   S    
C55   C63   S    
C109  H43   S    
Cu7   O30   S    
C56   C64   S    
Cu1   Cu3   S    
C114  H44   S    
C121  H70   S    
C7    C127  S    
C41   C71   S    
C118  H63   S    
C117  H53   S    
Cu11  O45   S    
C128  H82   S    
C93   O58   S    
Cu10  O42   S    
C129  H81   S    
C94   O60   S    
Cu11  O39   S    
C97   H14   S    
C41   O15   A    
C31   O34   A    
Cu9   O37   S    
C95   O62   S    
Cu2   O3    S    
Cu12  O8    S    
C100  H22   S    
C14   C86   S    
C56   C106  S    
C99   H11   S    
C122  H68   S    
C54   C86   S    
C116  H55   S    
C57   C87   S    
C112  H50   S    
C8    C88   S    
C43   O6    A    
C132  H86   S    
C102  H18   S    
C32   C50   S    
C39   C69   S    
C5    C61   S    
C98   H13   S    
C130  H92   S    
Cu8   O31   S    
C96   O63   D    
C101  H20   S    
C104  H26   S    
C113  H47   S    
C63   C91   S    
C25   C45   S    
C16   C88   S    
C44   O7    A    
Cu7   O23   S    
C60   C80   S    
C6    C124  S    
C16   C76   T    
C79   C135  S    
C64   C92   S    
C120  H60   S    
C111  H38   S    
C122  C123  S    
C78   C134  S    
C106  H35   S    
C1    C17   S    
C6    C86   S    
C62   C90   S    
Cu4   O20   S    
C61   C81   S    
C42   O20   A    
C29   O31   A    
C25   O21   A    
C30   O32   A    
C126  H73   S    
C12   C72   T    
C114  H46   S    
C35   O42   A    
C7    C67   S    
C129  H79   S    
C8    C130  S    
C40   O18   A    
C66   C94   S    
C131  H90   S    
C80   C84   S    
C28   C74   S    
C92   O55   D    
C118  C119  S    
Cu8   O36   S    
C108  H30   S    
C128  H83   S    
C125  H75   S    
Cu3   O10   S    
C9    C69   T    
C132  H88   S    
C11   C71   T    
C129  H80   S    
C107  H33   S    
C117  H51   S    
C65   C93   S    
C5    C63   S    
C94   O59   D    
C6    C64   S    
C1    O9    A    
C27   O27   A    
C7    C87   S    
O56   H4    S    
C3    O11   A    
C60   C118  S    
O50   H1    S    
Cu3   O17   S    
C37   O46   A    
C90   O52   S    
C58   C80   S    
C127  H85   S    
C62   C82   S    
O72   H96   S    
C91   O54   S    
C18   C22   T    
C26   O24   A    
C31   C49   S    
C28   O26   A    
C119  H61   S    
C133  O66   S    
C105  H25   S    
O68   H94   S    
C68   C84   S    
C117  H52   S    
C59   C79   S    
O58   H5    S    
C32   O36   A    
Cu4   O12   S    
C54   C62   S    
C11   C83   S    
C39   O17   A    
C55   C85   S    
C53   C77   S    
C80   C136  S    
C23   C37   S    
C7    C65   S    
O54   H3    S    
C110  H41   S    
C33   O38   A    
C49   C52   T    
C50   C51   T    
Cu2   O15   S    
C41   O19   A    
Cu9   O41   S    
C10   C70   T    
C124  H78   S    
C45   C48   T    
Cu1   O14   S    
C2    O10   A    
C115  H57   S    
C57   C65   S    
Cu6   O28   S    
Cu11  O7    S    
C6    C62   S    
C30   O30   A    
C89   O49   D    
C79   C83   S    
C27   O25   A    
C43   C51   S    
C136  O71   D    
C120  H58   S    
C67   C95   S    
C113  C114  S    
Cu5   O25   S    
C38   O47   A    
C26   C46   S    
O64   H8    S    
C60   C68   S    
C134  O67   D    
C109  H42   S    
Cu7   O29   S    
C28   O28   A    
C54   C78   S    
C123  H67   S    
O60   H6    S    
C8    C66   S    
C93   O57   D    
Cu1   O2    S    
C2    C18   S    
C103  C104  S    
C57   C79   S    
Cu7   Cu8   S    
C31   O33   A    
C95   O61   D    
C63   C81   S    
C131  C132  S    
C36   O43   A    
C100  H21   S    
C99   H10   S    
C122  H69   S    
C55   C77   S    
C65   C83   S    
C34   O39   A    
C112  H49   S    
C43   O5    A    
Cu9   O43   S    
C58   C112  S    
Cu12  O40   S    
C56   C86   S    
C58   C66   S    
C40   O14   A    
C20   C24   T    
Cu12  O46   S    
C102  H17   S    
C24   C38   S    
C77   C81   S    
C130  H91   S    
C25   O22   A    
Cu1   O1    S    
Cu8   O32   S    
C4    O12   A    
O66   H93   S    
C104  H27   S    
C113  H48   S    
C116  C117  S    
C44   O8    A    
C54   C100  S    
Cu8   O24   S    
C120  H59   S    
C77   C133  S    
O70   H95   S    
C39   O13   A    
C127  C128  S    
C101  H19   S    
C106  C107  S    
C53   C97   S    
Cu11  Cu12  S    
C38   O48   A    
Cu7   O35   S    
C126  H72   S    
Cu5   Cu6   S    
C114  H45   S    
C64   C82   S    
C121  H71   S    
C35   O41   A    
C8    C68   S    
C103  H29   S    
C15   C87   S    
C29   C75   S    
C116  H54   S    
C59   C115  S    
C101  C102  S    
Cu3   O9    S    
C5    C85   S    
C132  H87   S    
C44   C52   S    
C135  O70   S    
C107  H34   S    
Cu12  O48   S    
Cu6   O34   S    
C96   O64   S    
C98   H12   S    
C110  C111  S    
C66   C84   S    
C9    C81   S    
C112  C113  S    
C105  H23   S    
C37   O45   A    
C90   O51   D    
C127  H84   S    
