data_mof_unit_47851.cif
_audit_creation_date              2012-12-10T19:24:00-0500
_audit_creation_method            fapswitch 2.2
_symmetry_space_group_name_H-M    P1
_symmetry_Int_Tables_number       1
_space_group_crystal_system       triclinic
_cell_length_a                    17.709218
_cell_length_b                    16.519139
_cell_length_c                    10.871857
_cell_angle_alpha                 90.001224
_cell_angle_beta                  92.494907
_cell_angle_gamma                 89.999508
_cell_volume                      3177.44950628

loop_
_atom_site_label
_atom_site_type_symbol
_atom_type_description
_atom_site_fract_x
_atom_site_fract_y
_atom_site_fract_z
_atom_type_partial_charge
C1    C     C_R   0.355437 0.500142 0.500993 0.799769
C2    C     C_R   0.114829 0.502198 0.504326 0.103073
C3    C     C_1   0.966124 0.504771 0.498775 -0.079251
C4    C     C_1   0.033877 0.504771 0.501185 -0.079252
C5    C     C_R   0.558051 0.828210 0.565049 -0.001077
C6    C     C_R   0.441945 0.828208 0.434958 -0.001079
C7    C     C_R   0.556248 0.742291 0.562357 0.046670
C8    C     C_R   0.443751 0.742289 0.437646 0.046681
C9    C     C_R   0.499997 0.871958 0.500004 0.051118
C10   C     C_1   0.499996 0.961601 0.500004 -0.072425
C11   C     C_1   0.499996 0.035741 0.500004 -0.036984
C12   C     C_R   0.644563 0.500142 0.499004 0.799772
C13   C     C_R   0.494224 0.500520 0.261634 0.792185
C14   C     C_R   0.505775 0.500521 0.738366 0.792188
C15   C     C_R   0.546816 0.168425 0.581154 -0.285021
C16   C     C_R   0.453179 0.168424 0.418852 -0.285027
C17   C     C_R   0.548864 0.254356 0.578943 0.272569
C18   C     C_R   0.451134 0.254356 0.421060 0.272568
C19   C     C_R   0.499997 0.124821 0.500003 0.089170
C20   C     C_R   0.465575 0.651879 0.112072 -0.151018
C21   C     C_R   0.534413 0.651882 0.887938 -0.151020
C22   C     C_R   0.481024 0.725032 0.054544 -0.147007
C23   C     C_R   0.727325 0.500873 0.496667 -0.067707
C24   C     C_R   0.518960 0.725033 0.945471 -0.147005
C25   C     C_R   0.511645 0.577233 0.938957 0.103624
C26   C     C_R   0.488349 0.577232 0.061048 0.103632
C27   C     C_R   0.489495 0.502765 0.126797 -0.123241
C28   C     C_R   0.510503 0.502766 0.873203 -0.123241
C29   C     C_R   0.496449 0.429690 0.063057 -0.213222
C30   C     C_R   0.503554 0.429691 0.936938 -0.213215
C31   C     C_R   0.846470 0.567928 0.543729 -0.176046
C32   C     C_R   0.153530 0.567912 0.456196 -0.176042
C33   C     C_R   0.768008 0.567363 0.544276 -0.208521
C34   C     C_R   0.272676 0.500875 0.503321 -0.067690
C35   C     C_R   0.231993 0.567348 0.455661 -0.208540
C36   C     C_3   0.607561 0.291392 0.668166 -0.373939
C37   C     C_3   0.688220 0.269595 0.633071 -0.382438
C38   C     C_3   0.747513 0.314693 0.712925 -0.837951
C39   C     C_3   0.392435 0.291391 0.331842 -0.373944
C40   C     C_3   0.311775 0.269608 0.366957 -0.382401
C41   C     C_3   0.252482 0.314698 0.287097 -0.837939
C42   C     C_3   0.889618 0.363758 0.395099 -0.409479
C43   C     C_3   0.842238 0.292376 0.344207 -0.367784
C44   C     C_3   0.892748 0.225387 0.296850 -0.846074
C45   C     C_R   0.765918 0.435509 0.446091 -0.189838
C46   C     C_3   0.110385 0.363795 0.604967 -0.409488
C47   C     C_3   0.157770 0.292444 0.655948 -0.367779
C48   C     C_3   0.107261 0.225475 0.703362 -0.846075
C49   C     C_3   0.620312 0.874792 0.635710 -0.406215
C50   C     C_3   0.681455 0.823068 0.702666 -0.382613
C51   C     C_3   0.740372 0.876222 0.770003 -0.836405
C52   C     C_3   0.379680 0.874789 0.364304 -0.406214
C53   C     C_3   0.318542 0.823063 0.297336 -0.382617
C54   C     C_3   0.259622 0.876216 0.230006 -0.836400
C55   C     C_R   0.234084 0.435527 0.553935 -0.189838
C56   C     C_R   0.845449 0.434616 0.446034 0.120518
C57   C     C_R   0.154553 0.434634 0.553985 0.120529
C58   C     C_R   0.885172 0.502199 0.495640 0.103075
Cu1   Cu    Cu3+1 0.500000 0.580420 0.500000 0.929703
Cu2   Cu    Cu3+1 0.500000 0.419580 0.500000 0.916584
H1    H     H_    0.495865 0.372058 0.110554 0.158634
H2    H     H_    0.266833 0.386408 0.594213 0.138250
H3    H     H_    0.583190 0.135110 0.646024 0.138018
H4    H     H_    0.416802 0.135109 0.353985 0.138018
H5    H     H_    0.739815 0.381150 0.703587 0.257435
H6    H     H_    0.743027 0.297447 0.811080 0.250296
H7    H     H_    0.804878 0.298788 0.683279 0.245339
H8    H     H_    0.698333 0.203602 0.644234 0.211206
H9    H     H_    0.695359 0.285015 0.535103 0.222758
H10   H     H_    0.604324 0.356894 0.675622 0.251629
H11   H     H_    0.598042 0.268107 0.762235 0.157419
H12   H     H_    0.504142 0.372059 0.889438 0.158633
H13   H     H_    0.260183 0.381157 0.296415 0.257434
H14   H     H_    0.256962 0.297438 0.188945 0.250289
H15   H     H_    0.195118 0.298803 0.316754 0.245341
H16   H     H_    0.301659 0.203614 0.355817 0.211199
H17   H     H_    0.304642 0.285045 0.464922 0.222775
H18   H     H_    0.395678 0.356891 0.324373 0.251621
H19   H     H_    0.401944 0.268095 0.237775 0.157416
H20   H     H_    0.739155 0.618527 0.583272 0.138944
H21   H     H_    0.260846 0.618499 0.416634 0.138933
H22   H     H_    0.927047 0.248497 0.221228 0.253346
H23   H     H_    0.433636 0.654788 0.194076 0.136708
H24   H     H_    0.931066 0.202244 0.372500 0.250832
H25   H     H_    0.857156 0.174578 0.260906 0.241374
H26   H     H_    0.808064 0.266781 0.418144 0.218193
H27   H     H_    0.803969 0.313239 0.266845 0.219957
H28   H     H_    0.924667 0.386966 0.320328 0.203503
H29   H     H_    0.928466 0.340550 0.470135 0.195547
H30   H     H_    0.072945 0.248622 0.778940 0.253344
H31   H     H_    0.068959 0.202287 0.627725 0.250833
H32   H     H_    0.142857 0.174692 0.739382 0.241378
H33   H     H_    0.191957 0.266815 0.582051 0.218180
H34   H     H_    0.566353 0.654793 0.805933 0.136716
H35   H     H_    0.196027 0.313350 0.733297 0.219963
H36   H     H_    0.075320 0.387030 0.679701 0.203508
H37   H     H_    0.071552 0.340547 0.529940 0.195545
H38   H     H_    0.768696 0.916012 0.703741 0.251377
H39   H     H_    0.713331 0.914202 0.840024 0.250827
H40   H     H_    0.783770 0.837354 0.817312 0.241666
H41   H     H_    0.655220 0.783354 0.771408 0.209954
H42   H     H_    0.710570 0.784948 0.635014 0.216332
H43   H     H_    0.648420 0.915117 0.569739 0.209610
H44   H     H_    0.593408 0.913658 0.704953 0.203710
H45   H     H_    0.465143 0.781718 0.096206 0.134856
H46   H     H_    0.231282 0.915988 0.296278 0.251375
H47   H     H_    0.286663 0.914215 0.160012 0.250826
H48   H     H_    0.216237 0.837347 0.182665 0.241664
H49   H     H_    0.344782 0.783356 0.228588 0.209953
H50   H     H_    0.289429 0.784937 0.364978 0.216335
H51   H     H_    0.351568 0.915109 0.430281 0.209612
H52   H     H_    0.406581 0.913660 0.295068 0.203710
H53   H     H_    0.599696 0.707145 0.609860 0.111696
H54   H     H_    0.400302 0.707143 0.390143 0.111696
H55   H     H_    0.534838 0.781721 0.903814 0.134856
H56   H     H_    0.877154 0.619607 0.581687 0.140408
H57   H     H_    0.122845 0.619577 0.418197 0.140411
H58   H     H_    0.733171 0.386377 0.405847 0.138271
N1    N     N_R   0.500000 0.701220 0.500000 -0.193675
N2    N     N_R   0.500000 0.298780 0.500000 -0.191454
O1    O     O_R   0.391260 0.567930 0.500000 -0.585216
O2    O     O_R   0.608740 0.567930 0.500000 -0.585217
O3    O     O_R   0.391280 0.432120 0.500000 -0.590622
O4    O     O_R   0.608720 0.432120 0.500000 -0.590625
O5    O     O_R   0.500000 0.567920 0.319650 -0.580704
O6    O     O_R   0.500000 0.567920 0.680350 -0.580705
O7    O     O_R   0.500030 0.432100 0.319660 -0.602904
O8    O     O_R   0.499970 0.432100 0.680340 -0.602906

loop_
_geom_bond_atom_site_label_1
_geom_bond_atom_site_label_2
_ccdc_geom_bond_type
C45   H58   S    
Cu1   O1    S    
C55   H2    S    
C14   C28   S    
C23   C45   A    
C37   H9    S    
C27   C29   A    
C32   H57   S    
C43   C44   S    
C49   H44   S    
C35   H21   S    
C2    C57   A    
C53   C54   S    
Cu1   O6    S    
C15   C19   A    
C12   C23   S    
C11   C19   S    
C26   C27   A    
C29   C30   A    
C54   H47   S    
C31   C58   A    
C36   C37   S    
C44   H22   S    
C21   H34   S    
C52   H52   S    
C37   H8    S    
C14   O8    A    
C2    C32   A    
C34   C35   A    
Cu2   O4    S    
C17   N2    A    
C42   C56   S    
C41   H14   S    
C53   H50   S    
C38   H6    S    
C45   C56   A    
C23   C33   A    
C48   H31   S    
C31   C33   A    
C17   C36   S    
C9    C10   S    
C36   H11   S    
C8    H54   S    
C13   O5    A    
Cu1   O2    S    
C34   C55   A    
C48   H30   S    
C5    C49   S    
C6    C9    A    
C36   H10   S    
C1    C34   S    
C51   H39   S    
C29   H1    S    
C54   H46   S    
C32   C35   A    
C7    N1    A    
Cu2   O8    S    
C39   C40   S    
C5    C7    A    
C6    C8    A    
C52   H51   S    
C25   C26   A    
C40   H16   S    
C25   C28   A    
C39   H19   S    
Cu2   O3    S    
C2    C4    S    
C18   C39   S    
C1    O3    A    
C5    C9    A    
C37   C38   S    
C41   H15   S    
C47   C48   S    
C12   O4    A    
C38   H5    S    
C50   C51   S    
C47   H33   S    
C12   O2    A    
C15   H3    S    
C50   H41   S    
C40   C41   S    
C46   H37   S    
C20   C22   A    
C50   H42   S    
C55   C57   A    
C46   C57   S    
C22   C24   A    
C21   C24   A    
C42   H28   S    
C42   C43   S    
C3    C4    T    
C18   N2    A    
C31   H56   S    
C52   C53   S    
C53   H49   S    
C51   H40   S    
C15   C17   A    
C21   C25   A    
C46   C47   S    
Cu1   N1    S    
C43   H26   S    
Cu2   O7    S    
C44   H24   S    
C49   H43   S    
C30   H12   S    
C33   H20   S    
Cu1   O5    S    
C22   H45   S    
C14   O6    A    
C54   H48   S    
C42   H29   S    
C43   H27   S    
C7    H53   S    
C28   C30   A    
C20   C26   A    
C51   H38   S    
C16   C19   A    
C56   C58   A    
Cu2   N2    S    
C1    O1    A    
C10   C11   T    
C41   H13   S    
C13   O7    A    
C3    C58   S    
Cu1   Cu2   S    
C46   H36   S    
C38   H7    S    
C24   H55   S    
C16   C18   A    
C49   C50   S    
C48   H32   S    
C20   H23   S    
C47   H35   S    
C40   H17   S    
C13   C27   S    
C16   H4    S    
C6    C52   S    
C39   H18   S    
C44   H25   S    
C8    N1    A    
