data_mof_unit_6715.cif
_audit_creation_date              2012-10-26T20:44:08-0400
_audit_creation_method            fapswitch 2.2
_symmetry_space_group_name_H-M    P1
_symmetry_Int_Tables_number       1
_space_group_crystal_system       triclinic
_cell_length_a                    10.771017
_cell_length_b                    9.516477
_cell_length_c                    19.415892
_cell_angle_alpha                 89.993242
_cell_angle_beta                  89.947359
_cell_angle_gamma                 89.974069
_cell_volume                      1990.16933601

loop_
_atom_site_label
_atom_site_type_symbol
_atom_type_description
_atom_site_fract_x
_atom_site_fract_y
_atom_site_fract_z
_atom_type_partial_charge
C1    C     C_R   0.871399 0.499748 0.499399 0.032663
C2    C     C_R   0.737388 0.499944 0.499662 0.548145
C3    C     C_R   0.499479 0.500038 0.367606 0.534999
C4    C     C_R   0.500717 0.499989 0.632433 0.535494
C5    C     C_R   0.064307 0.475718 0.562953 -0.006650
C6    C     C_R   0.935685 0.524062 0.437018 -0.005942
C7    C     C_R   0.933704 0.475425 0.562212 -0.014215
C8    C     C_R   0.066286 0.524604 0.437785 -0.015121
C9    C     C_R   0.503388 0.372679 0.744396 -0.143396
C10   C     C_R   0.480037 0.625838 0.255794 -0.142267
C11   C     C_R   0.522407 0.375552 0.255638 -0.135924
C12   C     C_R   0.128596 0.500217 0.500591 0.032537
C13   C     C_R   0.500564 0.627127 0.744433 -0.141326
C14   C     C_R   0.500098 0.371312 0.816630 0.233465
C15   C     C_R   0.482949 0.627799 0.183556 0.236802
C16   C     C_R   0.525386 0.375725 0.183712 0.232200
C17   C     C_R   0.504963 0.628389 0.816635 0.235462
C18   C     C_R   0.502704 0.499829 0.852658 0.050173
C19   C     C_R   0.502661 0.501349 0.147732 0.041954
C20   C     C_R   0.425558 0.074464 0.455836 0.014772
C21   C     C_R   0.574413 0.925533 0.544182 0.013584
C22   C     C_R   0.574420 0.074386 0.544180 0.012865
C23   C     C_R   0.599097 0.566287 0.964537 -0.077111
C24   C     C_R   0.425561 0.925612 0.455831 0.014666
C25   C     C_R   0.501535 0.499931 0.708124 -0.083735
C26   C     C_R   0.500638 0.500404 0.292007 -0.085220
C27   C     C_3   0.133673 0.451651 0.630104 -0.385093
C28   C     C_3   0.866309 0.547604 0.369823 -0.387194
C29   C     C_3   0.857859 0.451118 0.627421 -0.385730
C30   C     C_3   0.142124 0.549175 0.372603 -0.383147
C31   C     C_3   0.405920 0.158039 0.835192 -0.128166
C32   C     C_3   0.540635 0.855539 0.162203 -0.108615
C33   C     C_3   0.674577 0.226237 0.146407 -0.135890
C34   C     C_R   0.406913 0.433484 0.036511 -0.068623
C35   C     C_3   0.599868 0.841252 0.834917 -0.130535
C36   C     C_R   0.598572 0.567496 0.036243 -0.097084
C37   C     C_R   0.406627 0.433659 0.964785 -0.076737
C38   C     C_R   0.502566 0.500966 0.072324 0.094605
C39   C     C_R   0.502860 0.499836 0.928436 0.098806
C40   C     C_R   0.262610 0.500052 0.500334 0.548574
Cu1   Cu    Cu3+1 0.500000 0.640660 0.500000 0.923045
Cu2   Cu    Cu3+1 0.500000 0.359340 0.500000 0.922303
H1    H     H_    0.365897 0.130615 0.420476 0.111900
H2    H     H_    0.332255 0.382062 0.064149 0.121408
H3    H     H_    0.673384 0.618907 0.063667 0.095036
H4    H     H_    0.331067 0.383190 0.937626 0.111423
H5    H     H_    0.235892 0.455184 0.625214 0.148257
H6    H     H_    0.108040 0.534372 0.667856 0.125939
H7    H     H_    0.109968 0.346491 0.651108 0.127294
H8    H     H_    0.764099 0.543613 0.374683 0.146758
H9    H     H_    0.889672 0.652790 0.348742 0.128695
H10   H     H_    0.892245 0.464851 0.332146 0.120680
H11   H     H_    0.799329 0.355979 0.621147 0.140583
H12   H     H_    0.634034 0.869381 0.579565 0.106071
H13   H     H_    0.913406 0.435436 0.674631 0.121043
H14   H     H_    0.796679 0.543108 0.636895 0.130166
H15   H     H_    0.200562 0.644362 0.378941 0.140639
H16   H     H_    0.203403 0.457292 0.363085 0.134114
H17   H     H_    0.086582 0.564926 0.325396 0.123969
H18   H     H_    0.424474 0.102736 0.785896 0.117076
H19   H     H_    0.316278 0.216334 0.832424 0.101580
H20   H     H_    0.395657 0.076602 0.875672 0.172321
H21   H     H_    0.638229 0.816771 0.160456 0.088923
H22   H     H_    0.520223 0.904590 0.212864 0.124568
H23   H     H_    0.634054 0.130472 0.579554 0.103454
H24   H     H_    0.531747 0.938832 0.122580 0.181331
H25   H     H_    0.711455 0.204038 0.198810 0.106617
H26   H     H_    0.725831 0.315472 0.122493 0.118452
H27   H     H_    0.691981 0.132069 0.114173 0.132435
H28   H     H_    0.581345 0.896349 0.785575 0.112810
H29   H     H_    0.689346 0.782645 0.832070 0.098957
H30   H     H_    0.610440 0.922871 0.875268 0.168770
H31   H     H_    0.365910 0.869523 0.420467 0.104718
H32   H     H_    0.508056 0.274213 0.716639 0.134580
H33   H     H_    0.458950 0.721573 0.283547 0.134553
H34   H     H_    0.537983 0.277637 0.282764 0.144825
H35   H     H_    0.495610 0.725656 0.716739 0.136969
H36   H     H_    0.674773 0.616313 0.937200 0.110602
N1    N     N_R   0.500000 0.852070 0.500000 -0.222381
N2    N     N_R   0.500000 0.147930 0.500000 -0.223249
O1    O     O_R   0.319640 0.618740 0.500000 -0.499875
O2    O     O_3   0.454211 0.748636 0.146945 -0.557457
O3    O     O_3   0.545654 0.251780 0.148313 -0.572406
O4    O     O_3   0.499262 0.753637 0.853146 -0.568976
O5    O     O_R   0.680360 0.381260 0.500000 -0.500792
O6    O     O_R   0.680360 0.618740 0.500000 -0.500127
O7    O     O_R   0.319640 0.381260 0.500000 -0.499983
O8    O     O_R   0.500020 0.618830 0.400190 -0.508794
O9    O     O_R   0.499980 0.381170 0.599810 -0.509467
O10   O     O_R   0.499980 0.618830 0.599810 -0.504497
O11   O     O_R   0.500020 0.381170 0.400190 -0.504281
O12   O     O_3   0.506367 0.246057 0.853120 -0.574628

loop_
_geom_bond_atom_site_label_1
_geom_bond_atom_site_label_2
_ccdc_geom_bond_type
C27   H6    S    
Cu2   N2    S    
C7    C29   S    
C34   C37   A    
Cu1   Cu2   S    
C31   H19   S    
C9    C14   A    
C4    C25   S    
C9    C25   A    
C15   C19   A    
Cu1   O6    S    
C40   O7    A    
C1    C2    S    
C11   H34   S    
C21   H12   S    
C28   H9    S    
C24   H31   S    
C30   H15   S    
C2    O5    A    
C3    O11   A    
Cu2   O11   S    
C11   C16   A    
C14   C18   A    
C5    C27   S    
C28   H8    S    
C6    C28   S    
C20   C24   A    
C35   H28   S    
C33   H27   S    
C10   C26   A    
Cu1   O10   S    
C35   H29   S    
C1    C7    A    
C21   C22   A    
C31   H20   S    
C13   C25   A    
C15   O2    S    
C4    O10   A    
C13   H35   S    
C20   N2    A    
C1    C6    A    
C34   H2    S    
C32   H22   S    
C5    C12   A    
C5    C7    A    
C6    C8    A    
C29   H13   S    
C11   C26   A    
C16   O3    S    
C31   H18   S    
C12   C40   S    
C18   C39   S    
C22   H23   S    
C19   C38   S    
C10   H33   S    
C24   N1    A    
C8    C12   A    
Cu1   O1    S    
C30   H17   S    
C21   N1    A    
C17   C18   A    
C36   H3    S    
Cu2   O5    S    
C33   O3    S    
C14   O12   S    
C35   H30   S    
C23   C36   A    
C9    H32   S    
C20   H1    S    
C33   H25   S    
C32   H24   S    
C4    O9    A    
C27   H5    S    
Cu1   O8    S    
C3    O8    A    
C34   C38   A    
C40   O1    A    
C3    C26   S    
C32   H21   S    
Cu1   N1    S    
C35   O4    S    
C29   H14   S    
C32   O2    S    
C13   C17   A    
C10   C15   A    
C17   O4    S    
C8    C30   S    
Cu2   O9    S    
C36   C38   A    
C22   N2    A    
C37   C39   A    
C28   H10   S    
C29   H11   S    
C16   C19   A    
C23   C39   A    
C30   H16   S    
C2    O6    A    
C23   H36   S    
C31   O12   S    
Cu2   O7    S    
C37   H4    S    
C27   H7    S    
C33   H26   S    
