data_mof_unit_57459.cif
_audit_creation_date              2012-12-10T18:42:34-0500
_audit_creation_method            fapswitch 2.2
_symmetry_space_group_name_H-M    P1
_symmetry_Int_Tables_number       1
_space_group_crystal_system       triclinic
_cell_length_a                    8.591505
_cell_length_b                    10.647006
_cell_length_c                    9.860315
_cell_angle_alpha                 89.666824
_cell_angle_beta                  98.67404
_cell_angle_gamma                 90.19823
_cell_volume                      891.626079706

loop_
_atom_site_label
_atom_site_type_symbol
_atom_type_description
_atom_site_fract_x
_atom_site_fract_y
_atom_site_fract_z
_atom_type_partial_charge
C1    C     C_R   0.504309 0.260301 0.500973 0.878825
C2    C     C_R   0.397714 0.066856 0.570293 -0.211912
C3    C     C_R   0.491638 0.872114 0.496923 -0.234206
C4    C     C_R   0.508362 0.127886 0.503077 -0.234207
C5    C     C_R   0.599088 0.577173 0.084388 -0.060821
C6    C     C_R   0.400912 0.422827 0.915612 -0.060821
C7    C     C_R   0.599037 0.577142 0.940621 -0.046589
C8    C     C_R   0.400963 0.422858 0.059379 -0.046588
C9    C     C_R   0.495691 0.739699 0.499027 0.878824
C10   C     C_R   0.201127 0.499941 0.464078 0.954465
C11   C     C_R   0.798873 0.500059 0.535922 0.954466
C12   C     C_2   0.035963 0.500009 0.444788 -0.373012
C13   C     C_2   0.964037 0.499991 0.555212 -0.373014
C14   C     C_R   0.614065 0.061777 0.433812 0.462119
C15   C     C_R   0.385937 0.938223 0.566189 0.462117
C16   C     C_R   0.602286 0.933145 0.429707 -0.211916
H1    H     H_    0.974007 0.500100 0.340061 0.183864
H2    H     H_    0.246819 0.797075 0.589372 0.334771
H3    H     H_    0.025993 0.499900 0.659939 0.183864
H4    H     H_    0.683967 0.880223 0.378506 0.182586
H5    H     H_    0.316032 0.119777 0.621491 0.182586
H6    H     H_    0.678377 0.638929 0.148746 0.132007
H7    H     H_    0.321623 0.361071 0.851254 0.132007
H8    H     H_    0.678285 0.638877 0.896270 0.137640
H9    H     H_    0.321715 0.361123 0.103730 0.137640
H10   H     H_    0.753187 0.202924 0.410637 0.334767
N1    N     N_R   0.499960 0.499970 0.857200 -0.084985
N2    N     N_R   0.500040 0.500030 0.142800 -0.084984
O1    O     O_R   0.499990 0.316750 0.614620 -0.618050
O2    O     O_3   0.268702 0.882189 0.627438 -0.748056
O3    O     O_R   0.500010 0.683250 0.385380 -0.618049
O4    O     O_R   0.499990 0.316780 0.385290 -0.605253
O5    O     O_R   0.500010 0.683220 0.614710 -0.605258
O6    O     O_R   0.271750 0.499990 0.587840 -0.621429
O7    O     O_R   0.728250 0.500010 0.412160 -0.621428
O8    O     O_R   0.271750 0.500010 0.358510 -0.622997
O9    O     O_R   0.728250 0.499990 0.641490 -0.622996
O10   O     O_3   0.731298 0.117813 0.372564 -0.748053
Zn1   Zn    Zn3+2 0.500000 0.499980 0.653120 0.961036
Zn2   Zn    Zn3+2 0.500000 0.500020 0.346880 0.961038

loop_
_geom_bond_atom_site_label_1
_geom_bond_atom_site_label_2
_ccdc_geom_bond_type
C12   H1    S    
C2    C4    A    
H2    O2    S    
C14   O10   S    
C5    N2    A    
C6    N1    A    
C16   H4    S    
C1    C4    S    
O1    Zn1   S    
C2    H5    S    
C11   O7    A    
O7    Zn2   S    
C7    N1    A    
C10   O6    A    
C12   C13   D    
C9    O5    A    
C2    C15   A    
C11   C13   S    
O5    Zn1   S    
C10   C12   S    
C3    C9    S    
C6    H7    S    
C1    O1    A    
C10   O8    A    
C9    O3    A    
C5    C7    A    
O4    Zn2   S    
C4    C14   A    
C8    N2    A    
C14   C16   A    
N2    Zn2   S    
C8    H9    S    
O6    Zn1   S    
O8    Zn2   S    
C3    C15   A    
O3    Zn2   S    
C15   O2    S    
O9    Zn1   S    
C11   O9    A    
C13   H3    S    
H10   O10   S    
C6    C8    A    
C3    C16   A    
C1    O4    A    
C5    H6    S    
C7    H8    S    
N1    Zn1   S    
