data_mof_unit_9327.cif
_audit_creation_date              2012-12-10T17:07:13-0500
_audit_creation_method            fapswitch 2.2
_symmetry_space_group_name_H-M    P1
_symmetry_Int_Tables_number       1
_space_group_crystal_system       triclinic
_cell_length_a                    17.086693
_cell_length_b                    11.123353
_cell_length_c                    9.868969
_cell_angle_alpha                 111.557543
_cell_angle_beta                  95.363217
_cell_angle_gamma                 89.957579
_cell_volume                      1735.72036896

loop_
_atom_site_label
_atom_site_type_symbol
_atom_type_description
_atom_site_fract_x
_atom_site_fract_y
_atom_site_fract_z
_atom_type_partial_charge
C1    C     C_R   0.494754 0.254711 0.441839 0.938101
C2    C     C_R   0.499830 0.744671 0.558849 0.827517
C3    C     C_2   0.476506 0.120031 0.414259 -0.366403
C4    C     C_2   0.499590 0.882216 0.589568 -0.412167
C5    C     C_2   0.508797 0.057267 0.498309 -0.052707
C6    C     C_2   0.474676 0.930128 0.485737 0.000670
C7    C     C_2   0.500689 0.517020 0.083153 -0.087216
C8    C     C_2   0.492586 0.493697 0.919961 -0.117401
C9    C     C_R   0.351239 0.503943 0.519494 0.851884
C10   C     C_R   0.648499 0.502692 0.481980 0.885835
C11   C     C_R   0.267444 0.524515 0.537312 -0.165894
C12   C     C_R   0.732234 0.524698 0.474940 -0.129831
C13   C     C_R   0.206980 0.451229 0.431099 0.424809
C14   C     C_R   0.790514 0.457032 0.524733 0.378343
C15   C     C_R   0.129321 0.488431 0.447430 -0.197236
C16   C     C_R   0.869493 0.491526 0.530811 -0.224518
C17   C     C_R   0.110326 0.592907 0.570325 0.095745
C18   C     C_R   0.891400 0.589528 0.482925 0.116070
C19   C     C_R   0.169451 0.659591 0.679779 -0.154167
C20   C     C_R   0.833685 0.651709 0.425596 -0.159420
C21   C     C_R   0.247567 0.626962 0.662366 -0.283077
C22   C     C_R   0.754335 0.620513 0.423289 -0.281515
C23   C     C_2   0.027527 0.621054 0.591744 -0.198939
C24   C     C_2   0.975141 0.615946 0.479630 -0.203654
Cu1   Cu    Cu3+1 0.513640 0.521550 0.643210 0.974783
Cu2   Cu    Cu3+1 0.486360 0.478450 0.356790 0.991518
H1    H     H_    0.710025 0.672751 0.383658 0.157746
H2    H     H_    0.292837 0.683763 0.745752 0.158905
H3    H     H_    0.994777 0.615197 0.377696 0.159599
H4    H     H_    0.007785 0.630899 0.696782 0.160496
H5    H     H_    0.155281 0.738101 0.777351 0.147883
H6    H     H_    0.850015 0.725600 0.385269 0.141788
H7    H     H_    0.914372 0.439043 0.568568 0.182877
H8    H     H_    0.082866 0.432361 0.366352 0.189319
H9    H     H_    0.531833 0.942074 0.692284 0.148590
H10   H     H_    0.427262 0.077594 0.332720 0.179133
H11   H     H_    0.448012 0.424613 0.848761 0.159143
H12   H     H_    0.536334 0.599723 0.156984 0.168682
N1    N     N_2   0.465840 0.446060 0.141630 -0.214377
N2    N     N_2   0.534160 0.553940 0.858370 -0.211826
O1    O     O_R   0.507280 0.332200 0.576490 -0.570487
O2    O     O_R   0.492720 0.667800 0.423510 -0.578284
O3    O     O_R   0.484240 0.295800 0.334620 -0.570254
O4    O     O_R   0.515760 0.704200 0.665380 -0.604761
O5    O     O_R   0.399260 0.520290 0.634950 -0.611027
O6    O     O_R   0.600740 0.479710 0.365050 -0.605599
O7    O     O_R   0.376220 0.483890 0.393080 -0.520645
O8    O     O_R   0.623780 0.516110 0.606920 -0.521626
S1    S     S_3+6 0.222664 0.309352 0.280123 -0.017147
O9    O     O_2   0.221459 0.344287 0.146883 -0.326031
O10   O     O_2   0.299310 0.249778 0.302972 -0.308196
O11   O     O_3   0.148770 0.200916 0.254153 -0.538787
H13   H     H_    0.158466 0.127601 0.163835 0.374090
S2    S     S_3+6 0.766516 0.324711 0.571876 -0.023293
O12   O     O_2   0.701449 0.244189 0.463673 -0.319698
O13   O     O_2   0.836381 0.242302 0.571096 -0.315605
O14   O     O_3   0.736018 0.381786 0.739838 -0.523807
H14   H     H_    0.783285 0.425280 0.805856 0.333803
C25   C     C_R   0.416082 0.855534 0.359798 0.181586
C26   C     C_R   0.344724 0.808431 0.385398 -0.115389
C27   C     C_R   0.291136 0.735061 0.267915 -0.091398
C28   C     C_R   0.307808 0.709336 0.124131 -0.106897
C29   C     C_R   0.378306 0.756200 0.097621 -0.143209
C30   C     C_R   0.432596 0.827717 0.214776 -0.166791
H15   H     H_    0.330981 0.827703 0.496247 0.102842
H16   H     H_    0.236687 0.698160 0.288425 0.139126
H17   H     H_    0.266211 0.652854 0.033253 0.131546
H18   H     H_    0.391313 0.735885 0.986263 0.132833
H19   H     H_    0.487538 0.861757 0.193185 0.128662
C31   C     C_R   0.582848 0.104844 0.597161 0.175980
C32   C     C_R   0.579465 0.188627 0.742878 -0.076425
C33   C     C_R   0.644470 0.207151 0.846436 -0.138247
C34   C     C_R   0.713143 0.140730 0.805753 -0.048567
C35   C     C_R   0.717012 0.056405 0.661240 -0.030116
C36   C     C_R   0.652085 0.037957 0.557476 -0.075678
H20   H     H_    0.524991 0.233260 0.777568 0.132647
H21   H     H_    0.641072 0.270909 0.958853 0.120722
H22   H     H_    0.763223 0.154327 0.886255 0.130752
H23   H     H_    0.769882 0.003856 0.630047 0.136292
H24   H     H_    0.654560 0.967849 0.447519 0.121849
C37   C     C_R   0.594577 0.645291 0.945038 0.324508
C38   C     C_R   0.663701 0.603936 0.000703 -0.158800
C39   C     C_R   0.723133 0.693894 0.084643 -0.195254
C40   C     C_R   0.713638 0.825759 0.114891 -0.105142
C41   C     C_R   0.644829 0.867676 0.060467 -0.180159
C42   C     C_R   0.585622 0.777712 0.975376 -0.179725
H25   H     H_    0.670907 0.502396 0.980291 0.161052
H26   H     H_    0.776385 0.661335 0.126621 0.145736
H27   H     H_    0.759417 0.895424 0.180917 0.156401
H28   H     H_    0.637146 0.969875 0.084815 0.149829
H29   H     H_    0.531925 0.811705 0.937016 0.134408
C43   C     C_R   0.429325 0.325611 0.046882 0.305205
C44   C     C_R   0.468419 0.209888 0.024847 -0.149054
C45   C     C_R   0.432437 0.091534 0.932856 -0.183704
C46   C     C_R   0.357960 0.088072 0.859584 -0.101348
C47   C     C_R   0.319091 0.203030 0.879357 -0.082642
C48   C     C_R   0.354360 0.321420 0.973496 -0.110980
H30   H     H_    0.527047 0.211489 0.077696 0.140444
H31   H     H_    0.462548 0.002650 0.917602 0.129539
H32   H     H_    0.330499 0.996422 0.787323 0.125393
H33   H     H_    0.261475 0.200414 0.822324 0.154564
H34   H     H_    0.323932 0.410096 0.988235 0.145874

loop_
_geom_bond_atom_site_label_1
_geom_bond_atom_site_label_2
_ccdc_geom_bond_type
C9    O5    A    
C44   C45   A    
C34   C35   A    
C46   C47   A    
C19   H5    S    
C37   C38   A    
C7    C8    S    
C41   C42   A    
C25   C30   A    
C17   C23   S    
C28   H17   S    
C18   C24   S    
C45   H31   S    
C19   C21   A    
C42   H29   S    
Cu1   N2    S    
C5    C6    S    
Cu2   N1    S    
C38   H25   S    
C12   C22   A    
C24   H3    S    
C33   H21   S    
S2    O12   D    
C27   H16   S    
C1    O3    A    
C2    O4    A    
S1    O10   D    
C43   C48   A    
C23   C24   D    
C31   C32   A    
C36   H24   S    
C15   H8    S    
C48   H34   S    
C39   H26   S    
C4    H9    S    
C25   C26   A    
C47   H33   S    
C45   C46   A    
C6    C25   S    
Cu1   O4    S    
Cu2   O3    S    
S2    O13   D    
C35   C36   A    
C23   H4    S    
C40   C41   A    
C4    C6    D    
Cu1   O1    S    
C46   H32   S    
Cu1   Cu2   S    
C11   C21   A    
C26   C27   A    
C1    C3    S    
C2    C4    S    
C10   O6    A    
C28   C29   A    
C16   H7    S    
C39   C40   A    
C34   H22   S    
S1    O11   S    
C47   C48   A    
C30   H19   S    
C9    C11   S    
Cu1   O8    S    
C10   C12   S    
Cu2   O7    S    
C13   S1    S    
C1    O1    A    
C14   S2    S    
C21   H2    S    
C20   C22   A    
C26   H15   S    
C9    O7    A    
C22   H1    S    
C13   C15   A    
C10   O8    A    
C14   C16   A    
C8    H11   S    
Cu1   O5    S    
N1    C43   S    
O11   H13   S    
Cu2   O2    S    
C20   H6    S    
C15   C17   A    
C29   H18   S    
N2    C37   S    
C37   C42   A    
C12   C14   A    
C33   C34   A    
C3    C5    D    
C5    C31   S    
C41   H28   S    
C35   H23   S    
C32   C33   A    
C11   C13   A    
O14   H14   S    
C32   H20   S    
C3    H10   S    
C2    O2    A    
C43   C44   A    
C17   C19   A    
C7    H12   S    
C18   C20   A    
C27   C28   A    
Cu2   O6    S    
C29   C30   A    
C16   C18   A    
S1    O9    D    
C40   H27   S    
C31   C36   A    
C7    N1    D    
C8    N2    D    
C38   C39   A    
C44   H30   S    
S2    O14   S    
