data_mof_unit_48205.cif
_audit_creation_date              2012-12-10T17:38:51-0500
_audit_creation_method            fapswitch 2.2
_symmetry_space_group_name_H-M    P1
_symmetry_Int_Tables_number       1
_space_group_crystal_system       triclinic
_cell_length_a                    12.314694
_cell_length_b                    13.172332
_cell_length_c                    23.510168
_cell_angle_alpha                 77.721723
_cell_angle_beta                  101.167266
_cell_angle_gamma                 116.545866
_cell_volume                      3312.28607476

loop_
_atom_site_label
_atom_site_type_symbol
_atom_type_description
_atom_site_fract_x
_atom_site_fract_y
_atom_site_fract_z
_atom_type_partial_charge
C1    C     C_R   0.854883 0.286545 0.505027 0.778241
C2    C     C_R   0.954011 0.292519 0.049486 -0.164690
C3    C     C_R   0.952004 0.292287 0.989979 -0.164596
C4    C     C_R   0.972862 0.393103 0.949906 -0.014947
C5    C     C_R   0.995651 0.494829 0.970138 -0.015967
C6    C     C_R   0.016788 0.596419 0.930350 -0.014781
C7    C     C_R   0.039627 0.697450 0.951010 -0.159046
C8    C     C_R   0.041513 0.697644 0.010503 -0.161507
C9    C     C_R   0.971687 0.395048 0.889908 0.530656
C10   C     C_R   0.015256 0.594344 0.870793 0.531530
C11   C     C_R   0.086085 0.479005 0.772644 -0.103753
C12   C     C_R   0.999208 0.499408 0.608949 0.798125
C13   C     C_R   0.087832 0.480300 0.713404 -0.216834
C14   C     C_R   0.997311 0.498035 0.671534 -0.040710
C15   C     C_R   0.904807 0.513997 0.690077 -0.224518
C16   C     C_R   0.903239 0.512558 0.749391 -0.102746
C17   C     C_R   0.993916 0.495184 0.790855 0.355603
C18   C     C_R   0.904025 0.508346 0.227848 0.512213
C19   C     C_R   0.907454 0.513375 0.287191 -0.317964
C20   C     C_R   0.999708 0.498024 0.328637 -0.093302
C21   C     C_R   0.090922 0.480660 0.309930 -0.223003
C22   C     C_R   0.090508 0.479761 0.250757 -0.180081
C23   C     C_R   0.145101 0.713451 0.491393 0.805325
C24   C     C_R   0.998235 0.494637 0.209528 0.271154
C25   C     C_R   0.275775 0.021235 0.421394 -0.182759
C26   C     C_R   0.228035 0.834588 0.479162 -0.051181
C27   C     C_R   0.815391 0.085115 0.543260 -0.181965
C28   C     C_R   0.736593 0.970163 0.554686 -0.136417
C29   C     C_R   0.613300 0.932468 0.534023 -0.179617
C30   C     C_R   0.566629 0.009295 0.499176 0.080008
C31   C     C_R   0.650185 0.123715 0.481835 0.083665
C32   C     C_R   0.440012 0.976045 0.480412 0.074331
C33   C     C_R   0.400472 0.053183 0.440271 0.164580
C34   C     C_R   0.000291 0.499901 0.391081 0.818034
C35   C     C_R   0.485907 0.160242 0.418322 -0.238576
C36   C     C_R   0.608988 0.194462 0.438084 -0.196787
C37   C     C_R   0.351068 0.868559 0.500771 -0.247495
C38   C     C_R   0.189865 0.911990 0.440442 -0.187415
C39   C     C_R   0.773077 0.163491 0.508248 -0.103599
C40   C     C_R   0.346587 0.328628 0.593282 -0.293950
C41   C     C_R   0.759733 0.645552 0.421076 0.073330
C42   C     C_R   0.663208 0.677253 0.403876 -0.249157
C43   C     C_R   0.559597 0.622289 0.433518 -0.195137
C44   C     C_R   0.551368 0.534454 0.481109 -0.006520
C45   C     C_R   0.021882 0.594919 0.110541 0.599061
C46   C     C_R   0.652951 0.505148 0.497255 0.288547
C47   C     C_R   0.446945 0.475019 0.513364 -0.036087
C48   C     C_R   0.446690 0.388124 0.560828 0.174116
C49   C     C_R   0.546436 0.361184 0.575884 -0.280269
C50   C     C_R   0.647210 0.418531 0.544974 -0.189505
C51   C     C_R   0.341963 0.497637 0.500917 0.017399
C52   C     C_R   0.246704 0.355255 0.578899 0.071539
C53   C     C_R   0.978833 0.395750 0.129722 0.503954
C54   C     C_R   0.976782 0.393536 0.070137 -0.013309
C55   C     C_R   0.997539 0.495025 0.030320 -0.020965
C56   C     C_R   0.020539 0.596800 0.050556 -0.035542
Cu1   Cu    Cu3+1 0.098270 0.475410 0.513370 0.937456
Cu2   Cu    Cu3+1 0.901730 0.524590 0.486630 0.924668
H1    H     H_    0.937593 0.213330 0.079192 0.190409
H2    H     H_    0.837991 0.529518 0.300646 0.164507
H3    H     H_    0.163362 0.468938 0.340878 0.168167
H4    H     H_    0.162500 0.468193 0.236757 0.163014
H5    H     H_    0.094726 0.886608 0.423118 0.151511
H6    H     H_    0.457514 0.218016 0.385700 0.145372
H7    H     H_    0.245152 0.079666 0.390632 0.140337
H8    H     H_    0.374882 0.808402 0.533192 0.149531
H9    H     H_    0.909281 0.113109 0.563101 0.155118
H10   H     H_    0.557796 0.842147 0.545004 0.131224
H11   H     H_    0.770564 0.910287 0.581316 0.148670
H12   H     H_    0.934231 0.212954 0.975531 0.189820
H13   H     H_    0.671229 0.275965 0.417251 0.173533
H14   H     H_    0.169051 0.309743 0.603756 0.125040
H15   H     H_    0.546955 0.295037 0.612255 0.159376
H16   H     H_    0.345734 0.262074 0.629608 0.144643
H17   H     H_    0.334018 0.561935 0.465618 0.123174
H18   H     H_    0.839817 0.688687 0.397834 0.129294
H19   H     H_    0.487721 0.650372 0.418339 0.138195
H20   H     H_    0.668718 0.744670 0.367446 0.153061
H21   H     H_    0.718897 0.391981 0.560453 0.208297
H22   H     H_    0.056209 0.776684 0.921321 0.189151
H23   H     H_    0.059373 0.776994 0.024960 0.188550
H24   H     H_    0.156701 0.465943 0.804471 0.143438
H25   H     H_    0.160213 0.467737 0.700461 0.160056
H26   H     H_    0.833579 0.527398 0.658866 0.162830
H27   H     H_    0.831489 0.524763 0.763214 0.142895
N1    N     N_R   0.999967 0.495153 0.148602 -0.453346
N2    N     N_R   0.993053 0.494716 0.851824 -0.469009
N3    N     N_R   0.246280 0.438190 0.533650 -0.180464
N4    N     N_R   0.754320 0.561190 0.466710 -0.207435
O1    O     O_R   0.972510 0.318130 0.516820 -0.578068
O2    O     O_2   0.958808 0.299200 0.168439 -0.558320
O3    O     O_2   0.948734 0.298082 0.869676 -0.539431
O4    O     O_2   0.037037 0.691289 0.832199 -0.540075
O5    O     O_R   0.806530 0.359650 0.494230 -0.603887
O6    O     O_R   0.082990 0.479200 0.593420 -0.582569
O7    O     O_R   0.917010 0.520720 0.570830 -0.598813
O8    O     O_R   0.193470 0.640350 0.505770 -0.586040
O9    O     O_R   0.027490 0.681870 0.483180 -0.583904
O10   O     O_R   0.082990 0.479280 0.429170 -0.584112
O11   O     O_R   0.917010 0.520800 0.406580 -0.595760
O12   O     O_2   0.045476 0.692044 0.130798 -0.518756
O13   O     O_3   0.815725 0.527274 0.186465 -0.589521
C57   C     C_3   0.699335 0.435194 0.193484 0.025834
H28   H     H_    0.629853 0.467153 0.171555 0.184923
H29   H     H_    0.680901 0.405181 0.240107 0.122875
C58   C     C_3   0.682470 0.334928 0.164119 -0.354761
H30   H     H_    0.703916 0.366583 0.118073 0.235564
H31   H     H_    0.745994 0.297131 0.187886 0.241114
C59   C     C_3   0.552055 0.241574 0.164591 -0.873243
H32   H     H_    0.529326 0.207872 0.210327 0.255295
H33   H     H_    0.543212 0.169928 0.143564 0.266523
H34   H     H_    0.486360 0.276119 0.139872 0.257329

loop_
_geom_bond_atom_site_label_1
_geom_bond_atom_site_label_2
_ccdc_geom_bond_type
C41   N4    A    
C55   C56   A    
C1    O1    A    
C41   C42   A    
C35   C36   A    
Cu2   O9    S    
C50   H21   S    
C8    C56   A    
C7    C8    A    
C46   N4    A    
C53   C54   A    
C18   C24   A    
C28   C29   A    
C1    O5    A    
C51   H17   S    
C59   H33   S    
C5    C6    A    
C58   H30   S    
C15   C16   A    
Cu1   O10   S    
C18   C19   A    
C18   O13   S    
C23   C26   S    
Cu2   O7    S    
C28   H11   S    
C45   C56   A    
C27   C39   A    
C16   C17   A    
C53   O2    S    
C34   O11   A    
C12   O6    A    
C35   H6    S    
C21   H3    S    
C44   C47   A    
C20   C34   S    
C21   C22   A    
C9    O3    S    
C44   C46   A    
C6    C7    A    
C11   H24   S    
C10   N2    A    
Cu1   O1    S    
C8    H23   S    
C52   N3    A    
C3    H12   S    
C25   H7    S    
C2    C54   A    
C59   H34   S    
C2    H1    S    
C26   C38   A    
C47   C51   A    
C10   O4    S    
C40   C52   A    
C43   C44   A    
C29   C30   A    
C52   H14   S    
C25   C38   A    
C22   H4    S    
C29   H10   S    
C47   C48   A    
C14   C15   A    
Cu1   O8    S    
C37   H8    S    
C34   O10   A    
Cu2   O11   S    
C57   H29   S    
C32   C37   A    
C53   N1    A    
C45   O12   S    
C48   C49   A    
C23   O8    A    
C12   C14   S    
C42   H20   S    
C16   H27   S    
C22   C24   A    
C42   C43   A    
C3    C4    A    
C57   H28   S    
C38   H5    S    
C40   C48   A    
C46   C50   A    
C54   C55   A    
C11   C17   A    
C17   N2    S    
C5    C55   A    
C4    C5    A    
C51   N3    A    
C6    C10   A    
C36   H13   S    
C26   C37   A    
C15   H26   S    
C19   H2    S    
C43   H19   S    
C13   H25   S    
Cu1   N3    S    
C32   C33   A    
C19   C20   A    
C45   N1    A    
Cu2   O5    S    
C59   H32   S    
C9    N2    A    
C41   H18   S    
C30   C32   A    
C11   C13   A    
Cu1   Cu2   S    
C30   C31   A    
C58   H31   S    
C33   C35   A    
C40   H16   S    
C2    C3    A    
C57   C58   S    
C49   H15   S    
O13   C57   S    
Cu2   N4    S    
C27   H9    S    
C1    C39   S    
C23   O9    A    
C20   C21   A    
C49   C50   A    
Cu1   O6    S    
C27   C28   A    
C31   C39   A    
C31   C36   A    
C12   O7    A    
C4    C9    A    
C13   C14   A    
C24   N1    S    
C25   C33   A    
C7    H22   S    
C58   C59   S    
