data_mof_unit_29571.cif
_audit_creation_date              2012-12-10T18:32:00-0500
_audit_creation_method            fapswitch 2.2
_symmetry_space_group_name_H-M    P1
_symmetry_Int_Tables_number       1
_space_group_crystal_system       triclinic
_cell_length_a                    10.64014
_cell_length_b                    15.032486
_cell_length_c                    15.123204
_cell_angle_alpha                 82.011676
_cell_angle_beta                  89.814027
_cell_angle_gamma                 104.361852
_cell_volume                      2318.79480803

loop_
_atom_site_label
_atom_site_type_symbol
_atom_type_description
_atom_site_fract_x
_atom_site_fract_y
_atom_site_fract_z
_atom_type_partial_charge
C1    C     C_R   0.487649 0.441969 0.663096 0.921882
C2    C     C_R   0.593327 0.463035 0.894525 0.089745
C3    C     C_R   0.618093 0.375805 0.924831 0.041819
C4    C     C_R   0.742034 0.500693 0.499958 0.849711
C5    C     C_R   0.623731 0.535553 0.947117 -0.058668
C6    C     C_R   0.642280 0.513036 0.038446 -0.022930
C7    C     C_R   0.670804 0.427011 0.068487 -0.261939
C8    C     C_R   0.662454 0.359434 0.012098 0.014507
C9    C     C_R   0.635679 0.629996 0.911376 0.432429
C10   C     C_R   0.623041 0.694012 0.968079 -0.148948
C11   C     C_R   0.605060 0.663731 0.061003 0.040048
C12   C     C_3   0.121491 0.499507 0.500350 0.067655
C13   C     C_R   0.621965 0.574699 0.096618 0.079652
C14   C     C_R   0.565562 0.718485 0.118892 -0.183304
C15   C     C_R   0.537978 0.684619 0.209049 -0.202022
C16   C     C_R   0.521568 0.558477 0.337128 0.847510
C17   C     C_R   0.600994 0.545082 0.188644 -0.242663
C18   C     C_R   0.749282 0.854229 0.586001 -0.234299
C19   C     C_R   0.699309 0.762478 0.574553 -0.078248
C20   C     C_R   0.491394 0.787770 0.547988 0.646943
C21   C     C_R   0.543174 0.885651 0.541848 -0.196620
C22   C     C_R   0.673539 0.917785 0.565962 -0.076567
C23   C     C_3   0.103806 0.587620 0.439020 -0.496373
C24   C     C_R   0.473261 0.951425 0.508122 0.021374
C25   C     C_R   0.528477 0.048200 0.509266 -0.133054
C26   C     C_R   0.661204 0.077735 0.529582 0.388481
C27   C     C_R   0.729830 0.012965 0.563636 0.451039
C28   C     C_R   0.258023 0.499479 0.499904 0.882859
C29   C     C_R   0.357753 0.924384 0.462201 -0.140259
C30   C     C_R   0.293831 0.988482 0.424078 -0.236697
C31   C     C_R   0.340971 0.081648 0.431630 0.168520
C32   C     C_R   0.454474 0.112661 0.478257 0.021604
C33   C     C_R   0.279681 0.144873 0.387295 -0.332824
C34   C     C_3   0.071401 0.503896 0.597086 0.419491
C35   C     C_R   0.328446 0.238960 0.390590 0.122087
C36   C     C_R   0.488149 0.207197 0.491087 -0.030667
C37   C     C_3   0.898003 0.413568 0.464645 -0.390685
C38   C     C_3   0.040672 0.415431 0.459820 -0.440290
C39   C     C_3   0.959644 0.588812 0.440418 -0.422563
C40   C     C_3   0.924820 0.499296 0.598040 -0.483354
C41   C     C_3   0.878663 0.501098 0.500843 0.118544
C42   C     C_R   0.691579 0.270530 0.049528 0.120506
C43   C     C_R   0.816652 0.269599 0.078449 -0.162892
C44   C     C_R   0.843721 0.186339 0.116130 -0.157347
C45   C     C_R   0.514196 0.409695 0.755776 -0.207116
C46   C     C_R   0.746107 0.103637 0.125591 -0.127709
C47   C     C_R   0.621045 0.104150 0.097923 -0.130047
C48   C     C_R   0.593414 0.187334 0.060593 -0.178339
C49   C     C_R   0.626042 0.790981 0.928336 0.179745
C50   C     C_R   0.539173 0.808325 0.862063 -0.074252
C51   C     C_R   0.542376 0.899402 0.824670 -0.165845
C52   C     C_R   0.631576 0.973832 0.853380 -0.141729
C53   C     C_R   0.719019 0.957303 0.918612 -0.152517
C54   C     C_R   0.716994 0.866310 0.955605 -0.193678
C55   C     C_3   0.437755 0.186060 0.745295 -0.344629
C56   C     C_R   0.552361 0.596649 0.243338 -0.044615
C57   C     C_3   0.799145 0.670085 0.805525 -0.290836
C58   C     C_3   0.870669 0.068873 0.666652 -0.319367
C59   C     C_R   0.281747 0.302033 0.322578 0.190283
C60   C     C_R   0.361656 0.344605 0.246668 -0.107685
C61   C     C_R   0.311993 0.390006 0.172995 -0.143761
C62   C     C_R   0.180820 0.390137 0.173092 -0.116796
C63   C     C_R   0.098708 0.343020 0.245935 -0.187809
C64   C     C_R   0.148576 0.298024 0.319772 -0.215834
C65   C     C_3   0.314329 0.746298 0.641764 -0.351962
C66   C     C_3   0.776106 0.176197 0.413580 -0.304353
C67   C     C_R   0.598881 0.308541 0.866409 -0.318080
C68   C     C_3   0.070554 0.350311 0.664754 -0.308408
C69   C     C_R   0.547824 0.325024 0.781838 0.530901
C70   C     C_R   0.530012 0.474407 0.814830 -0.263724
H1    H     H_    0.858635 0.410386 0.396620 0.172931
H2    H     H_    0.701067 0.410889 0.135612 0.138937
H3    H     H_    0.549091 0.785604 0.094433 0.145697
H4    H     H_    0.561298 0.232679 0.537027 0.219075
H5    H     H_    0.208120 0.965021 0.386590 0.140306
H6    H     H_    0.849555 0.875970 0.604047 0.189954
H7    H     H_    0.762055 0.715811 0.582493 0.155109
H8    H     H_    0.055334 0.347834 0.491123 0.192991
H9    H     H_    0.320028 0.855179 0.446989 0.191072
H10   H     H_    0.199303 0.121618 0.345020 0.149695
H11   H     H_    0.071428 0.424180 0.388515 0.202493
H12   H     H_    0.118591 0.575090 0.610416 0.119142
H13   H     H_    0.924224 0.591033 0.371144 0.174243
H14   H     H_    0.138387 0.588576 0.369221 0.182567
H15   H     H_    0.907550 0.559886 0.626604 0.139650
H16   H     H_    0.867316 0.436497 0.641378 0.188447
H17   H     H_    0.893043 0.333263 0.071618 0.125391
H18   H     H_    0.940351 0.185959 0.138061 0.139500
H19   H     H_    0.767241 0.039215 0.154609 0.123380
H20   H     H_    0.545391 0.040131 0.105718 0.130003
H21   H     H_    0.495747 0.187037 0.040406 0.128623
H22   H     H_    0.468615 0.751380 0.839773 0.122713
H23   H     H_    0.949179 0.652767 0.465807 0.183971
H24   H     H_    0.475426 0.912351 0.773646 0.120194
H25   H     H_    0.633584 0.044289 0.824617 0.134303
H26   H     H_    0.788588 0.015029 0.940387 0.141425
H27   H     H_    0.785822 0.854478 0.005718 0.130820
H28   H     H_    0.432648 0.138114 0.695122 0.187091
H29   H     H_    0.344828 0.207614 0.744442 0.164435
H30   H     H_    0.449018 0.146903 0.811589 0.152196
H31   H     H_    0.860090 0.715863 0.849340 0.153672
H32   H     H_    0.826120 0.702542 0.735552 0.172947
H33   H     H_    0.821344 0.600944 0.814035 0.167211
H34   H     H_    0.161767 0.652172 0.461780 0.222229
H35   H     H_    0.833240 0.007041 0.717893 0.172825
H36   H     H_    0.819835 0.123969 0.674345 0.184099
H37   H     H_    0.974817 0.097101 0.678661 0.180204
H38   H     H_    0.461191 0.339474 0.243485 0.117224
H39   H     H_    0.374239 0.422901 0.114833 0.149295
H40   H     H_    0.142144 0.424530 0.115773 0.125434
H41   H     H_    0.996115 0.340345 0.244862 0.130260
H42   H     H_    0.082910 0.258085 0.373973 0.136422
H43   H     H_    0.338381 0.816758 0.662189 0.154128
H44   H     H_    0.353190 0.697591 0.689779 0.186237
H45   H     H_    0.614678 0.479309 0.219033 0.136564
H46   H     H_    0.207022 0.722045 0.644990 0.172714
H47   H     H_    0.839567 0.128739 0.405983 0.184769
H48   H     H_    0.835102 0.247667 0.391930 0.171319
H49   H     H_    0.693648 0.163266 0.368023 0.164853
H50   H     H_    0.144642 0.329215 0.626470 0.182251
H51   H     H_    0.972906 0.327533 0.637886 0.172728
H52   H     H_    0.065960 0.312447 0.733544 0.180227
H53   H     H_    0.502877 0.726371 0.251565 0.148638
H54   H     H_    0.626831 0.244134 0.884314 0.165831
H55   H     H_    0.493895 0.535489 0.797077 0.218375
H56   H     H_    0.845141 0.349776 0.509077 0.230905
N1    N     N_R   0.573860 0.731700 0.552730 -0.125635
N2    N     N_R   0.426060 0.268290 0.447230 -0.135830
O1    O     O_R   0.462770 0.383110 0.605620 -0.571371
O2    O     O_3   0.665661 0.661615 0.821414 -0.613542
O3    O     O_3   0.860200 0.043975 0.580023 -0.595132
O4    O     O_3   0.359806 0.747284 0.553815 -0.634918
O5    O     O_3   0.731935 0.168209 0.503346 -0.618065
O6    O     O_3   0.110068 0.446264 0.669451 -0.623193
O7    O     O_R   0.510160 0.531900 0.639510 -0.596317
O8    O     O_R   0.661510 0.425600 0.483070 -0.622928
O9    O     O_R   0.708900 0.574390 0.516960 -0.643924
O10   O     O_R   0.489840 0.468100 0.360490 -0.615098
O11   O     O_R   0.537230 0.616890 0.394380 -0.614812
O12   O     O_R   0.291100 0.425610 0.483040 -0.630158
O13   O     O_R   0.338490 0.574400 0.516930 -0.571891
O14   O     O_3   0.544559 0.263040 0.721832 -0.604909
Zn1   Zn    Zn3+2 0.468350 0.400660 0.477370 0.952719
Zn2   Zn    Zn3+2 0.531650 0.599340 0.522630 0.972261

loop_
_geom_bond_atom_site_label_1
_geom_bond_atom_site_label_2
_ccdc_geom_bond_type
C27   O3    S    
C65   H44   S    
C28   O12   A    
O12   Zn1   S    
C61   H39   S    
C67   H54   S    
C7    C8    A    
C39   C41   S    
C46   H19   S    
C53   C54   A    
C57   H32   S    
C12   C23   S    
C26   C27   A    
C29   C30   A    
C15   H53   S    
C12   C28   S    
C34   C40   S    
C32   C36   A    
C37   C38   S    
C8    C42   S    
C18   C19   A    
O8    Zn1   S    
C1    O1    A    
O10   Zn1   S    
C30   C31   A    
C11   C14   A    
C64   H42   S    
C4    C41   S    
C34   O6    S    
C49   C54   A    
C52   H25   S    
C35   C59   S    
C58   H37   S    
C40   H16   S    
C19   H7    S    
C24   C29   A    
C39   H23   S    
C4    O9    A    
C23   H34   S    
C48   H21   S    
C62   H40   S    
C55   H30   S    
C31   C33   A    
C54   H27   S    
C9    C10   A    
C60   H38   S    
C4    O8    A    
C25   C32   A    
C59   C60   A    
C55   O14   S    
C21   C22   A    
C53   H26   S    
C37   C41   S    
C36   N2    A    
C20   O4    S    
C44   C46   A    
C57   H33   S    
C16   O10   A    
C23   H14   S    
C45   C69   A    
C51   C52   A    
C14   H3    S    
C57   O2    S    
C24   C25   A    
C20   N1    A    
C3    C8    A    
O13   Zn2   S    
C68   H52   S    
C7    H2    S    
C63   H41   S    
C38   H8    S    
C25   C26   A    
C9    O2    S    
C66   H47   S    
C60   C61   A    
C67   C69   A    
C40   H15   S    
C43   C44   A    
C16   C56   S    
C5    C9    A    
C62   C63   A    
C66   O5    S    
O11   Zn2   S    
C47   C48   A    
C29   H9    S    
C58   O3    S    
C50   C51   A    
C59   C64   A    
C42   C48   A    
C17   C56   A    
C36   H4    S    
C70   H55   S    
C50   H22   S    
C40   C41   S    
O9    Zn2   S    
C66   H49   S    
C37   H1    S    
C38   H11   S    
C47   H20   S    
C16   O11   A    
C42   C43   A    
C12   C34   S    
C65   O4    S    
C52   C53   A    
C17   H45   S    
C37   H56   S    
C46   C47   A    
O7    Zn2   S    
C18   H6    S    
C45   C70   A    
C18   C22   A    
C65   H43   S    
C31   C32   A    
C3    C67   A    
C68   H51   S    
C33   H10   S    
C6    C7    A    
O1    Zn1   S    
C57   H31   S    
C13   C17   A    
C22   C27   A    
C58   H35   S    
C43   H17   S    
C15   C56   A    
C68   O6    S    
C2    C3    A    
C69   O14   S    
C1    O7    A    
C39   H13   S    
C26   O5    S    
C2    C70   A    
C68   H50   S    
C6    C13   A    
C30   H5    S    
C11   C13   A    
C1    C45   S    
C5    C6    A    
C23   C39   S    
C55   H28   S    
C19   N1    A    
C33   C35   A    
N1    Zn2   S    
C12   C38   S    
C61   C62   A    
N2    Zn1   S    
C10   C11   A    
C51   H24   S    
C63   C64   A    
C2    C5    A    
C65   H46   S    
C20   C21   A    
C49   C50   A    
C66   H48   S    
C21   C24   A    
C55   H29   S    
C35   N2    A    
C14   C15   A    
C28   O13   A    
C34   H12   S    
C58   H36   S    
C44   H18   S    
C10   C49   S    
