data_mof_unit_49085.cif
_audit_creation_date              2012-12-11T14:47:33-0500
_audit_creation_method            fapswitch 2.2
_symmetry_space_group_name_H-M    P1
_symmetry_Int_Tables_number       1
_space_group_crystal_system       triclinic
_cell_length_a                    19.470193
_cell_length_b                    6.967794
_cell_length_c                    19.306699
_cell_angle_alpha                 89.999929
_cell_angle_beta                  96.282943
_cell_angle_gamma                 90.000327
_cell_volume                      2603.49749342

loop_
_atom_site_label
_atom_site_type_symbol
_atom_type_description
_atom_site_fract_x
_atom_site_fract_y
_atom_site_fract_z
_atom_type_partial_charge
O1    O     O_R   0.673510 0.377480 0.186100 -0.530043
O2    O     O_R   0.326490 0.622520 0.813900 -0.532247
O3    O     O_R   0.826490 0.877480 0.313900 -0.530038
O4    O     O_R   0.173510 0.122520 0.686100 -0.532263
O5    O     O_R   0.807790 0.705750 0.184090 -0.526805
O6    O     O_R   0.192210 0.294250 0.815910 -0.526359
O7    O     O_R   0.692210 0.205750 0.315910 -0.526811
O8    O     O_R   0.307790 0.794250 0.684090 -0.526367
C1    C     C_1   0.478207 0.994491 0.521275 0.031077
C2    C     C_1   0.521855 0.005498 0.478786 0.025670
C3    C     C_1   0.021792 0.494492 0.978724 0.031063
C4    C     C_1   0.978144 0.505501 0.021212 0.025673
C5    C     C_R   0.830946 0.538272 0.166329 0.719131
C6    C     C_R   0.169042 0.461726 0.833659 0.722259
C7    C     C_R   0.669054 0.038271 0.333671 0.719121
C8    C     C_R   0.330958 0.961727 0.666341 0.722242
O9    O     O_R   0.672870 0.707110 0.178120 -0.537609
O10   O     O_R   0.327130 0.292890 0.821880 -0.536789
O11   O     O_R   0.827130 0.207110 0.321880 -0.537609
O12   O     O_R   0.172870 0.792890 0.678120 -0.536786
O13   O     O_R   0.690610 0.878650 0.307880 -0.523243
O14   O     O_R   0.309390 0.121350 0.692120 -0.523862
O15   O     O_R   0.809390 0.378650 0.192120 -0.523246
O16   O     O_R   0.190610 0.621350 0.807880 -0.523869
C9    C     C_R   0.646969 0.538053 0.161839 0.728548
C10   C     C_R   0.353029 0.461945 0.838168 0.733463
C11   C     C_R   0.853029 0.038053 0.338163 0.728538
C12   C     C_R   0.146973 0.961945 0.661831 0.733421
C13   C     C_1   0.382999 0.971805 0.614372 -0.189135
C14   C     C_1   0.617035 0.028190 0.385662 -0.203737
C15   C     C_1   0.117001 0.471804 0.885628 -0.189141
C16   C     C_1   0.882964 0.528193 0.114336 -0.203745
O17   O     O_3   0.755980 0.544260 0.292580 -0.356390
O18   O     O_3   0.244020 0.455740 0.707420 -0.357479
O19   O     O_3   0.744020 0.044260 0.207420 -0.356390
O20   O     O_3   0.255980 0.955740 0.792580 -0.357471
V1    V     V_3+5 0.748890 0.818640 0.242100 1.441163
V2    V     V_3+5 0.251110 0.181360 0.757900 1.441541
V3    V     V_3+5 0.751110 0.318640 0.257900 1.441155
V4    V     V_3+5 0.248890 0.681360 0.742100 1.441534
C17   C     C_R   0.083053 0.974606 0.611866 -0.149150
C18   C     C_R   0.916943 0.025343 0.388128 -0.149424
C19   C     C_R   0.416948 0.474610 0.888133 -0.149257
C20   C     C_R   0.583054 0.525336 0.111874 -0.149424
C21   C     C_1   0.426481 0.981728 0.571688 0.024265
C22   C     C_1   0.573570 0.018263 0.428362 0.009243
C23   C     C_1   0.073518 0.481728 0.928311 0.024223
C24   C     C_1   0.926429 0.518267 0.071636 0.009227
C25   C     C_R   0.040827 0.959303 0.416923 0.375509
C26   C     C_R   0.959134 0.040291 0.583077 0.449486
C27   C     C_R   0.459176 0.459199 0.083076 0.375738
C28   C     C_R   0.540862 0.540372 0.916927 0.449489
C29   C     C_R   0.981172 0.967254 0.366672 -0.037301
C30   C     C_R   0.018802 0.032502 0.633330 -0.051748
C31   C     C_R   0.518831 0.467181 0.133328 -0.037416
C32   C     C_R   0.481195 0.532558 0.866672 -0.051749
C33   C     C_R   0.912055 0.062693 0.458541 -0.140646
C34   C     C_R   0.087949 0.937280 0.541451 -0.174599
C35   C     C_R   0.587938 0.562738 0.041465 -0.140631
C36   C     C_R   0.412056 0.437236 0.958545 -0.174245
C37   C     C_R   0.967425 0.025503 0.510567 -0.031143
C38   C     C_R   0.032550 0.974202 0.489432 -0.055396
C39   C     C_R   0.532572 0.525535 0.989436 -0.031238
C40   C     C_R   0.467452 0.474163 0.010567 -0.055251
H1    H     H_    0.136704 0.882698 0.528167 0.208525
H2    H     H_    0.863339 0.117619 0.471807 0.193715
H3    H     H_    0.363304 0.382607 0.971823 0.208558
H4    H     H_    0.636649 0.617715 0.028202 0.193710
C41   C     C_3   0.015712 0.092298 0.708866 -0.302984
C42   C     C_3   0.017004 0.918211 0.757967 -0.279572
C43   C     C_3   0.007728 0.979949 0.832192 -0.695425
H5    H     H_    0.050414 0.077082 0.852686 0.217327
H6    H     H_    0.957534 0.054906 0.833486 0.259592
H7    H     H_    0.008426 0.851621 0.866331 0.219712
H8    H     H_    0.975459 0.815332 0.739487 0.251136
H9    H     H_    0.066963 0.841261 0.758954 0.171782
H10   H     H_    0.059709 0.188395 0.726037 0.150489
H11   H     H_    0.970150 0.183915 0.714337 0.241251
C44   C     C_3   0.984269 0.907636 0.291124 -0.302306
C45   C     C_3   0.983175 0.081881 0.242124 -0.288166
C46   C     C_3   0.992279 0.020276 0.167850 -0.681232
H12   H     H_    0.042353 0.944775 0.166460 0.263553
H13   H     H_    0.949438 0.923678 0.147349 0.214919
H14   H     H_    0.991731 0.148715 0.133781 0.220747
H15   H     H_    0.933335 0.159381 0.241244 0.172800
H16   H     H_    0.024888 0.184226 0.260621 0.247990
H17   H     H_    0.029747 0.815703 0.285652 0.241619
H18   H     H_    0.940200 0.811884 0.273870 0.151586
C47   C     C_3   0.484282 0.592363 0.791136 -0.302968
C48   C     C_3   0.483008 0.418278 0.742037 -0.279593
C49   C     C_3   0.492217 0.480036 0.667800 -0.695568
H19   H     H_    0.449482 0.577011 0.647324 0.217357
H20   H     H_    0.542371 0.555167 0.666475 0.259551
H21   H     H_    0.491560 0.351704 0.633668 0.219744
H22   H     H_    0.524590 0.315497 0.760491 0.251188
H23   H     H_    0.433078 0.341208 0.741083 0.171790
H24   H     H_    0.440276 0.688428 0.773965 0.150518
H25   H     H_    0.529834 0.684019 0.785666 0.241234
C50   C     C_3   0.515740 0.407558 0.208875 -0.302321
C51   C     C_3   0.516796 0.581814 0.257867 -0.288065
C52   C     C_3   0.507718 0.520200 0.332151 -0.681155
H26   H     H_    0.457665 0.444571 0.333552 0.263530
H27   H     H_    0.550595 0.423715 0.352660 0.214890
H28   H     H_    0.508225 0.648654 0.366207 0.220747
H29   H     H_    0.566621 0.659415 0.258735 0.172759
H30   H     H_    0.475054 0.684080 0.239366 0.247974
H31   H     H_    0.470281 0.315547 0.214347 0.241600
H32   H     H_    0.559826 0.311876 0.226137 0.151599
S1    S     S_3+6 0.126233 0.944238 0.390287 0.028501
O21   O     O_2   0.129667 0.007375 0.316368 -0.302335
O22   O     O_2   0.150464 0.739796 0.397755 -0.297450
O23   O     O_3   0.181028 0.084454 0.441303 -0.480074
H33   H     H_    0.160491 0.214553 0.436939 0.352265
S2    S     S_3+6 0.873750 0.055476 0.609672 0.008327
O24   O     O_2   0.870562 0.990774 0.683449 -0.308885
O25   O     O_2   0.849729 0.260254 0.602494 -0.321288
O26   O     O_3   0.819421 0.914625 0.558338 -0.500342
H34   H     H_    0.772509 0.954603 0.567750 0.375994
S3    S     S_3+6 0.373771 0.443985 0.109708 0.028308
O27   O     O_2   0.370318 0.507000 0.183638 -0.302479
O28   O     O_2   0.349566 0.239527 0.102202 -0.297536
O29   O     O_3   0.318964 0.584212 0.058714 -0.480230
H35   H     H_    0.339328 0.714521 0.063354 0.352542
S4    S     S_3+6 0.626247 0.555653 0.890335 0.008347
O30   O     O_2   0.629447 0.491007 0.816555 -0.308867
O31   O     O_2   0.650245 0.760449 0.897532 -0.321303
O32   O     O_3   0.680589 0.414815 0.941661 -0.500317
H36   H     H_    0.727501 0.454907 0.932280 0.375963

loop_
_geom_bond_atom_site_label_1
_geom_bond_atom_site_label_2
_ccdc_geom_bond_type
C34   C38   A    
C1    C21   S    
C52   H26   S    
O5    V1    S    
C5    C16   S    
C41   H10   S    
O10   C10   A    
C6    C15   S    
C4    C24   S    
C44   H17   S    
C46   H12   S    
C48   H22   S    
C50   H32   S    
C51   H29   S    
O17   V3    S    
O18   V4    S    
C25   S1    S    
O19   V1    S    
C17   C34   A    
S1    O22   D    
C18   C29   A    
O12   V4    S    
C25   C29   A    
C49   H20   S    
C20   C35   A    
O14   V2    S    
C12   C17   S    
C5    O15   A    
C6    O16   A    
C44   H18   S    
C45   H16   S    
C46   H13   S    
C3    C23   S    
C36   H3    S    
C2    C22   S    
C27   S3    S    
O6    V2    S    
C42   C43   S    
O11   C11   A    
C1    C2    T    
C33   H2    S    
O5    C5    A    
O7    C7    A    
O8    C8    A    
C15   C23   T    
O1    C9    A    
C16   C24   T    
C41   H11   S    
C41   C42   S    
C9    C20   S    
O23   H33   S    
O4    C12   A    
C10   C19   S    
S2    O24   D    
S3    O28   D    
O20   V4    S    
S1    O23   S    
C49   H19   S    
C43   H6    S    
O12   C12   A    
C8    C13   S    
C18   C33   A    
C39   C40   A    
C47   H24   S    
C26   S2    S    
O19   V3    S    
C45   H15   S    
C35   H4    S    
O6    C6    A    
C34   H1    S    
C50   C51   S    
S3    O27   D    
O2    C10   A    
O9    V1    S    
C33   C37   A    
O11   V3    S    
C19   C36   A    
S4    O32   S    
C32   C47   S    
O4    V2    S    
C52   H28   S    
C42   H9    S    
O32   H36   S    
C47   C48   S    
C46   H14   S    
C7    C14   S    
S4    O31   D    
S3    O29   S    
C8    O14   A    
C25   C38   A    
C29   C44   S    
O18   V2    S    
C51   H30   S    
C14   C22   T    
C27   C40   A    
C45   C46   S    
C28   C39   A    
C43   H7    S    
S2    O25   D    
C3    C4    T    
C48   H23   S    
C50   H31   S    
C35   C39   A    
C47   H25   S    
C36   C40   A    
O9    C9    A    
O3    C11   A    
O10   V2    S    
C43   H5    S    
C26   C30   A    
S1    O21   D    
C49   H21   S    
C28   S4    S    
C11   C18   S    
C48   C49   S    
C30   C41   S    
O15   V3    S    
O20   V2    S    
C51   C52   S    
O16   V4    S    
C20   C31   A    
C27   C31   A    
C37   C38   A    
O17   V1    S    
C17   C30   A    
S2    O26   S    
O1    V3    S    
C44   C45   S    
O2    V4    S    
C19   C32   A    
C7    O13   A    
O13   V1    S    
O3    V1    S    
C52   H27   S    
C31   C50   S    
C42   H8    S    
C26   C37   A    
O7    V3    S    
O8    V4    S    
O29   H35   S    
O26   H34   S    
C13   C21   T    
C28   C32   A    
S4    O30   D    
