data_mof_unit_25762.cif
_audit_creation_date              2013-03-05T16:06:28-0500
_audit_creation_method            fapswitch 2.2
_symmetry_space_group_name_H-M    P1
_symmetry_Int_Tables_number       1
_space_group_crystal_system       triclinic
_cell_length_a                    25.72268
_cell_length_b                    25.764152
_cell_length_c                    18.333696
_cell_angle_alpha                 89.781113
_cell_angle_beta                  134.801282
_cell_angle_gamma                 90.136064
_cell_volume                      8621.14455729

loop_
_atom_site_label
_atom_site_type_symbol
_atom_site_description
_atom_site_fract_x
_atom_site_fract_y
_atom_site_fract_z
_atom_type_partial_charge
Zn1   Zn    Zn3+2 0.337540 0.293760 0.587540 0.944311
Zn2   Zn    Zn3+2 0.337540 0.706240 0.587540 0.938287
Zn3   Zn    Zn3+2 0.837540 0.793760 0.587540 0.944616
Zn4   Zn    Zn3+2 0.837540 0.206240 0.587540 0.934231
Zn5   Zn    Zn3+2 0.162450 0.293770 0.412470 1.111256
Zn6   Zn    Zn3+2 0.162450 0.706230 0.412470 1.076156
Zn7   Zn    Zn3+2 0.662450 0.793770 0.412470 1.110459
Zn8   Zn    Zn3+2 0.662450 0.206230 0.412470 1.097999
Zn9   Zn    Zn3+2 0.249980 0.206220 0.412450 1.054806
Zn10  Zn    Zn3+2 0.249980 0.793780 0.412450 1.056534
Zn11  Zn    Zn3+2 0.749980 0.706220 0.412450 1.075351
Zn12  Zn    Zn3+2 0.749980 0.293780 0.412450 1.049671
Zn13  Zn    Zn3+2 0.250000 0.206220 0.587540 0.951683
Zn14  Zn    Zn3+2 0.250000 0.793780 0.587540 0.963256
Zn15  Zn    Zn3+2 0.750000 0.706220 0.587540 0.950196
Zn16  Zn    Zn3+2 0.750000 0.293780 0.587540 0.945403
O1    O     O_3   0.249990 0.249990 0.500000 -0.506580
O2    O     O_3   0.249990 0.750010 0.500000 -0.503078
O3    O     O_3   0.749990 0.749990 0.500000 -0.508333
O4    O     O_3   0.749990 0.250010 0.500000 -0.505148
O5    O     O_R   0.163790 0.219360 0.561280 -0.663718
O6    O     O_R   0.163790 0.780640 0.561280 -0.654694
O7    O     O_R   0.663790 0.719360 0.561280 -0.664006
O8    O     O_R   0.663790 0.280640 0.561280 -0.670131
O9    O     O_R   0.397470 0.280620 0.561260 -0.663602
O10   O     O_R   0.397470 0.719380 0.561260 -0.661142
O11   O     O_R   0.897470 0.780620 0.561260 -0.670751
O12   O     O_R   0.897470 0.219380 0.561260 -0.662354
O13   O     O_R   0.188730 0.366850 0.438750 -0.607540
O14   O     O_R   0.188730 0.633150 0.438750 -0.613640
O15   O     O_R   0.688730 0.866850 0.438750 -0.608931
O16   O     O_R   0.688730 0.133150 0.438750 -0.612168
O17   O     O_R   0.249980 0.133140 0.438710 -0.623589
O18   O     O_R   0.249980 0.866860 0.438710 -0.629821
O19   O     O_R   0.749980 0.633140 0.438710 -0.624624
O20   O     O_R   0.749980 0.366860 0.438710 -0.629238
O21   O     O_R   0.102500 0.280640 0.266310 -0.546762
O22   O     O_R   0.102500 0.719360 0.266310 -0.558422
O23   O     O_R   0.602500 0.780640 0.266310 -0.563136
O24   O     O_R   0.602500 0.219360 0.266310 -0.544039
O25   O     O_R   0.336220 0.219350 0.733700 -0.663234
O26   O     O_R   0.336220 0.780650 0.733700 -0.657515
O27   O     O_R   0.836220 0.719350 0.733700 -0.663067
O28   O     O_R   0.836220 0.280650 0.733700 -0.652343
O29   O     O_R   0.163750 0.219360 0.266290 -0.581301
O30   O     O_R   0.163750 0.780640 0.266290 -0.579832
O31   O     O_R   0.663750 0.719360 0.266290 -0.562187
O32   O     O_R   0.663750 0.280640 0.266290 -0.584682
O33   O     O_R   0.397490 0.280620 0.733700 -0.662237
O34   O     O_R   0.397490 0.719380 0.733700 -0.658118
O35   O     O_R   0.897490 0.780620 0.733700 -0.664192
O36   O     O_R   0.897490 0.219380 0.733700 -0.661967
O37   O     O_R   0.311270 0.366840 0.561280 -0.663838
O38   O     O_R   0.311270 0.633160 0.561280 -0.667392
O39   O     O_R   0.811270 0.866840 0.561280 -0.663367
O40   O     O_R   0.811270 0.133160 0.561280 -0.666444
O41   O     O_R   0.249990 0.133140 0.561260 -0.664201
O42   O     O_R   0.249990 0.866860 0.561260 -0.652951
O43   O     O_R   0.749990 0.633140 0.561260 -0.665940
O44   O     O_R   0.749990 0.366860 0.561260 -0.656363
O45   O     O_R   0.102520 0.280640 0.438750 -0.597118
O46   O     O_R   0.102520 0.719360 0.438750 -0.641854
O47   O     O_R   0.602520 0.780640 0.438750 -0.602537
O48   O     O_R   0.602520 0.219360 0.438750 -0.601536
O49   O     O_R   0.336190 0.219350 0.438710 -0.631988
O50   O     O_R   0.336190 0.780650 0.438710 -0.631381
O51   O     O_R   0.836190 0.719350 0.438710 -0.619589
O52   O     O_R   0.836190 0.280650 0.438710 -0.632155
C1    C     C_R   0.108087 0.249606 0.498604 0.806879
C2    C     C_R   0.108398 0.750355 0.499181 0.851232
C3    C     C_R   0.608007 0.749477 0.498431 0.806308
C4    C     C_R   0.607816 0.250601 0.498016 0.797766
C5    C     C_R   0.390616 0.250431 0.499165 0.763001
C6    C     C_R   0.391166 0.750071 0.500120 0.767575
C7    C     C_R   0.890257 0.751385 0.498483 0.777241
C8    C     C_R   0.891220 0.250133 0.500237 0.768725
C9    C     C_R   0.249919 0.391094 0.501641 0.805728
C10   C     C_R   0.249952 0.608877 0.502226 0.785355
C11   C     C_R   0.749880 0.891084 0.501593 0.814578
C12   C     C_R   0.749901 0.108873 0.502248 0.782978
C13   C     C_R   0.248283 0.108915 0.498434 0.764748
C14   C     C_R   0.249170 0.891120 0.499066 0.763685
C15   C     C_R   0.747344 0.608905 0.497507 0.765011
C16   C     C_R   0.748845 0.391080 0.498812 0.761656
C17   C     C_R   0.109660 0.250685 0.217579 0.939456
C18   C     C_R   0.109859 0.748811 0.217306 0.934113
C19   C     C_R   0.610592 0.751696 0.217643 0.981638
C20   C     C_R   0.609695 0.248971 0.217345 0.933480
C21   C     C_R   0.388679 0.252537 0.781898 0.889320
C22   C     C_R   0.388807 0.747023 0.782044 0.887715
C23   C     C_R   0.888982 0.752276 0.781893 0.890957
C24   C     C_R   0.888490 0.246731 0.781986 0.875711
C25   C     C_3   0.483895 0.201841 0.936645 -0.532346
C26   C     C_3   0.478306 0.799314 0.934770 -0.570626
C27   C     C_3   0.983257 0.701102 0.936505 -0.536181
C28   C     C_3   0.980574 0.297645 0.936595 -0.532298
H1    H     H_    0.444533 0.169572 0.902758 0.219252
H2    H     H_    0.435517 0.828658 0.902702 0.233417
H3    H     H_    0.943294 0.669248 0.902386 0.219756
H4    H     H_    0.939365 0.328161 0.905416 0.223580
H5    H     H_    0.509589 0.195067 0.907800 0.203843
H6    H     H_    0.499983 0.810753 0.901587 0.184949
H7    H     H_    0.008967 0.693608 0.907879 0.203366
H8    H     H_    0.003259 0.308066 0.904453 0.194393
C29   C     C_3   0.544339 0.197553 0.055224 0.018111
C30   C     C_3   0.541485 0.803595 0.052670 0.019868
C31   C     C_3   0.043442 0.696736 0.055125 0.028528
C32   C     C_3   0.043558 0.300884 0.054679 0.005597
H9    H     H_    0.597361 0.190585 0.080108 0.188852
H10   H     H_    0.591236 0.812388 0.069750 0.201181
H11   H     H_    0.096328 0.688711 0.080119 0.187637
H12   H     H_    0.095167 0.307110 0.075504 0.192836
H13   H     H_    0.457872 0.223821 0.073446 0.172447
H14   H     H_    0.459120 0.770428 0.072474 0.168459
H15   H     H_    0.957785 0.725699 0.073704 0.161201
H16   H     H_    0.956490 0.273003 0.068948 0.168078
C33   C     C_3   0.408138 0.269195 0.938577 0.238564
C34   C     C_3   0.412935 0.723553 0.941973 0.255818
C35   C     C_3   0.908780 0.770062 0.938090 0.248106
C36   C     C_3   0.911266 0.224016 0.941250 0.240130
C37   C     C_3   0.505908 0.297337 0.938696 -0.235656
C38   C     C_3   0.512293 0.706238 0.940364 -0.226636
C39   C     C_3   0.007218 0.796183 0.938430 -0.234323
C40   C     C_3   0.009877 0.203784 0.939931 -0.231358
C41   C     C_3   0.444143 0.255778 0.896933 -0.098363
C42   C     C_3   0.445538 0.743231 0.897663 -0.086749
C43   C     C_3   0.944609 0.755449 0.896771 -0.098118
C44   C     C_3   0.944806 0.242381 0.897591 -0.095981
H17   H     H_    0.526119 0.283108 0.905399 0.219981
H18   H     H_    0.531613 0.725410 0.908482 0.196616
H19   H     H_    0.026643 0.781438 0.904363 0.218627
H20   H     H_    0.030878 0.222545 0.910408 0.216631
C45   C     C_3   0.549849 0.251538 0.101798 -0.315972
C46   C     C_3   0.552189 0.748951 0.102241 -0.317267
C47   C     C_3   0.050292 0.751194 0.101611 -0.310469
C48   C     C_3   0.050332 0.246957 0.102510 -0.317335
C49   C     C_3   0.470724 0.260913 0.060085 0.117147
C50   C     C_3   0.474932 0.734362 0.062012 0.101530
C51   C     C_3   0.971410 0.762174 0.059727 0.095977
C52   C     C_3   0.971682 0.235843 0.060839 0.119460
C53   C     C_3   0.571076 0.294191 0.060399 0.457404
C54   C     C_3   0.576991 0.709554 0.062079 0.438653
C55   C     C_3   0.072678 0.792516 0.060018 0.458269
C56   C     C_3   0.072708 0.204497 0.062531 0.449777
C57   C     C_3   0.454745 0.306945 0.469359 -0.051223
C58   C     C_3   0.459850 0.692888 0.479932 -0.036784
C59   C     C_3   0.006829 0.797373 0.570916 -0.038026
C60   C     C_3   0.958118 0.193449 0.476405 -0.039744
H21   H     H_    0.480704 0.331516 0.537827 0.154591
H22   H     H_    0.489336 0.671228 0.552987 0.157599
H23   H     H_    0.037895 0.784226 0.650769 0.151981
H24   H     H_    0.987078 0.170621 0.548118 0.156518
C61   C     C_3   0.510716 0.305439 0.460941 -0.403135
C62   C     C_3   0.513523 0.694450 0.467636 -0.420716
C63   C     C_3   0.062531 0.798068 0.563072 -0.398924
C64   C     C_3   0.011676 0.195334 0.463891 -0.415452
H25   H     H_    0.553160 0.335749 0.512203 0.152215
H26   H     H_    0.556844 0.664550 0.518756 0.156261
H27   H     H_    0.118322 0.794956 0.642137 0.163082
H28   H     H_    0.053944 0.164537 0.512801 0.153610
H29   H     H_    0.484708 0.316072 0.382776 0.215030
H30   H     H_    0.485033 0.683652 0.388813 0.213269
H31   H     H_    0.061252 0.835627 0.532021 0.219655
H32   H     H_    0.982957 0.185917 0.384385 0.215846
H33   H     H_    0.375111 0.215000 0.342593 0.224013
H34   H     H_    0.374293 0.779425 0.339016 0.225087
H35   H     H_    0.878188 0.794855 0.349499 0.198620
H36   H     H_    0.875902 0.281745 0.340974 0.223071
C65   C     C_3   0.429869 0.209280 0.421253 -0.407447
C66   C     C_3   0.427940 0.788567 0.416858 -0.406210
C67   C     C_3   0.912122 0.759404 0.386385 -0.421732
C68   C     C_3   0.929302 0.290065 0.419655 -0.405482
C69   C     C_3   0.522273 0.237184 0.604513 -0.452900
C70   C     C_3   0.522433 0.767503 0.603931 -0.463255
C71   C     C_3   0.988609 0.700721 0.538780 -0.449106
C72   C     C_3   0.023148 0.265889 0.605417 -0.464450
C73   C     C_3   0.446908 0.251400 0.496564 0.121052
C74   C     C_3   0.447917 0.749300 0.498385 0.115305
C75   C     C_3   0.947620 0.753544 0.498043 0.108818
C76   C     C_3   0.948024 0.249467 0.498623 0.116950
H37   H     H_    0.520427 0.197496 0.626913 0.178643
H38   H     H_    0.518296 0.808416 0.618751 0.182376
H39   H     H_    0.950112 0.668466 0.488049 0.204298
H40   H     H_    0.020402 0.306595 0.622698 0.182025
H41   H     H_    0.536875 0.264317 0.663774 0.197909
H42   H     H_    0.538056 0.743557 0.667599 0.197298
H43   H     H_    0.011877 0.692529 0.616790 0.172202
H44   H     H_    0.037840 0.241021 0.667529 0.196207
C77   C     C_3   0.547958 0.251149 0.494103 0.069603
C78   C     C_3   0.548777 0.749200 0.495623 0.059177
C79   C     C_3   0.049097 0.752322 0.496388 0.057797
C80   C     C_3   0.048985 0.249526 0.496038 0.058452
C81   C     C_3   0.489303 0.207790 0.420825 0.152534
C82   C     C_3   0.488064 0.790766 0.417899 0.148936
C83   C     C_3   0.971154 0.757787 0.383929 0.171131
C84   C     C_3   0.990124 0.292855 0.422265 0.147027
C85   C     C_3   0.581836 0.239586 0.603852 -0.489070
C86   C     C_3   0.582782 0.763177 0.604645 -0.459755
C87   C     C_3   0.050737 0.701379 0.543254 -0.511271
C88   C     C_3   0.083498 0.261291 0.606124 -0.463012
H45   H     H_    0.622539 0.269881 0.658412 0.208554
H46   H     H_    0.622827 0.732793 0.660936 0.203704
H47   H     H_    0.103728 0.698715 0.624918 0.191790
H48   H     H_    0.122085 0.229699 0.659925 0.203832
H49   H     H_    0.610577 0.201971 0.631308 0.173375
H50   H     H_    0.613467 0.800294 0.631464 0.175900
H51   H     H_    0.045640 0.666982 0.502058 0.195287
H52   H     H_    0.115857 0.297769 0.636068 0.176352
H53   H     H_    0.427413 0.170371 0.445474 0.169900
H54   H     H_    0.421525 0.828163 0.433935 0.172926
H55   H     H_    0.873007 0.726943 0.338310 0.213254
H56   H     H_    0.923199 0.329253 0.438424 0.171285
H57   H     H_    0.518142 0.169735 0.453904 0.100977
H58   H     H_    0.514819 0.829517 0.447800 0.108573
H59   H     H_    0.961077 0.722466 0.340563 0.134356
H60   H     H_    0.018568 0.330784 0.456791 0.107072
C89   C     C_3   0.187098 0.029958 0.495047 -0.034866
C90   C     C_3   0.182390 0.969064 0.484152 -0.061369
C91   C     C_3   0.688932 0.529932 0.500320 -0.042190
C92   C     C_3   0.685736 0.468773 0.493030 -0.028009
H61   H     H_    0.214070 0.036374 0.575660 0.133655
H62   H     H_    0.197616 0.955152 0.554975 0.126340
H63   H     H_    0.718004 0.537804 0.581507 0.132960
H64   H     H_    0.707223 0.456216 0.568606 0.126415
H65   H     H_    0.338919 0.047035 0.665002 0.191822
H66   H     H_    0.326243 0.958763 0.664505 0.195774
H67   H     H_    0.841341 0.546578 0.662155 0.189960
H68   H     H_    0.832896 0.458135 0.663925 0.193939
C93   C     C_3   0.321567 0.030092 0.594821 -0.455788
C94   C     C_3   0.319628 0.970182 0.599721 -0.452506
C95   C     C_3   0.821359 0.530127 0.589981 -0.454768
C96   C     C_3   0.820694 0.470226 0.594786 -0.459248
C97   C     C_3   0.228527 0.029770 0.401899 -0.362146
C98   C     C_3   0.239756 0.970816 0.411080 -0.374551
C99   C     C_3   0.722140 0.529578 0.396919 -0.365213
C100  C     C_3   0.731561 0.470495 0.404151 -0.370137
C101  C     C_3   0.244965 0.051251 0.495826 0.124537
C102  C     C_3   0.246116 0.948812 0.496315 0.127463
C103  C     C_3   0.743464 0.551153 0.494441 0.123049
C104  C     C_3   0.745016 0.448693 0.495567 0.127917
H69   H     H_    0.266002 0.047443 0.397894 0.207995
H70   H     H_    0.291583 0.962486 0.432422 0.192333
H71   H     H_    0.757646 0.546725 0.388848 0.210033
H72   H     H_    0.779869 0.461307 0.417091 0.196707
H73   H     H_    0.172110 0.039650 0.328783 0.198627
H74   H     H_    0.197091 0.951790 0.335633 0.205968
H75   H     H_    0.665076 0.539664 0.325924 0.195915
H76   H     H_    0.685004 0.451972 0.329856 0.204927
H77   H     H_    0.293523 0.462570 0.441871 0.098192
H78   H     H_    0.276538 0.545938 0.418507 0.082469
H79   H     H_    0.794606 0.962518 0.443595 0.102966
H80   H     H_    0.778288 0.045847 0.420652 0.085884
H81   H     H_    0.363455 0.041581 0.595082 0.186331
H82   H     H_    0.366972 0.953416 0.616403 0.179639
H83   H     H_    0.860840 0.542378 0.585967 0.186138
H84   H     H_    0.865221 0.454155 0.604031 0.180459
H85   H     H_    0.328455 0.458924 0.672578 0.206844
H86   H     H_    0.347014 0.547371 0.675266 0.215553
H87   H     H_    0.827187 0.958695 0.672243 0.209576
H88   H     H_    0.844942 0.047226 0.675144 0.210926
C105  C     C_3   0.248574 0.448786 0.504521 -0.008029
C106  C     C_3   0.249019 0.551249 0.506157 0.022273
C107  C     C_3   0.748351 0.948754 0.504192 -0.008269
C108  C     C_3   0.748761 0.051224 0.505828 0.024563
C109  C     C_3   0.240192 0.470585 0.416845 0.021160
C110  C     C_3   0.232300 0.530514 0.410990 0.017773
C111  C     C_3   0.741047 0.970536 0.417477 0.016761
C112  C     C_3   0.733360 0.030495 0.411669 0.014682
H89   H     H_    0.369863 0.453082 0.625301 0.203597
H90   H     H_    0.366455 0.539423 0.600316 0.183735
H91   H     H_    0.869519 0.953203 0.626265 0.198394
H92   H     H_    0.866665 0.039648 0.602804 0.185485
C113  C     C_3   0.185058 0.469462 0.492620 -0.087298
C114  C     C_3   0.191829 0.530526 0.508054 -0.061332
C115  C     C_3   0.683968 0.969411 0.490350 -0.087076
C116  C     C_3   0.690506 0.030471 0.505607 -0.060832
H93   H     H_    0.133090 0.462672 0.411662 0.228466
H94   H     H_    0.137120 0.547218 0.441857 0.198536
H95   H     H_    0.632545 0.962619 0.409014 0.229189
H96   H     H_    0.636024 0.047166 0.438657 0.203215
C117  C     C_3   0.322473 0.469973 0.608276 -0.474398
C118  C     C_3   0.325924 0.529547 0.603502 -0.467434
C119  C     C_3   0.821789 0.969943 0.608529 -0.477058
C120  C     C_3   0.825208 0.029536 0.604110 -0.470884
N1    N     N_R   0.585729 0.346288 0.106519 0.224331
O53   O     O_R   0.626633 0.379520 0.112025 -0.356676
O54   O     O_R   0.553484 0.362252 0.133360 -0.379273
N2    N     N_R   0.596336 0.657479 0.110755 0.212059
O55   O     O_R   0.660454 0.637287 0.161054 -0.339025
O56   O     O_R   0.552236 0.631668 0.109255 -0.356851
N3    N     N_R   0.089407 0.844659 0.106740 0.222562
O57   O     O_R   0.134378 0.875670 0.117220 -0.351626
O58   O     O_R   0.053208 0.863536 0.125487 -0.389549
N4    N     N_R   0.083539 0.151582 0.104985 0.234075
O59   O     O_R   0.118211 0.116219 0.102135 -0.363974
O60   O     O_R   0.068542 0.140685 0.157619 -0.357918
N5    N     N_R   0.380557 0.323626 0.907842 0.201578
O61   O     O_R   0.324774 0.334726 0.811065 -0.484048
O62   O     O_R   0.407973 0.361157 0.973458 -0.336521
N6    N     N_R   0.394938 0.667618 0.916390 0.196875
O63   O     O_R   0.349490 0.654106 0.820446 -0.510592
O64   O     O_R   0.408534 0.633291 0.980180 -0.308308
N7    N     N_R   0.881558 0.824556 0.906069 0.202513
O65   O     O_R   0.826104 0.835250 0.808972 -0.483257
O66   O     O_R   0.908510 0.862490 0.970713 -0.335439
N8    N     N_R   0.894808 0.167767 0.919156 0.199527
O67   O     O_R   0.844923 0.152712 0.824093 -0.505688
O68   O     O_R   0.925871 0.132391 0.990082 -0.327785
N9    N     N_R   0.465805 0.295811 0.119112 0.284236
O69   O     O_R   0.401998 0.302765 0.086226 -0.344440
O70   O     O_R   0.522757 0.305495 0.215697 -0.377621
N10   N     N_R   0.474181 0.698789 0.124676 0.282081
O71   O     O_R   0.533854 0.680240 0.212287 -0.391477
O72   O     O_R   0.414024 0.694731 0.102971 -0.345065
N11   N     N_R   0.967360 0.798330 0.118179 0.274991
O73   O     O_R   0.903850 0.805955 0.085788 -0.313356
O74   O     O_R   0.024793 0.809286 0.213891 -0.355590
N12   N     N_R   0.967498 0.202022 0.122152 0.282544
O75   O     O_R   0.023025 0.196773 0.220853 -0.371753
O76   O     O_R   0.903174 0.191895 0.085775 -0.359186
C121  C     C_3   0.383618 0.337514 0.380249 -0.481114
C122  C     C_3   0.331116 0.311557 0.274105 -0.304399
C123  C     C_3   0.277300 0.350717 0.188532 -0.725153
H97   H     H_    0.243133 0.367968 0.198453 0.291052
H98   H     H_    0.307186 0.382018 0.188744 0.248207
H99   H     H_    0.240728 0.330933 0.112925 0.287545
H100  H     H_    0.361713 0.293511 0.258875 0.274572
H101  H     H_    0.298713 0.281398 0.270925 0.254430
H102  H     H_    0.352950 0.345739 0.401018 0.211418
H103  H     H_    0.400681 0.375924 0.374938 0.215856
C124  C     C_3   0.391376 0.658374 0.398076 -0.492341
C125  C     C_3   0.333311 0.681065 0.289063 -0.308130
C126  C     C_3   0.278525 0.639637 0.211421 -0.756116
H104  H     H_    0.306708 0.608556 0.208178 0.251833
H105  H     H_    0.251213 0.622393 0.232894 0.279897
H106  H     H_    0.236052 0.657433 0.133907 0.288274
H107  H     H_    0.302267 0.711706 0.287320 0.252543
H108  H     H_    0.359152 0.697704 0.264999 0.271195
H109  H     H_    0.411028 0.620743 0.395172 0.213870
H110  H     H_    0.364574 0.649050 0.424505 0.208460
C127  C     C_3   0.983537 0.853973 0.568069 -0.433559
C128  C     C_3   0.925999 0.879473 0.461775 -0.282241
C129  C     C_3   0.922102 0.937877 0.471308 -0.878598
H111  H     H_    0.914559 0.945921 0.522825 0.249119
H112  H     H_    0.973397 0.956874 0.503199 0.250333
H113  H     H_    0.875317 0.954731 0.394309 0.276804
H114  H     H_    0.939817 0.873344 0.417185 0.255912
H115  H     H_    0.871350 0.862560 0.419863 0.234943
H116  H     H_    0.964688 0.856292 0.606829 0.232065
H117  H     H_    0.033869 0.878391 0.617100 0.201170
C130  C     C_3   0.888575 0.160201 0.392705 -0.489322
C131  C     C_3   0.831072 0.184393 0.284944 -0.311907
C132  C     C_3   0.774895 0.144088 0.205305 -0.747548
H118  H     H_    0.802050 0.112628 0.200896 0.255322
H119  H     H_    0.746721 0.127158 0.225651 0.280101
H120  H     H_    0.733271 0.162786 0.128569 0.288737
H121  H     H_    0.801090 0.215282 0.284871 0.252007
H122  H     H_    0.857296 0.201065 0.261503 0.272900
H123  H     H_    0.907072 0.122587 0.387657 0.216206
H124  H     H_    0.861600 0.150594 0.418781 0.208221
N13   N     N_R   0.454712 0.209155 0.313977 0.224868
O77   O     O_R   0.462535 0.248092 0.277110 -0.343558
O78   O     O_R   0.415281 0.169803 0.254316 -0.340470
N14   N     N_R   0.454486 0.787404 0.311710 0.226455
O79   O     O_R   0.464572 0.747888 0.278946 -0.357894
O80   O     O_R   0.413564 0.825498 0.248380 -0.344581
N15   N     N_R   0.962617 0.802818 0.326717 0.210931
O81   O     O_R   0.017437 0.832635 0.363843 -0.453269
O82   O     O_R   0.899477 0.811290 0.233544 -0.314137
N16   N     N_R   0.957340 0.292955 0.316405 0.230180
O83   O     O_R   0.958452 0.252377 0.275616 -0.346898
O84   O     O_R   0.922991 0.334282 0.259930 -0.347457
C133  C     C_3   0.114715 0.061281 0.435999 -0.485279
C134  C     C_3   0.068647 0.074320 0.322960 -0.302867
C135  C     C_3   0.991771 0.091875 0.268243 -0.706491
H125  H     H_    0.963907 0.061515 0.273739 0.219155
H126  H     H_    0.994549 0.128289 0.302684 0.269037
H127  H     H_    0.958811 0.098774 0.185691 0.314537
H128  H     H_    0.095837 0.105569 0.318094 0.266172
H129  H     H_    0.062188 0.040687 0.281173 0.237882
H130  H     H_    0.081033 0.041232 0.444497 0.196784
H131  H     H_    0.128215 0.098801 0.475847 0.216412
C136  C     C_3   0.105236 0.943325 0.398730 -0.432179
C137  C     C_3   0.075256 0.935837 0.291490 -0.316159
C138  C     C_3   0.991699 0.931902 0.208637 -0.595908
H132  H     H_    0.973047 0.898957 0.224446 0.327458
H133  H     H_    0.966995 0.968292 0.205251 0.212215
H134  H     H_    0.971897 0.926005 0.132522 0.299958
H135  H     H_    0.089990 0.967874 0.269247 0.212761
H136  H     H_    0.098865 0.899760 0.291845 0.278100
H137  H     H_    0.108536 0.903948 0.426636 0.239145
H138  H     H_    0.064243 0.963348 0.392430 0.215660
C139  C     C_3   0.616200 0.560634 0.442319 -0.478036
C140  C     C_3   0.565591 0.569140 0.326698 -0.314921
C141  C     C_3   0.492064 0.591824 0.277295 -0.711541
H139  H     H_    0.465672 0.566930 0.293256 0.215561
H140  H     H_    0.500073 0.631377 0.307089 0.276852
H141  H     H_    0.455005 0.594248 0.192739 0.307365
H142  H     H_    0.591924 0.596131 0.313521 0.264841
H143  H     H_    0.554100 0.532588 0.287596 0.238789
H144  H     H_    0.585775 0.542266 0.457867 0.192189
H145  H     H_    0.629700 0.599638 0.477424 0.220506
C142  C     C_3   0.609022 0.441283 0.417528 -0.475503
C143  C     C_3   0.573654 0.427681 0.308994 -0.308648
C144  C     C_3   0.491821 0.416995 0.237424 -0.673343
H146  H     H_    0.482961 0.384499 0.267681 0.267682
H147  H     H_    0.463399 0.452168 0.229873 0.220295
H148  H     H_    0.467396 0.406668 0.159869 0.323050
H149  H     H_    0.579392 0.458936 0.274062 0.223078
H150  H     H_    0.600413 0.392540 0.312954 0.265651
H151  H     H_    0.614881 0.403808 0.453244 0.199998
H152  H     H_    0.569754 0.463216 0.412530 0.212240
N17   N     N_R   0.183753 0.444654 0.316721 0.252128
O85   O     O_R   0.116267 0.440320 0.271886 -0.253832
O86   O     O_R   0.202477 0.423191 0.273894 -0.398404
N18   N     N_R   0.162819 0.549697 0.311674 0.271040
O87   O     O_R   0.100205 0.541200 0.281476 -0.301017
O88   O     O_R   0.164106 0.577018 0.253173 -0.346658
N19   N     N_R   0.685362 0.944546 0.317181 0.249636
O89   O     O_R   0.617526 0.940267 0.270906 -0.255816
O90   O     O_R   0.705157 0.922742 0.275942 -0.361726
N20   N     N_R   0.664488 0.049786 0.311771 0.270180
O91   O     O_R   0.601292 0.041251 0.279811 -0.291952
O92   O     O_R   0.666893 0.077157 0.254458 -0.347664
C145  C     C_3   0.176400 0.438030 0.557269 -0.411743
C146  C     C_3   0.097238 0.440132 0.508198 -0.351395
C147  C     C_3   0.093937 0.425691 0.585639 -0.870147
H153  H     H_    0.120409 0.387515 0.621250 0.263352
H154  H     H_    0.122478 0.455524 0.646930 0.269721
H155  H     H_    0.035908 0.423421 0.546205 0.250443
H156  H     H_    0.072754 0.479251 0.476467 0.229616
H157  H     H_    0.062920 0.412521 0.442739 0.253833
H158  H     H_    0.189107 0.396332 0.563430 0.211199
H159  H     H_    0.216773 0.450572 0.638680 0.224989
C148  C     C_3   0.208118 0.547857 0.604624 -0.449587
C149  C     C_3   0.201275 0.606006 0.613761 -0.347403
C150  C     C_3   0.200330 0.615440 0.695177 -0.783242
H160  H     H_    0.146738 0.603565 0.665605 0.232785
H161  H     H_    0.244438 0.593008 0.766330 0.309233
H162  H     H_    0.209738 0.657173 0.715552 0.248446
H163  H     H_    0.248546 0.627145 0.637162 0.252145
H164  H     H_    0.149914 0.621659 0.539009 0.223145
H165  H     H_    0.167088 0.529799 0.600458 0.234467
H166  H     H_    0.262573 0.533948 0.676933 0.231803
C151  C     C_3   0.673877 0.938002 0.553459 -0.413452
C152  C     C_3   0.594094 0.940116 0.502118 -0.349482
C153  C     C_3   0.589166 0.926741 0.578214 -0.868953
H167  H     H_    0.616162 0.888999 0.615981 0.263098
H168  H     H_    0.616345 0.957294 0.637991 0.269508
H169  H     H_    0.530783 0.924126 0.537150 0.251774
H170  H     H_    0.569438 0.979029 0.468723 0.233377
H171  H     H_    0.560673 0.911952 0.437559 0.251741
H172  H     H_    0.686820 0.896316 0.560308 0.211613
H173  H     H_    0.713384 0.950553 0.634812 0.224949
C154  C     C_3   0.705195 0.047637 0.600903 -0.448351
C155  C     C_3   0.698894 0.105749 0.610836 -0.346250
C156  C     C_3   0.695376 0.114639 0.689762 -0.788420
H174  H     H_    0.639737 0.105408 0.655663 0.227662
H175  H     H_    0.735996 0.089968 0.759009 0.304920
H176  H     H_    0.708649 0.155611 0.715064 0.255333
H177  H     H_    0.747412 0.126466 0.637180 0.247552
H178  H     H_    0.648565 0.122055 0.535773 0.227491
H179  H     H_    0.663035 0.029784 0.594536 0.236114
H180  H     H_    0.759042 0.033321 0.673755 0.231141
N21   N     N_R   0.532863 0.149284 0.086590 0.223856
O93   O     O_R   0.521882 0.147904 0.145739 -0.312512
O94   O     O_R   0.533804 0.105315 0.052776 -0.302432
N22   N     N_R   0.531564 0.850434 0.088247 0.240941
O95   O     O_R   0.510145 0.849314 0.134673 -0.329432
O96   O     O_R   0.538752 0.895578 0.064070 -0.282078
N23   N     N_R   0.030580 0.649185 0.086299 0.227046
O97   O     O_R   0.019547 0.648841 0.145405 -0.336257
O98   O     O_R   0.030267 0.604777 0.052349 -0.303617
N24   N     N_R   0.036186 0.348954 0.090733 0.235925
O99   O     O_R   0.011806 0.350127 0.133230 -0.322602
O100  O     O_R   0.047781 0.393073 0.069371 -0.290909
C157  C     C_3   0.337735 0.236239 0.891127 -0.396167
C158  C     C_3   0.340021 0.176253 0.896430 -0.386518
C159  C     C_3   0.276235 0.154832 0.878290 -0.798925
H181  H     H_    0.280429 0.167916 0.939957 0.291679
H182  H     H_    0.223172 0.168013 0.802562 0.240986
H183  H     H_    0.277578 0.111740 0.878897 0.261716
H184  H     H_    0.334097 0.159804 0.835226 0.253511
H185  H     H_    0.390976 0.161181 0.971049 0.275807
H186  H     H_    0.320384 0.250039 0.928597 0.253425
H187  H     H_    0.290804 0.246588 0.808976 0.242249
C160  C     C_3   0.337229 0.748693 0.891194 -0.420718
C161  C     C_3   0.334727 0.803360 0.923292 -0.328186
C162  C     C_3   0.257788 0.826400 0.843684 -0.847664
H188  H     H_    0.241352 0.832549 0.769703 0.268396
H189  H     H_    0.217992 0.800126 0.831643 0.255477
H190  H     H_    0.256944 0.864468 0.871039 0.268815
H191  H     H_    0.350226 0.800634 0.997167 0.276356
H192  H     H_    0.372360 0.830950 0.934329 0.251085
H193  H     H_    0.297009 0.746190 0.806433 0.231489
H194  H     H_    0.312761 0.722642 0.908991 0.243095
C163  C     C_3   0.837985 0.737828 0.891184 -0.396285
C164  C     C_3   0.839315 0.677893 0.896874 -0.391970
C165  C     C_3   0.775053 0.657473 0.878515 -0.814920
H195  H     H_    0.779164 0.671254 0.939777 0.285374
H196  H     H_    0.722268 0.670705 0.802502 0.246564
H197  H     H_    0.775820 0.614369 0.879629 0.261373
H198  H     H_    0.833263 0.660866 0.835909 0.256015
H199  H     H_    0.889946 0.662782 0.971730 0.273942
H200  H     H_    0.821021 0.752381 0.928774 0.252611
H201  H     H_    0.791089 0.748079 0.808963 0.243483
C166  C     C_3   0.834752 0.249176 0.887405 -0.409461
C167  C     C_3   0.831174 0.304916 0.914722 -0.334387
C168  C     C_3   0.752894 0.325741 0.836722 -0.846950
H202  H     H_    0.731942 0.328109 0.759202 0.269681
H203  H     H_    0.716740 0.300215 0.834083 0.260718
H204  H     H_    0.751853 0.365289 0.859549 0.266168
H205  H     H_    0.849808 0.304966 0.990855 0.272912
H206  H     H_    0.865383 0.332371 0.917819 0.247810
H207  H     H_    0.795128 0.245131 0.802937 0.231898
H208  H     H_    0.809773 0.224248 0.905622 0.247601
C169  C     C_3   0.481244 0.354392 0.893925 -0.287040
C170  C     C_3   0.527173 0.377179 0.876252 -0.346388
C171  C     C_3   0.522519 0.436260 0.869037 -0.842102
H209  H     H_    0.464600 0.449059 0.810216 0.250273
H210  H     H_    0.549291 0.453125 0.944378 0.300780
H211  H     H_    0.550935 0.450958 0.847653 0.252280
H212  H     H_    0.585675 0.365955 0.939639 0.281470
H213  H     H_    0.506934 0.361210 0.803706 0.226057
H214  H     H_    0.423314 0.356761 0.819617 0.244308
H215  H     H_    0.483643 0.380994 0.943249 0.282589
C172  C     C_3   0.495194 0.648819 0.897163 -0.291502
C173  C     C_3   0.551467 0.627891 0.897703 -0.314563
C174  C     C_3   0.526507 0.576410 0.840490 -0.917744
H216  H     H_    0.514588 0.548004 0.872790 0.281496
H217  H     H_    0.476551 0.582378 0.757599 0.263338
H218  H     H_    0.570312 0.560472 0.848312 0.265796
H219  H     H_    0.559191 0.656111 0.859982 0.242109
H220  H     H_    0.604841 0.621335 0.977763 0.296892
H221  H     H_    0.491369 0.620823 0.938767 0.271987
H222  H     H_    0.441394 0.644786 0.817805 0.265405
C175  C     C_3   0.983938 0.853480 0.894444 -0.285512
C176  C     C_3   0.030304 0.875448 0.876974 -0.353892
C177  C     C_3   0.025846 0.934526 0.868666 -0.842796
H223  H     H_    0.967978 0.947418 0.808970 0.251664
H224  H     H_    0.052130 0.951791 0.943506 0.298603
H225  H     H_    0.054873 0.948678 0.847925 0.252317
H226  H     H_    0.088705 0.864159 0.940920 0.282571
H227  H     H_    0.010301 0.858953 0.804887 0.220017
H228  H     H_    0.926079 0.856591 0.820279 0.246358
H229  H     H_    0.986986 0.880342 0.944008 0.282916
C178  C     C_3   0.990504 0.147462 0.892063 -0.275293
C179  C     C_3   0.041531 0.130793 0.879763 -0.337152
C180  C     C_3   0.034224 0.073060 0.856008 -0.848730
H230  H     H_    0.050229 0.049697 0.920282 0.294545
H231  H     H_    0.977010 0.063650 0.784196 0.248879
H232  H     H_    0.070750 0.062676 0.845994 0.254198
H233  H     H_    0.027478 0.153319 0.815928 0.222804
H234  H     H_    0.099577 0.139231 0.950745 0.288251
H235  H     H_    0.991447 0.117813 0.936613 0.273903
H236  H     H_    0.934180 0.143389 0.815793 0.252039
N25   N     N_R   0.639756 0.277735 0.089502 0.169120
O101  O     O_R   0.638343 0.248649 0.030110 -0.474373
O102  O     O_R   0.703592 0.294929 0.173099 -0.328468
N26   N     N_R   0.643307 0.729419 0.088050 0.191680
O103  O     O_R   0.660456 0.710536 0.041492 -0.398243
O104  O     O_R   0.693241 0.757052 0.169894 -0.399555
N27   N     N_R   0.140487 0.774204 0.088402 0.169357
O105  O     O_R   0.137710 0.745492 0.027342 -0.471604
O106  O     O_R   0.205267 0.788271 0.174588 -0.336178
N28   N     N_R   0.143759 0.219478 0.097120 0.167913
O107  O     O_R   0.146353 0.250337 0.043266 -0.482763
O108  O     O_R   0.204867 0.196974 0.176414 -0.320583

loop_
_geom_bond_atom_site_label_1
_geom_bond_atom_site_label_2
_geom_bond_distance
_ccdc_geom_bond_type
C171  H211  1.110295 S    
C161  H192  1.097749 S    
C147  H153  1.108620 S    
C45   C49   1.610277 S    
C155  H177  1.106820 S    
Zn5   O21   1.963128 S    
C86   H50   1.110092 S    
C10   C106  1.487150 S    
C145  C146  1.541775 S    
C57   C121  1.556047 S    
N3    O57   1.302678 A    
O23   C19   1.289594 A    
C48   C52   1.605988 S    
N7    O66   1.299278 A    
C21   C41   1.500226 S    
N25   O101  1.303408 A    
N6    O63   1.298721 A    
C107  C111  1.565407 S    
C78   C86   1.558855 S    
C9    C105  1.488876 S    
C66   C74   1.558881 S    
C29   C45   1.587857 S    
C136  H137  1.110605 S    
C20   C45   1.505098 S    
C62   H26   1.113682 S    
C128  H114  1.109220 S    
O42   C14   1.285296 A    
C112  N20   1.471206 S    
H35   C67   1.104807 S    
C27   H3    1.102372 S    
C150  H162  1.108423 S    
C33   N5    1.490914 S    
C121  H102  1.112180 S    
O46   C2    1.287693 A    
C156  H174  1.110977 S    
C91   C103  1.577057 S    
C97   C101  1.559012 S    
O27   C23   1.285513 A    
C54   N26   1.500520 S    
C58   H22   1.115907 S    
Zn11  O31   1.958371 S    
O34   C22   1.275623 A    
C116  H96   1.109146 S    
C56   N4    1.493377 S    
C173  C174  1.526165 S    
C165  H196  1.110760 S    
Zn3   O3    1.956318 S    
C7    C75   1.482145 S    
Zn16  O28   1.958283 S    
O28   C24   1.295124 A    
C180  H230  1.110159 S    
N9    O70   1.299893 A    
C28   C32   1.541546 S    
N17   O86   1.300685 A    
Zn4   O40   1.943172 S    
H89   C117  1.112667 S    
C179  H233  1.112099 S    
C143  H150  1.109418 S    
O11   C7    1.277276 A    
C132  H119  1.110328 S    
C167  H205  1.111378 S    
C72   H44   1.113189 S    
C15   C103  1.489660 S    
H33   C65   1.105474 S    
C106  C114  1.587028 S    
N11   O74   1.299898 A    
N27   O105  1.303419 A    
C67   C83   1.551188 S    
C25   H5    1.113908 S    
C170  H212  1.110663 S    
C168  H203  1.110679 S    
C128  C129  1.527155 S    
C65   C81   1.534918 S    
C94   H82   1.113464 S    
C126  H104  1.110946 S    
C63   H27   1.111352 S    
C61   H29   1.105911 S    
C47   C51   1.609945 S    
C153  H168  1.110695 S    
C116  C154  1.570227 S    
C93   C94   1.548509 S    
C166  H208  1.111631 S    
O16   C12   1.280592 A    
N13   O78   1.301230 A    
C33   C157  1.592286 S    
N7    O65   1.303487 A    
C58   C62   1.548174 S    
C36   C166  1.591013 S    
C109  N17   1.473986 S    
Zn16  O4    1.964880 S    
C131  C132  1.526195 S    
Zn12  O4    1.957980 S    
C164  C165  1.528239 S    
C22   C42   1.507327 S    
Zn13  O5    1.939499 S    
Zn2   O10   1.940662 S    
C125  C126  1.526068 S    
C142  H152  1.104461 S    
C99   H71   1.113191 S    
C169  H215  1.103267 S    
C23   C43   1.497843 S    
N26   O103  1.301824 A    
Zn6   O14   1.942759 S    
O47   C3    1.279830 A    
Zn7   O3    1.955414 S    
C28   H8    1.114657 S    
C156  H176  1.106757 S    
H13   C49   1.092416 S    
C68   C84   1.532675 S    
C90   C102  1.580180 S    
C93   C101  1.559280 S    
C136  C137  1.537182 S    
H79   C111  1.113943 S    
C145  H159  1.108277 S    
C29   N21   1.482033 S    
C149  C150  1.530254 S    
C71   H39   1.113673 S    
C126  H106  1.110282 S    
C77   C85   1.556377 S    
C72   H40   1.113404 S    
C173  H220  1.107741 S    
O25   C21   1.285542 A    
C163  H201  1.110406 S    
C154  C155  1.531622 S    
C135  H125  1.110963 S    
C81   H57   1.115480 S    
C170  C171  1.525088 S    
C139  C140  1.531319 S    
C34   N6    1.485640 S    
C32   N24   1.480098 S    
N18   O87   1.300430 A    
O24   C20   1.284679 A    
Zn11  O19   1.941639 S    
C117  C118  1.542945 S    
N1    O54   1.295249 A    
C144  H146  1.111019 S    
C124  H109  1.113108 S    
N24   O99   1.300047 A    
N4    O59   1.303140 A    
Zn10  O2    1.957980 S    
C161  C162  1.525620 S    
C89   C133  1.565135 S    
C134  H128  1.109063 S    
C53   N1    1.488519 S    
C3    C78   1.487716 S    
C151  C152  1.542199 S    
Zn9   O49   1.938258 S    
C140  C141  1.525120 S    
Zn4   O4    1.955415 S    
C59   C75   1.586016 S    
C26   H6    1.115244 S    
C180  H231  1.108206 S    
C121  C122  1.536214 S    
C39   C175  1.581982 S    
C107  C119  1.560825 S    
Zn7   O23   1.963128 S    
C92   C104  1.580671 S    
Zn8   O24   1.960861 S    
O26   C22   1.294601 A    
C34   C50   1.587614 S    
N2    O56   1.297077 A    
C138  H133  1.110609 S    
C151  H173  1.108099 S    
H92   C120  1.113648 S    
H67   C95   1.113323 S    
C176  H227  1.112177 S    
C55   N27   1.502852 S    
C142  C143  1.537051 S    
C100  H76   1.104828 S    
O29   C17   1.278063 A    
N19   O89   1.300069 A    
C97   H73   1.106924 S    
C70   H38   1.113430 S    
N16   O83   1.299734 A    
C61   C77   1.556561 S    
Zn12  O52   1.939454 S    
C69   H41   1.113385 S    
C108  C116  1.587150 S    
O22   C18   1.285501 A    
N3    O58   1.294646 A    
N23   O98   1.301869 A    
C113  C145  1.572922 S    
Zn13  O41   1.945250 S    
O50   C6    1.281717 A    
N14   O79   1.300099 A    
C40   H20   1.107810 S    
C160  H193  1.106368 S    
Zn16  O44   1.941685 S    
H77   C109  1.117419 S    
C169  H214  1.104073 S    
Zn1   O37   1.942717 S    
C134  C135  1.525238 S    
N12   O76   1.301792 A    
Zn2   O34   1.963173 S    
C39   C43   1.594676 S    
C122  H101  1.109344 S    
N10   O72   1.302116 A    
C155  C156  1.530245 S    
C86   H46   1.112845 S    
C150  H161  1.111079 S    
Zn6   O22   1.960861 S    
C58   C124  1.556533 S    
C36   C52   1.586201 S    
C69   C73   1.549180 S    
C178  H235  1.103897 S    
C97   C98   1.533112 S    
C152  H171  1.111805 S    
O35   C23   1.276196 A    
C47   C55   1.629792 S    
C177  H225  1.110331 S    
H85   C117  1.111974 S    
N5    O62   1.299826 A    
C19   C46   1.503169 S    
C67   C75   1.552799 S    
C65   C73   1.559634 S    
C177  H224  1.110615 S    
C27   H7    1.113801 S    
C113  C114  1.586880 S    
Zn10  O50   1.939454 S    
C69   C85   1.541768 S    
C139  H145  1.110390 S    
C64   H28   1.113763 S    
C143  C144  1.528364 S    
C144  H148  1.109221 S    
C84   N16   1.473536 S    
C80   C88   1.559414 S    
C148  H166  1.108912 S    
C63   H31   1.109547 S    
C89   C90   1.575888 S    
H66   C94   1.113080 S    
O5    C1    1.287932 A    
N27   O106  1.302145 A    
O31   C19   1.280736 A    
C59   H23   1.115968 S    
C37   C41   1.593964 S    
C27   C43   1.567717 S    
C127  H117  1.113692 S    
H91   C119  1.112620 S    
C66   H54   1.114447 S    
C88   H48   1.112904 S    
C40   C178  1.585597 S    
C71   C87   1.541455 S    
C154  H179  1.104942 S    
C174  H216  1.109840 S    
Zn5   O45   1.940621 S    
H90   C118  1.113328 S    
C59   C127  1.564500 S    
C162  H189  1.110948 S    
Zn7   O47   1.940621 S    
C63   C79   1.554621 S    
Zn8   O48   1.942538 S    
C105  C117  1.561051 S    
C81   N13   1.474292 S    
C172  H222  1.098021 S    
C98   H70   1.114447 S    
C114  C148  1.571370 S    
H34   C66   1.105461 S    
C107  C115  1.581515 S    
C129  H112  1.110956 S    
N20   O91   1.300414 A    
C51   N11   1.480711 S    
O51   C7    1.292233 A    
Zn11  O51   1.938258 S    
C89   C101  1.575752 S    
C59   C63   1.537595 S    
C130  H124  1.112211 S    
O8    C4    1.290477 A    
C135  H127  1.109646 S    
C97   H69   1.113260 S    
C171  H210  1.110676 S    
N23   O97   1.299325 A    
C29   H9    1.106404 S    
N28   O107  1.303094 A    
C155  H178  1.110729 S    
C31   H11   1.107010 S    
C62   H30   1.101092 S    
C60   H24   1.115949 S    
C125  H107  1.108488 S    
C111  C112  1.551560 S    
Zn1   O9    1.942581 S    
O52   C8    1.281613 A    
Zn1   O1    1.956318 S    
C164  H198  1.106427 S    
O40   C12   1.283554 A    
Zn13  O1    1.957830 S    
C119  C120  1.542766 S    
Zn3   O11   1.942581 S    
Zn15  O27   1.960000 S    
C128  H115  1.110747 S    
C137  H135  1.097710 S    
H88   C120  1.110492 S    
C28   H4    1.102316 S    
N21   O94   1.301860 A    
C13   C101  1.486934 S    
O9    C5    1.286588 A    
H14   C50   1.085725 S    
C158  C159  1.528184 S    
O41   C13   1.285395 A    
C79   C83   1.569699 S    
C149  H163  1.105711 S    
C17   C48   1.500781 S    
C71   H43   1.113648 S    
C77   C81   1.573535 S    
C18   C47   1.506600 S    
C30   C46   1.588459 S    
O13   C9    1.280692 A    
N22   O95   1.299812 A    
C88   H52   1.110722 S    
C179  H234  1.110139 S    
C54   N2    1.487357 S    
C177  H223  1.107936 S    
O18   C14   1.285850 A    
C91   C139  1.566360 S    
C33   C41   1.600090 S    
O6    C2    1.284728 A    
C150  H160  1.110780 S    
C167  C168  1.525968 S    
C35   C43   1.597744 S    
Zn9   O17   1.941639 S    
Zn9   O29   1.958371 S    
N17   O85   1.300155 A    
C25   H1    1.102621 S    
C11   C107  1.488248 S    
C85   H49   1.101982 S    
C159  H181  1.111002 S    
C12   C108  1.487608 S    
Zn12  O32   1.960089 S    
C30   N22   1.479503 S    
Zn13  O25   1.960000 S    
C132  H118  1.110936 S    
C159  H183  1.110625 S    
C167  H206  1.097653 S    
C92   C142  1.569397 S    
Zn15  O3    1.957830 S    
C35   C163  1.592684 S    
Zn11  O3    1.965030 S    
C176  C177  1.525627 S    
C152  C153  1.525300 S    
C80   C84   1.574294 S    
N19   O90   1.301383 A    
O43   C15   1.286043 A    
C131  H122  1.109059 S    
C140  H142  1.108110 S    
C170  H213  1.112047 S    
C168  H202  1.110909 S    
C84   H60   1.113366 S    
C141  H141  1.110287 S    
Zn5   O1    1.955414 S    
C146  C147  1.525498 S    
C26   H2    1.103305 S    
C26   C42   1.566745 S    
C174  H218  1.110334 S    
C28   C44   1.568275 S    
C98   C102  1.556768 S    
O10   C6    1.282836 A    
C31   C47   1.588177 S    
C166  H207  1.106426 S    
H80   C112  1.117672 S    
C130  C131  1.534977 S    
C157  H187  1.110365 S    
N8    O68   1.300077 A    
C99   C100  1.532450 S    
O32   C20   1.283012 A    
C142  H151  1.113749 S    
C133  H131  1.111312 S    
C70   C74   1.553661 S    
C83   H59   1.114195 S    
C175  H229  1.102260 S    
C40   C44   1.601252 S    
C68   C76   1.558928 S    
N26   O104  1.302232 A    
C122  C123  1.526254 S    
C62   C78   1.555338 S    
C69   H37   1.113782 S    
N11   O73   1.301336 A    
C60   C76   1.572164 S    
C55   N3    1.486698 S    
C87   H47   1.108080 S    
C156  H175  1.111326 S    
C72   C88   1.548063 S    
C1    C80   1.487492 S    
C145  H158  1.105639 S    
N6    O64   1.299765 A    
C2    C79   1.490735 S    
C126  H105  1.110356 S    
Zn14  O42   1.941685 S    
C153  H167  1.107976 S    
O7    C3    1.287256 A    
C171  H209  1.107544 S    
C169  C170  1.542772 S    
C163  H200  1.110189 S    
C136  H138  1.105354 S    
H78   C110  1.117614 S    
C89   H61   1.117690 S    
C87   H51   1.112656 S    
Zn2   O38   1.943172 S    
O33   C21   1.277614 A    
C91   C92   1.578908 S    
C66   C82   1.534081 S    
Zn3   O35   1.960904 S    
C146  H157  1.111804 S    
C127  C128  1.532932 S    
C113  H93   1.106903 S    
C121  H103  1.113036 S    
C123  H97   1.109403 S    
N18   O88   1.300385 A    
C115  H95   1.106810 S    
C90   C136  1.566056 S    
C105  C109  1.565563 S    
N1    O53   1.302694 A    
C37   C53   1.588466 S    
C46   C54   1.627972 S    
O39   C11   1.282744 A    
N24   O100  1.301540 A    
C165  H197  1.110622 S    
N15   O82   1.300889 A    
C134  H129  1.091071 S    
C27   C31   1.546944 S    
C108  C120  1.558786 S    
O36   C24   1.276016 A    
C143  H149  1.099583 S    
C90   H62   1.117253 S    
O12   C8    1.282822 A    
C110  N18   1.471397 S    
H68   C96   1.113150 S    
C132  H120  1.110018 S    
C147  H154  1.110746 S    
C138  H132  1.107601 S    
C151  H172  1.105392 S    
O19   C15   1.286142 A    
C39   H19   1.107517 S    
Zn15  O43   1.945250 S    
C37   H17   1.107788 S    
C8    C76   1.482289 S    
C82   H58   1.113628 S    
C168  H204  1.110501 S    
N16   O84   1.301211 A    
C141  H139  1.111004 S    
C36   C44   1.605382 S    
C45   C53   1.629924 S    
C35   C51   1.595240 S    
Zn6   O46   1.942538 S    
C153  H169  1.110468 S    
C48   C56   1.633696 S    
C98   H74   1.105109 S    
C95   H83   1.113559 S    
Zn14  O6    1.938303 S    
C106  C118  1.559862 S    
C158  H184  1.106464 S    
C83   N15   1.470290 S    
C60   C130  1.556501 S    
N14   O80   1.301197 A    
C61   H25   1.113817 S    
C25   C41   1.567323 S    
C49   N9    1.482076 S    
C178  C179  1.542290 S    
C91   H63   1.117500 S    
C32   H12   1.104078 S    
H36   C68   1.105481 S    
C148  H165  1.104755 S    
C36   N8    1.484375 S    
C60   C64   1.548523 S    
C35   N7    1.491707 S    
C57   H21   1.115862 S    
C172  C173  1.539339 S    
C82   N14   1.474748 S    
O38   C10   1.282673 A    
C129  H111  1.110248 S    
C173  H219  1.111513 S    
Zn2   O2    1.955415 S    
C141  H140  1.106307 S    
N5    O61   1.303423 A    
Zn14  O2    1.964880 S    
O37   C9    1.282248 A    
N15   O81   1.299262 A    
C96   H84   1.113596 S    
C34   C160  1.588985 S    
C124  C125  1.534707 S    
C137  C138  1.528483 S    
O49   C5    1.282311 A    
C166  C167  1.546856 S    
N9    O69   1.302080 A    
N10   O71   1.299016 A    
C58   C74   1.572668 S    
Zn8   O4    1.956318 S    
C38   C172  1.588769 S    
Zn4   O36   1.963173 S    
C139  H144  1.108724 S    
C179  C180  1.525024 S    
C79   C87   1.550244 S    
C32   C48   1.583106 S    
C180  H232  1.110270 S    
C144  H147  1.111042 S    
C124  H110  1.112153 S    
C105  C113  1.581617 S    
C165  H195  1.110958 S    
C109  C110  1.551219 S    
C50   N10   1.477627 S    
C95   C103  1.558220 S    
C163  C164  1.546141 S    
C25   C29   1.546348 S    
C127  H116  1.108900 S    
C6    C74   1.482548 S    
C39   C55   1.588282 S    
Zn10  O30   1.960089 S    
C85   H45   1.110003 S    
C158  H185  1.100740 S    
Zn12  O20   1.945203 S    
C162  H188  1.110881 S    
Zn14  O26   1.958283 S    
C138  H134  1.108780 S    
C57   C61   1.552923 S    
Zn15  O7    1.939499 S    
C46   C50   1.602306 S    
C176  H226  1.110498 S    
Zn16  O8    1.938303 S    
C131  H121  1.108879 S    
N20   O92   1.300386 A    
C16   C104  1.486036 S    
Zn3   O39   1.942717 S    
C24   C44   1.508377 S    
C99   H75   1.105874 S    
Zn4   O12   1.940662 S    
C130  H123  1.113112 S    
N8    O67   1.298315 A    
N25   O102  1.302500 A    
Zn5   O13   1.943215 S    
C146  H156  1.110424 S    
C135  H126  1.106610 S    
Zn6   O2    1.956318 S    
C147  H155  1.110515 S    
N28   O108  1.303000 A    
C70   C86   1.547406 S    
Zn7   O15   1.943215 S    
Zn8   O16   1.942759 S    
C31   N23   1.481955 S    
C160  C161  1.547376 S    
C157  C158  1.546811 S    
H86   C118  1.110764 S    
C125  H108  1.109379 S    
C71   C75   1.552688 S    
C175  C176  1.542442 S    
C164  H199  1.100255 S    
C100  C104  1.555803 S    
C160  H194  1.113020 S    
C133  H130  1.108705 S    
C38   C42   1.605405 S    
C123  H98   1.110948 S    
N12   O75   1.299774 A    
C137  H136  1.108975 S    
C67   H55   1.113763 S    
C122  H100  1.107239 S    
C72   C76   1.554680 S    
C108  C112  1.569862 S    
C65   H53   1.114408 S    
C111  N19   1.474515 S    
N21   O93   1.299365 A    
Zn10  O18   1.945203 S    
C53   N25   1.502949 S    
C178  H236  1.100297 S    
C149  H164  1.110364 S    
C152  H170  1.110551 S    
C115  C151  1.573535 S    
C64   C80   1.555813 S    
Zn9   O1    1.965030 S    
C115  C116  1.586549 S    
N22   O96   1.301514 A    
C161  H191  1.112070 S    
C56   N28   1.502144 S    
C94   C102  1.556850 S    
C38   C54   1.588557 S    
C157  H186  1.110058 S    
C4    C77   1.490132 S    
C92   H64   1.117208 S    
C30   H10   1.105226 S    
O45   C1    1.279204 A    
C26   C30   1.541389 S    
C37   C169  1.580620 S    
C114  H94   1.109129 S    
C33   C49   1.594873 S    
H15   C51   1.093052 S    
C68   H56   1.114440 S    
C106  C110  1.569432 S    
C93   H81   1.113466 S    
C159  H182  1.110795 S    
O15   C11   1.279938 A    
C52   N12   1.482227 S    
N13   O77   1.299706 A    
C99   C103  1.559048 S    
C123  H99   1.109791 S    
N2    O55   1.303151 A    
C100  H72   1.114404 S    
H87   C119  1.112103 S    
O21   C17   1.290575 A    
C5    C73   1.482127 S    
C140  H143  1.092400 S    
C133  C134  1.532175 S    
C70   H42   1.113219 S    
N4    O60   1.296476 A    
O44   C16   1.283803 A    
O17   C13   1.285461 A    
O20   C16   1.286504 A    
C14   C102  1.487430 S    
C172  H221  1.101350 S    
C154  H180  1.109032 S    
C174  H217  1.109691 S    
O48   C4    1.282415 A    
C162  H190  1.110461 S    
C78   C82   1.573649 S    
C148  C149  1.532407 S    
O14   C10   1.281292 A    
C64   H32   1.101630 S    
H65   C93   1.113252 S    
C129  H113  1.110515 S    
C57   C73   1.572336 S    
C95   C96   1.546210 S    
C96   C104  1.555101 S    
C40   C56   1.595372 S    
C34   C42   1.604750 S    
O30   C18   1.283114 A    
Zn1   O33   1.960904 S    
C38   H18   1.112927 S    
C175  H228  1.103656 S    
H16   C52   1.084529 S    
