data_mof_unit_13915.cif
_audit_creation_date              2012-12-11T16:18:12-0500
_audit_creation_method            fapswitch 2.2
_symmetry_space_group_name_H-M    P1
_symmetry_Int_Tables_number       1
_space_group_crystal_system       triclinic
_cell_length_a                    14.015054
_cell_length_b                    13.99918
_cell_length_c                    30.021725
_cell_angle_alpha                 96.651828
_cell_angle_beta                  96.912574
_cell_angle_gamma                 61.650285
_cell_volume                      5134.49443167

loop_
_atom_site_label
_atom_site_type_symbol
_atom_type_description
_atom_site_fract_x
_atom_site_fract_y
_atom_site_fract_z
_atom_type_partial_charge
C1    C     C_R   0.386084 0.710446 0.441902 0.527242
C2    C     C_R   0.676177 0.330637 0.361446 -0.123899
C3    C     C_R   0.689236 0.320108 0.315464 -0.094280
C4    C     C_R   0.398742 0.381192 0.426538 0.551089
C5    C     C_R   0.698727 0.400420 0.295567 0.033869
C6    C     C_R   0.694650 0.491600 0.321490 -0.105246
C7    C     C_R   0.682534 0.501914 0.367458 -0.118410
C8    C     C_R   0.760171 0.430718 0.140071 -0.043818
C9    C     C_R   0.804463 0.407732 0.098448 0.208911
C10   C     C_R   0.887567 0.213287 0.109950 0.205749
C11   C     C_R   0.842324 0.238794 0.151261 -0.040105
C12   C     C_R   0.420213 0.267206 0.221268 0.276834
C13   C     C_R   0.780910 0.346694 0.166682 -0.055284
C14   C     C_1   0.744873 0.369961 0.211110 0.006747
C15   C     C_1   0.720781 0.385455 0.249280 0.012223
C16   C     C_R   0.657573 0.434980 0.436399 0.553525
C17   C     C_R   0.875592 0.298019 0.084188 0.000797
C18   C     C_R   0.365093 0.768421 0.400973 0.020874
C19   C     C_R   0.449081 0.779237 0.384519 -0.125440
C20   C     C_R   0.438663 0.809001 0.340729 -0.114092
C21   C     C_R   0.343747 0.829734 0.313381 0.034732
C22   C     C_R   0.256526 0.827743 0.330639 -0.092970
C23   C     C_R   0.429052 0.267946 0.268249 0.311037
C24   C     C_R   0.266883 0.797571 0.374305 -0.116682
C25   C     C_R   0.253758 0.832226 0.151561 0.212781
C26   C     C_R   0.244730 0.841851 0.104733 0.158237
C27   C     C_R   0.404223 0.870846 0.112565 0.188223
C28   C     C_R   0.389806 0.711551 0.568212 0.555688
C29   C     C_R   0.416229 0.857331 0.158916 0.206845
C30   C     C_R   0.336259 0.845190 0.178574 -0.015597
C31   C     C_1   0.338632 0.843442 0.226470 0.056876
C32   C     C_1   0.340501 0.839904 0.266329 0.009150
C33   C     C_R   0.308292 0.880448 0.087038 -0.095726
C34   C     C_R   0.338566 0.340271 0.292679 -0.067815
C35   C     C_R   0.371439 0.363610 0.594391 -0.020750
C36   C     C_R   0.457035 0.302752 0.625334 -0.168028
C37   C     C_R   0.438742 0.304273 0.669620 -0.153616
C38   C     C_R   0.334802 0.366523 0.684149 -0.022629
C39   C     C_R   0.244921 0.421899 0.653169 0.264369
C40   C     C_R   0.402431 0.382537 0.552386 0.603492
C41   C     C_R   0.263318 0.418324 0.607607 0.294260
C42   C     C_R   0.212143 0.408627 0.833825 -0.109137
C43   C     C_R   0.203046 0.382664 0.875727 -0.129256
C44   C     C_R   0.400319 0.276638 0.886545 0.197852
C45   C     C_R   0.319676 0.336031 0.198493 -0.039158
C46   C     C_R   0.407825 0.302084 0.843723 -0.074679
C47   C     C_R   0.313827 0.364483 0.817110 -0.009152
C48   C     C_1   0.319950 0.371517 0.770724 -0.002302
C49   C     C_1   0.324820 0.371782 0.731239 -0.016331
C50   C     C_R   0.295810 0.311782 0.901616 -0.008413
C51   C     C_1   0.762760 0.374887 0.612263 0.053613
C52   C     C_R   0.713358 0.407384 0.568435 0.579202
C53   C     C_R   0.907865 0.334000 0.720533 -0.097110
C54   C     C_R   0.927624 0.320622 0.766986 0.238568
C55   C     C_R   0.766035 0.294729 0.765592 0.242892
C56   C     C_1   0.305398 0.323433 0.150316 0.031899
C57   C     C_R   0.748896 0.307527 0.719325 0.002755
C58   C     C_R   0.818562 0.328213 0.697011 -0.014332
C59   C     C_R   0.855827 0.302493 0.789702 0.076377
C60   C     C_1   0.877519 0.292052 0.837510 0.014686
C61   C     C_1   0.792818 0.351392 0.650524 0.012295
C62   C     C_1   0.904836 0.282804 0.876968 0.036031
C63   C     C_1   0.376184 0.758683 0.613406 0.055257
C64   C     C_1   0.366053 0.364096 0.380785 -0.000649
C65   C     C_R   0.272109 0.906230 0.716378 -0.143893
C66   C     C_R   0.257371 0.927222 0.762300 -0.107127
C67   C     C_1   0.348741 0.352474 0.340900 -0.054361
C68   C     C_R   0.418669 0.757371 0.777530 -0.080800
C69   C     C_R   0.434599 0.735556 0.731399 0.247302
C70   C     C_R   0.359928 0.810609 0.700623 0.028184
C71   C     C_R   0.329992 0.852530 0.792888 -0.004051
C72   C     C_1   0.313005 0.875796 0.840045 -0.024053
C73   C     C_1   0.367910 0.786747 0.652823 0.032085
C74   C     C_1   0.293251 0.903706 0.878773 0.025968
C75   C     C_R   0.947799 0.273637 0.047410 0.542541
C76   C     C_R   0.240444 0.409205 0.270062 -0.131341
C77   C     C_R   0.275628 0.270150 0.065239 0.553651
C78   C     C_1   0.292767 0.304450 0.110660 0.065658
C79   C     C_R   0.263465 0.948891 0.047563 0.585339
C80   C     C_R   0.951615 0.269442 0.922235 0.545744
C81   C     C_R   0.277094 0.267931 0.940209 0.553806
C82   C     C_R   0.261566 0.950800 0.922923 0.551123
C83   C     C_R   0.229574 0.407015 0.223103 0.234626
C84   C     C_R   0.674620 0.420860 0.388058 0.014756
Cr1   Cr    Cr6+3 0.581000 0.584320 0.508140 1.069335
Cr2   Cr    Cr6+3 0.339110 0.576430 0.496080 1.101805
Cr3   Cr    Cr6+3 0.579910 0.339270 0.495810 1.041968
Cr4   Cr    Cr6+3 0.082090 0.079210 0.982490 1.125021
Cr5   Cr    Cr6+3 0.082460 0.324610 0.994920 1.101646
Cr6   Cr    Cr6+3 0.323630 0.087860 0.996130 1.202024
H1    H     H_    0.172306 0.464932 0.289270 0.177086
H2    H     H_    0.540418 0.259481 0.616207 0.159651
H3    H     H_    0.486589 0.270024 0.830377 0.180505
H4    H     H_    0.507269 0.260375 0.693170 0.160234
H5    H     H_    0.960988 0.350557 0.702902 0.131304
H6    H     H_    0.679106 0.303924 0.700886 0.152722
H7    H     H_    0.214012 0.963910 0.693060 0.128465
H8    H     H_    0.188722 0.001434 0.773948 0.140497
H9    H     H_    0.474609 0.700284 0.801490 0.166164
H10   H     H_    0.710151 0.514591 0.151773 0.177574
H11   H     H_    0.702355 0.553940 0.306308 0.129598
H12   H     H_    0.856713 0.173626 0.171736 0.175663
H13   H     H_    0.679548 0.573316 0.386865 0.131914
H14   H     H_    0.667949 0.268046 0.376115 0.146522
H15   H     H_    0.919086 0.093920 0.066206 0.370033
H16   H     H_    0.256968 0.626089 0.092087 0.343533
H17   H     H_    0.114694 0.833304 0.152854 0.401345
H18   H     H_    0.510242 0.839222 0.214750 0.325977
H19   H     H_    0.516173 0.749806 0.031968 0.336558
H20   H     H_    0.988057 0.465113 0.147454 0.392682
H21   H     H_    0.137362 0.473658 0.698165 0.322332
H22   H     H_    0.119984 0.464553 0.495768 0.364076
H23   H     H_    0.693396 0.248790 0.295532 0.183050
H24   H     H_    0.484502 0.323966 0.974887 0.332454
H25   H     H_    0.500852 0.211047 0.167045 0.332933
H26   H     H_    0.058360 0.337606 0.770031 0.319149
H27   H     H_    0.713024 0.268878 0.818007 0.345392
H28   H     H_    0.463176 0.515528 0.704672 0.344386
H29   H     H_    0.522999 0.198467 0.321266 0.319703
H30   H     H_    0.780893 0.468476 0.040986 0.342390
H31   H     H_    0.182805 0.843640 0.309555 0.150851
H32   H     H_    0.200561 0.790509 0.386066 0.146010
H33   H     H_    0.525325 0.758126 0.404371 0.127730
H34   H     H_    0.506624 0.810255 0.327482 0.121978
H35   H     H_    0.121931 0.412608 0.886344 0.178201
H36   H     H_    0.139193 0.457685 0.813337 0.148902
O1    O     O_R   0.688580 0.499770 0.460490 -0.501235
O2    O     O_R   0.346150 0.177650 0.050510 -0.455104
O3    O     O_R   0.314200 0.996600 0.036060 -0.442623
O4    O     O_R   0.480400 0.672610 0.462660 -0.526083
O5    O     O_R   0.168690 0.969990 0.933130 -0.490964
O6    O     O_R   0.991920 0.175870 0.937430 -0.493461
O7    O     O_R   0.974010 0.342590 0.941330 -0.499422
O8    O     O_R   0.182630 0.317940 0.955040 -0.516509
O9    O     O_R   0.347320 0.174720 0.953250 -0.419295
O10   O     O_R   0.315290 0.993890 0.945900 -0.474274
O11   O     O_3   0.162730 0.163890 0.991180 -0.300506
O12   O     O_R   0.348600 0.476260 0.536540 -0.428829
O13   O     O_R   0.315310 0.685650 0.451800 -0.511122
O14   O     O_R   0.346220 0.474990 0.446280 -0.485862
O15   O     O_R   0.492270 0.312460 0.441630 -0.519845
O16   O     O_R   0.669740 0.350480 0.455640 -0.495373
O17   O     O_R   0.691150 0.501150 0.557860 -0.459126
O18   O     O_R   0.482790 0.673890 0.552920 -0.478651
O19   O     O_R   0.317880 0.687030 0.549170 -0.481664
O20   O     O_3   0.947586 0.104921 0.097132 -0.634892
O21   O     O_2   0.052030 0.871912 0.063885 -0.187317
O22   O     O_2   0.212764 0.755538 0.022413 -0.269887
O23   O     O_R   0.494840 0.313840 0.539010 -0.519091
O24   O     O_3   0.178198 0.677619 0.089407 -0.441373
O25   O     O_3   0.183231 0.811107 0.172142 -0.632528
O26   O     O_3   0.504888 0.860008 0.183826 -0.596746
O27   O     O_2   0.508207 0.975721 0.090973 -0.181005
O28   O     O_2   0.621420 0.787166 0.109903 -0.164823
O29   O     O_3   0.513337 0.821919 0.032163 -0.484593
O30   O     O_2   0.021507 0.563374 0.229329 -0.257512
O31   O     O_2   0.116500 0.562022 0.165548 -0.206839
O32   O     O_3   0.054763 0.413602 0.164337 -0.516627
O33   O     O_3   0.139756 0.481991 0.666118 -0.622345
O34   O     O_R   0.672120 0.351750 0.545910 -0.501956
O35   O     O_2   0.052648 0.477507 0.581208 -0.205432
O36   O     O_2   0.125194 0.598048 0.566211 -0.254236
O37   O     O_3   0.180388 0.417163 0.516541 -0.538105
O38   O     O_2   0.550831 0.083403 0.914134 -0.191302
O39   O     O_2   0.613987 0.214468 0.904156 -0.285006
O40   O     O_3   0.507723 0.245047 0.974049 -0.472514
O41   O     O_3   0.511610 0.195807 0.199118 -0.599697
O42   O     O_3   0.015757 0.326013 0.790960 -0.705269
O43   O     O_3   0.692572 0.276545 0.785429 -0.690793
O44   O     O_2   0.609373 0.638766 0.683308 -0.228700
O45   O     O_3   0.500010 0.500010 0.500010 -0.291685
O46   O     O_2   0.620650 0.555514 0.752368 -0.284926
O47   O     O_3   0.500927 0.531860 0.683147 -0.534520
O48   O     O_3   0.528180 0.197045 0.288625 -0.644783
O49   O     O_3   0.777138 0.494544 0.073153 -0.635416
O50   O     O_R   0.167510 0.972920 0.030390 -0.428084
O51   O     O_R   0.990840 0.178580 0.027590 -0.489624
O52   O     O_R   0.972840 0.345510 0.038590 -0.477020
O53   O     O_R   0.181550 0.320660 0.045200 -0.473470
S1    S     S_3+6 0.169478 0.787870 0.068236 0.066324
S2    S     S_3+6 0.515297 0.864608 0.086854 0.128253
S3    S     S_3+6 0.101991 0.492018 0.195694 0.051107
S4    S     S_3+6 0.150711 0.481334 0.567849 0.075131
S5    S     S_3+6 0.522587 0.201743 0.919453 0.054352
S6    S     S_3+6 0.546518 0.613289 0.712989 0.008304

loop_
_geom_bond_atom_site_label_1
_geom_bond_atom_site_label_2
_ccdc_geom_bond_type
C52   O34   A    
C35   C41   A    
C8    C13   A    
C80   O6    A    
C55   C59   A    
C53   H5    S    
C2    C84   A    
C35   C36   A    
C51   C61   T    
Cr1   O17   S    
C12   O41   S    
Cr4   O51   S    
C39   C41   A    
C38   C49   S    
C77   C78   S    
C27   C33   A    
C12   C23   A    
O47   S6    S    
C1    C18   S    
Cr1   O45   S    
H16   O24   S    
C62   C80   S    
C36   C37   A    
C41   S4    S    
H29   O48   S    
C38   C39   A    
C27   C29   A    
C10   C17   A    
C65   C70   A    
C79   O3    A    
O28   S2    D    
C16   C84   S    
C56   C78   T    
Cr3   O34   S    
C76   C83   A    
C60   C62   T    
C18   C19   A    
C6    H11   S    
C75   O52   A    
H21   O33   S    
H30   O49   S    
H18   O26   S    
Cr6   O3    S    
O21   S1    D    
C66   C71   A    
H28   O47   S    
C8    C9    A    
C57   H6    S    
C40   O12   A    
C37   H4    S    
H24   O40   S    
C28   O18   A    
C29   C30   A    
C35   C40   S    
C44   S5    S    
C1    O13   A    
Cr2   O14   S    
H17   O25   S    
C36   H2    S    
C58   C61   S    
C7    C84   A    
Cr3   O45   S    
C59   C60   S    
O22   S1    D    
C7    H13   S    
C21   C22   A    
C20   H34   S    
C43   H35   S    
C45   C83   A    
C74   C82   S    
H19   O29   S    
Cr1   O18   S    
C44   C46   A    
C81   O9    A    
C54   C59   A    
C21   C32   S    
C52   O17   A    
Cr5   O7    S    
O37   S4    S    
C51   C52   S    
C64   C67   T    
C81   O8    A    
O40   S5    S    
C45   C56   S    
C72   C74   T    
C1    O4    A    
C3    H23   S    
C4    O15   A    
C23   O48   S    
O30   S3    D    
C68   C69   A    
C63   C73   T    
C25   C26   A    
C53   C54   A    
C80   O7    A    
Cr2   O45   S    
C83   S3    S    
O35   S4    D    
Cr2   O12   S    
C16   O16   A    
C27   S2    S    
C37   C38   A    
O38   S5    D    
Cr1   O4    S    
C4    O14   A    
Cr6   O10   S    
C26   C33   A    
C47   C48   S    
C2    H14   S    
O46   S6    D    
C23   C34   A    
C19   H33   S    
C70   C73   S    
C24   H32   S    
C28   O19   A    
C77   O53   A    
Cr5   O52   S    
Cr3   O15   S    
O32   S3    S    
C77   O2    A    
Cr2   O13   S    
C10   O20   S    
C9    C17   A    
C48   C49   T    
O27   S2    D    
Cr5   O11   S    
C55   C57   A    
Cr3   O23   S    
C18   C24   A    
Cr1   O1    S    
C42   C43   A    
Cr4   O6    S    
H25   O41   S    
Cr2   O19   S    
C69   S6    S    
Cr6   O11   S    
C22   H31   S    
O24   S1    S    
C44   C50   A    
C25   C30   A    
H22   O37   S    
C46   C47   A    
Cr5   O8    S    
C39   O33   S    
O39   S5    D    
C79   O50   A    
C31   C32   T    
C33   C79   S    
C54   O42   S    
C12   C45   A    
C3    C5    A    
H20   O32   S    
C34   C67   S    
C53   C58   A    
O29   S2    S    
C43   C50   A    
C6    C7    A    
C26   S1    S    
C4    C64   S    
Cr4   O50   S    
C25   O25   S    
C66   H8    S    
C19   C20   A    
C2    C3    A    
C8    H10   S    
C68   H9    S    
C65   H7    S    
C71   C72   S    
C29   O26   S    
Cr6   O9    S    
C11   C13   A    
C30   C31   S    
C57   C58   A    
C5    C6    A    
C46   H3    S    
C68   C71   A    
H15   O20   S    
O44   S6    D    
C40   O23   A    
C9    O49   S    
C11   H12   S    
C22   C24   A    
C42   C47   A    
Cr5   O53   S    
Cr3   O16   S    
C82   O10   A    
C69   C70   A    
C75   O51   A    
C16   O1    A    
Cr4   O11   S    
C5    C15   S    
C10   C11   A    
C42   H36   S    
C76   H1    S    
C28   C63   S    
H27   O43   S    
O36   S4    D    
C20   C21   A    
C65   C66   A    
O31   S3    D    
C17   C75   S    
Cr6   O2    S    
C14   C15   T    
H26   O42   S    
Cr4   O5    S    
C82   O5    A    
C13   C14   S    
C55   O43   S    
C50   C81   S    
C34   C76   A    
