data_mof_unit_40011.cif
_audit_creation_date              2013-03-05T16:02:22-0500
_audit_creation_method            fapswitch 2.2
_symmetry_space_group_name_H-M    P1
_symmetry_Int_Tables_number       1
_space_group_crystal_system       triclinic
_cell_length_a                    15.004092
_cell_length_b                    13.999735
_cell_length_c                    10.624883
_cell_angle_alpha                 89.925022
_cell_angle_beta                  89.885879
_cell_angle_gamma                 90.026703
_cell_volume                      2231.78527983

loop_
_atom_site_label
_atom_site_type_symbol
_atom_site_description
_atom_site_fract_x
_atom_site_fract_y
_atom_site_fract_z
_atom_type_partial_charge
O1    O     O_R   0.367860 0.580280 0.500020 -0.623084
O2    O     O_R   0.367860 0.419720 0.500020 -0.615853
C1    C     C_R   0.326454 0.500002 0.501078 0.954422
O3    O     O_R   0.500000 0.580270 0.314790 -0.632871
O4    O     O_R   0.500000 0.419730 0.314790 -0.634232
C2    C     C_R   0.496039 0.499995 0.257629 0.869608
Zn1   Zn    Zn3+2 0.500020 0.607200 0.499990 0.970843
Zn2   Zn    Zn3+2 0.500020 0.392800 0.499990 0.968544
O5    O     O_R   0.632160 0.580270 0.499960 -0.624984
O6    O     O_R   0.632160 0.419730 0.499960 -0.629402
O7    O     O_R   0.500030 0.580270 0.685200 -0.620781
O8    O     O_R   0.500030 0.419730 0.685200 -0.615232
C3    C     C_R   0.673593 0.500049 0.501178 0.891239
C4    C     C_R   0.492751 0.499806 0.741769 0.943859
C5    C     C_3   0.438185 0.587839 0.074241 -0.449789
C6    C     C_3   0.444708 0.407557 0.074024 -0.416429
H1    H     H_    0.472991 0.654901 0.101931 0.173471
H2    H     H_    0.475289 0.342234 0.115371 0.178307
H3    H     H_    0.371723 0.590187 0.120624 0.206342
H4    H     H_    0.373558 0.408764 0.104066 0.219258
C7    C     C_3   0.431110 0.585012 0.929543 0.161926
C8    C     C_3   0.452442 0.400305 0.930422 0.182263
H5    H     H_    0.461572 0.652625 0.894160 0.117389
H6    H     H_    0.504334 0.345497 0.909611 0.108772
H7    H     H_    0.623525 0.567927 0.107635 0.187762
H8    H     H_    0.625424 0.439772 0.097649 0.183294
H9    H     H_    0.611732 0.582094 0.895030 0.208433
H10   H     H_    0.629231 0.455790 0.884459 0.192402
C9    C     C_3   0.587690 0.504742 0.069098 -0.414629
C10   C     C_3   0.491696 0.499900 0.121334 0.058306
C11   C     C_3   0.487354 0.498839 0.878023 -0.064356
C12   C     C_3   0.584778 0.511518 0.925275 -0.526129
C13   C     C_R   0.815311 0.413664 0.509923 -0.245014
C14   C     C_R   0.769448 0.500318 0.508351 -0.098981
C15   C     C_R   0.814800 0.587377 0.515796 -0.188733
C16   C     C_R   0.907184 0.589186 0.524892 -0.019536
C17   C     C_R   0.953589 0.501178 0.520785 0.032938
C18   C     C_R   0.907288 0.413371 0.514933 0.138498
C19   C     C_R   0.954587 0.676410 0.532762 0.309259
C20   C     C_R   0.047508 0.674664 0.528859 -0.248992
C21   C     C_R   0.093112 0.587902 0.521383 0.046093
C22   C     C_R   0.046361 0.500704 0.519377 0.064705
C23   C     C_R   0.092515 0.412934 0.513263 0.124140
C24   C     C_R   0.046001 0.326375 0.511054 -0.180742
C25   C     C_R   0.953529 0.326597 0.511797 -0.199874
C26   C     C_R   0.185229 0.587024 0.515494 -0.153907
C27   C     C_R   0.230649 0.500086 0.507444 -0.054847
C28   C     C_R   0.184628 0.413280 0.507649 -0.193977
H11   H     H_    0.779650 0.346348 0.504965 0.163170
H12   H     H_    0.777632 0.653445 0.511763 0.206760
H13   H     H_    0.084293 0.741266 0.533296 0.189653
H14   H     H_    0.221389 0.654134 0.516784 0.169799
H15   H     H_    0.220255 0.345991 0.502400 0.166305
H16   H     H_    0.081086 0.258788 0.506969 0.161106
H17   H     H_    0.918177 0.259121 0.508066 0.160333
C29   C     C_R   0.557604 0.798180 0.422974 -0.037755
C30   C     C_R   0.557520 0.202034 0.422858 -0.057288
N1    N     N_R   0.500070 0.750030 0.500050 -0.109899
N2    N     N_R   0.500070 0.249970 0.500050 -0.111300
C31   C     C_R   0.442647 0.798038 0.577178 -0.054819
C32   C     C_R   0.442692 0.201811 0.577323 -0.046327
C33   C     C_R   0.441332 0.898702 0.579180 0.008228
C34   C     C_R   0.441352 0.101133 0.579263 0.004123
C35   C     C_R   0.500203 0.949395 0.500192 0.089402
C36   C     C_R   0.500193 0.050642 0.500196 0.089668
C37   C     C_R   0.559054 0.898884 0.421164 0.015841
C38   C     C_R   0.559000 0.101349 0.421097 0.015128
C39   C     C_R   0.382846 0.949623 0.657852 -0.188657
C40   C     C_R   0.382875 0.049993 0.657922 -0.175728
C41   C     C_R   0.617558 0.050408 0.342560 -0.187690
C42   C     C_R   0.617603 0.950036 0.342620 -0.167150
H18   H     H_    0.602258 0.757920 0.362979 0.133100
H19   H     H_    0.602110 0.242458 0.362766 0.131257
H20   H     H_    0.397924 0.757733 0.636984 0.177313
H21   H     H_    0.398011 0.242028 0.637264 0.182515
H22   H     H_    0.337108 0.911845 0.719292 0.167360
H23   H     H_    0.337171 0.087596 0.719426 0.180271
H24   H     H_    0.663300 0.088167 0.281112 0.149003
H25   H     H_    0.663383 0.912446 0.281227 0.155565
N3    N     N_R   0.337883 0.583335 0.887240 0.239235
O9    O     O_R   0.314148 0.635248 0.791397 -0.413629
O10   O     O_R   0.276473 0.538863 0.951353 -0.340792
N4    N     N_R   0.368516 0.363997 0.876402 0.230245
O11   O     O_R   0.330206 0.404128 0.780206 -0.361164
O12   O     O_R   0.337807 0.282213 0.915532 -0.403991
N5    N     N_R   0.910086 0.766756 0.546093 0.201804
O13   O     O_R   0.850281 0.778297 0.633634 -0.389198
O14   O     O_R   0.940491 0.841613 0.487280 -0.381495

loop_
_geom_bond_atom_site_label_1
_geom_bond_atom_site_label_2
_geom_bond_distance
_ccdc_geom_bond_type
C34   C36   1.408549 A    
C41   H24   1.083362 S    
C21   C22   1.407857 A    
C40   H23   1.083444 S    
C15   C16   1.389916 A    
C4    C11   1.449838 S    
C42   H25   1.083364 S    
C11   C12   1.556665 S    
C32   H21   1.082412 S    
C5    H3    1.111970 S    
C7    C11   1.570995 S    
C17   C18   1.413213 A    
N4    O11   1.300694 A    
C31   C33   1.409603 A    
C16   C17   1.416184 A    
C9    C12   1.531634 S    
Zn2   N2    1.999583 S    
O4    C2    1.278079 A    
O7    C4    1.280607 A    
N5    O14   1.301376 A    
C30   N2    1.365726 A    
C13   H11   1.084876 S    
C26   H14   1.084826 S    
Zn1   O5    2.018339 S    
C14   C15   1.398031 A    
C30   H19   1.082821 S    
C17   C22   1.392017 A    
C32   C34   1.409715 A    
O5    C3    1.283959 A    
C18   C25   1.399667 A    
C33   C35   1.408235 A    
C34   C40   1.405634 A    
C39   C40   1.405150 A    
C29   H18   1.082823 S    
C21   C26   1.383484 A    
C41   C42   1.405190 A    
C23   C28   1.383252 A    
Zn1   N1    1.999583 S    
C6    H4    1.113771 S    
C30   C38   1.409902 A    
O3    Zn1   2.004007 S    
H7    C9    1.113805 S    
C28   H15   1.084793 S    
N2    C32   1.365645 A    
C8    C11   1.575865 S    
C27   C28   1.397443 A    
H10   C12   1.114372 S    
N3    O10   1.302487 A    
C19   C20   1.394945 A    
N5    O13   1.301388 A    
C36   C38   1.408419 A    
O1    C1    1.283923 A    
C35   C37   1.408529 A    
Zn1   O7    2.003141 S    
C23   C24   1.398364 A    
C9    C10   1.543938 S    
C37   C42   1.405663 A    
Zn2   O8    2.004109 S    
C15   H12   1.081108 S    
C13   C14   1.395071 A    
C6    H2    1.113554 S    
O3    C2    1.279537 A    
C20   C21   1.396662 A    
N4    O12   1.301376 A    
O8    C4    1.277317 A    
C7    H5    1.115435 S    
C8    H6    1.115418 S    
C22   C23   1.412244 A    
C6    C10   1.556677 S    
C24   C25   1.387467 A    
C5    C10   1.552906 S    
C31   H20   1.081417 S    
C5    H1    1.114273 S    
C26   C27   1.397824 A    
C6    C8    1.533424 S    
C2    C10   1.449717 S    
H9    C12   1.114148 S    
O1    Zn1   2.018265 S    
C16   C19   1.415514 A    
O2    Zn2   2.018610 S    
N3    O9    1.300673 A    
O6    C3    1.284693 A    
O4    Zn2   2.003037 S    
C39   H22   1.083417 S    
C20   H13   1.084424 S    
C13   C18   1.381176 A    
C33   C39   1.405758 A    
C38   C41   1.405728 A    
C35   C36   1.417431 A    
O2    C1    1.284503 A    
C3    C14   1.440401 S    
C8    N4    1.475311 S    
C29   C37   1.410094 A    
C7    N3    1.470270 S    
C1    C27   1.438924 S    
C29   N1    1.365799 A    
C24   H16   1.083884 S    
C5    C7    1.541831 S    
C25   H17   1.083968 S    
H8    C9    1.113698 S    
Zn2   O6    2.017993 S    
C19   N5    1.437541 S    
N1    C31   1.365558 A    
