data_mof_unit_29102.cif
_audit_creation_date              2012-12-11T16:04:36-0500
_audit_creation_method            fapswitch 2.2
_symmetry_space_group_name_H-M    P1
_symmetry_Int_Tables_number       1
_space_group_crystal_system       triclinic
_cell_length_a                    19.962402
_cell_length_b                    20.051856
_cell_length_c                    20.034941
_cell_angle_alpha                 107.282203
_cell_angle_beta                  110.688609
_cell_angle_gamma                 110.710431
_cell_volume                      6147.64311512

loop_
_atom_site_label
_atom_site_type_symbol
_atom_type_description
_atom_site_fract_x
_atom_site_fract_y
_atom_site_fract_z
_atom_type_partial_charge
C1    C     C_R   0.066481 0.347715 0.083061 0.651550
C2    C     C_R   0.069157 0.500500 0.228087 -0.087117
C3    C     C_R   0.196397 0.735367 0.167443 -0.079932
C4    C     C_R   0.930323 0.460402 0.764549 -0.116571
C5    C     C_R   0.772033 0.429962 0.000270 -0.108072
C6    C     C_R   0.216694 0.741111 0.242951 0.011770
C7    C     C_R   0.724897 0.453865 0.955936 -0.136383
C8    C     C_R   0.999112 0.458643 0.230037 0.043043
C9    C     C_R   0.997584 0.741162 0.999291 -0.132973
C10   C     C_3   0.402868 0.346546 0.847535 0.632486
C11   C     C_3   0.385209 0.349054 0.917544 -0.312513
C12   C     C_R   0.999253 0.483806 0.756643 -0.132804
C13   C     C_1   0.279411 0.464375 0.960260 0.068324
C14   C     C_1   0.640023 0.423804 0.930711 0.013713
C15   C     C_3   0.392633 0.420699 0.851809 -0.411381
C16   C     C_R   0.773281 0.270434 0.840873 0.492626
C17   C     C_3   0.378205 0.424794 0.923592 -0.172940
C18   C     C_3   0.486841 0.477064 0.915501 0.360150
C19   C     C_3   0.496440 0.403254 0.909853 -0.327245
C20   C     C_3   0.472190 0.481569 0.986098 0.297614
C21   C     C_3   0.479940 0.406998 0.979587 0.380140
C22   C     C_1   0.320882 0.443681 0.939742 0.160673
C23   C     C_R   0.725422 0.268196 0.769534 -0.317917
C24   C     C_1   0.571210 0.406889 0.915268 0.240083
C25   C     C_3   0.906267 0.358403 0.468062 -0.472322
C26   C     C_3   0.056952 0.401888 0.538266 -0.610699
C27   C     C_3   0.062032 0.401640 0.462203 0.496526
C28   C     C_R   0.204102 0.537790 0.967864 -0.191630
C29   C     C_1   0.998237 0.436000 0.289613 0.025688
C30   C     C_3   0.992515 0.425833 0.544515 0.067023
C31   C     C_3   0.906494 0.357248 0.390207 0.282761
C32   C     C_3   0.996152 0.420444 0.414020 -0.095263
C33   C     C_3   0.015815 0.506240 0.468988 -0.582035
C34   C     C_R   0.232314 0.489681 0.987842 -0.097829
C35   C     C_3   0.020445 0.511134 0.548796 0.474535
C36   C     C_1   0.997218 0.423022 0.343328 0.159147
C37   C     C_1   0.991876 0.434176 0.618013 0.033379
C38   C     C_1   0.994398 0.453443 0.681174 -0.020894
C39   C     C_3   0.433623 0.932581 0.497731 0.338193
C40   C     C_R   0.769483 0.341029 0.772987 0.475111
C41   C     C_3   0.338696 0.990879 0.509129 0.877181
C42   C     C_3   0.419120 0.069964 0.588251 -0.644856
C43   C     C_1   0.641071 0.209299 0.709823 0.117526
C44   C     C_3   0.368865 0.953183 0.451540 -0.275341
C45   C     C_R   0.193924 0.664893 0.235617 -0.076327
C46   C     C_3   0.507412 0.009854 0.577061 -0.516877
C47   C     C_3   0.498738 0.085014 0.583311 -0.050589
C48   C     C_3   0.486007 0.096734 0.506702 0.325200
C49   C     C_3   0.414619 0.016164 0.427678 0.268955
C50   C     C_1   0.573246 0.155844 0.655165 0.107634
C51   C     C_1   0.303028 0.877457 0.377703 0.252180
C52   C     C_R   0.208334 0.471724 0.039860 0.492782
C53   C     C_1   0.259591 0.814340 0.316147 0.047524
C54   C     C_3   0.074752 0.089661 0.087414 0.426111
C55   C     C_3   0.914717 0.005311 0.980025 0.363181
C56   C     C_R   0.770463 0.498299 0.929517 0.530946
C57   C     C_3   0.910759 0.924637 0.974027 0.271801
C58   C     C_1   0.992601 0.811534 0.022126 -0.051295
C59   C     C_3   0.986859 0.078663 0.067714 -0.403207
C60   C     C_3   0.067263 0.006313 0.062843 -0.556736
C61   C     C_3   0.986262 0.944815 0.053394 -0.159826
C62   C     C_3   0.975126 0.978916 0.128874 0.701447
C63   C     C_3   0.967086 0.056609 0.131142 0.040856
C64   C     C_R   0.069685 0.541284 0.833760 0.541961
C65   C     C_1   0.988722 0.871258 0.039682 0.238835
C66   C     C_1   0.986509 0.151462 0.072580 0.285413
C67   C     C_R   0.929707 0.431810 0.158284 -0.108243
C68   C     C_1   0.988919 0.210093 0.069134 0.084531
C69   C     C_R   0.928375 0.274959 0.004097 -0.098505
C70   C     C_R   0.994963 0.276022 0.055609 -0.180777
C71   C     C_3   0.142725 0.356857 0.209838 0.227719
C72   C     C_3   0.224623 0.413917 0.290725 -0.571171
C73   C     C_3   0.679025 0.533922 0.860915 0.310809
C74   C     C_3   0.673485 0.578490 0.811457 -0.816933
C75   C     C_3   0.167763 0.869405 0.067563 0.168696
C76   C     C_3   0.259461 0.923240 0.098002 -0.693617
C77   C     C_3   0.508986 0.589597 0.896340 0.336184
C78   C     C_R   0.068899 0.734761 0.020496 0.557994
C79   C     C_3   0.577772 0.677087 0.933631 -0.845736
C80   C     C_3   0.903879 0.531173 0.527118 0.300510
C81   C     C_3   0.852471 0.515393 0.567535 -0.821468
C82   C     C_3   0.697820 0.137711 0.814104 0.238086
C83   C     C_3   0.707073 0.086495 0.855686 -0.804561
C84   C     C_3   0.248219 0.045371 0.504780 0.274290
C85   C     C_3   0.243859 0.112473 0.486265 -0.621009
C86   C     C_3   0.608911 0.102694 0.508584 0.284625
C87   C     C_3   0.662515 0.131783 0.473510 -0.738621
C88   C     C_3   0.452779 0.825233 0.437502 0.274169
C89   C     C_R   0.928710 0.664629 0.957900 -0.122420
C90   C     C_3   0.519969 0.833321 0.511738 -0.879550
C91   C     C_3   0.842804 0.802114 0.853430 0.322729
C92   C     C_3   0.853126 0.756550 0.785771 -0.773832
C93   C     C_3   0.872624 0.926034 0.165586 0.324942
C94   C     C_3   0.781246 0.861603 0.124300 -0.870476
C95   C     C_3   0.168842 0.586033 0.796167 0.219063
C96   C     C_3   0.260388 0.647598 0.833352 -0.815946
H1    H     H_    0.865814 0.388089 0.136175 0.116951
H2    H     H_    0.118870 0.444479 0.595328 0.223136
H3    H     H_    0.742651 0.866939 0.072726 0.253923
H4    H     H_    0.366536 0.442662 0.100071 0.381699
H5    H     H_    0.132159 0.591534 0.743749 0.149436
H6    H     H_    0.161328 0.524403 0.775841 0.083657
H7    H     H_    0.300051 0.643778 0.885589 0.244721
H8    H     H_    0.278816 0.634716 0.786918 0.220057
H9    H     H_    0.270784 0.710152 0.854795 0.275102
H10   H     H_    0.038231 0.340359 0.532845 0.208558
H11   H     H_    0.046368 0.340124 0.421892 0.140446
H12   H     H_    0.088276 0.549208 0.595298 0.135340
H13   H     H_    0.968694 0.519402 0.435883 0.164434
H14   H     H_    0.854879 0.365838 0.471330 0.165680
H15   H     H_    0.862762 0.376480 0.362758 0.067744
H16   H     H_    0.076103 0.554548 0.483128 0.249369
H17   H     H_    0.508954 0.001087 0.629821 0.199031
H18   H     H_    0.403094 0.887571 0.514412 0.152207
H19   H     H_    0.864377 0.648640 0.930754 0.173938
H20   H     H_    0.426949 0.065110 0.644078 0.259757
H21   H     H_    0.221749 0.568913 0.936543 0.195197
H22   H     H_    0.413857 0.124850 0.596582 0.206477
H23   H     H_    0.441828 0.990160 0.395651 0.134311
H24   H     H_    0.567565 0.018777 0.582547 0.179628
H25   H     H_    0.463459 0.140251 0.512495 0.176032
H26   H     H_    0.064950 0.983128 0.003872 0.282391
H27   H     H_    0.854995 0.999336 0.974259 0.004984
H28   H     H_    0.851662 0.888040 0.971289 0.036451
H29   H     H_    0.900072 0.036773 0.107495 0.093976
H30   H     H_    0.132356 0.518991 0.269844 0.138657
H31   H     H_    0.115424 0.124958 0.154181 0.194514
H32   H     H_    0.123864 0.011430 0.107173 0.192984
H33   H     H_    0.864291 0.234867 0.983783 0.189402
H34   H     H_    0.202961 0.648977 0.283770 0.115519
H35   H     H_    0.140566 0.298363 0.184738 0.174676
H36   H     H_    0.090777 0.349190 0.221748 0.114664
H37   H     H_    0.232629 0.475189 0.317424 0.240063
H38   H     H_    0.225024 0.389443 0.333751 0.217963
H39   H     H_    0.277648 0.419331 0.281571 0.270761
H40   H     H_    0.692952 0.573784 0.922227 0.101016
H41   H     H_    0.211338 0.785783 0.155580 0.176091
H42   H     H_    0.617331 0.477249 0.827331 0.161383
H43   H     H_    0.664355 0.542203 0.751600 0.296584
H44   H     H_    0.619866 0.587889 0.800699 0.212705
H45   H     H_    0.731589 0.638448 0.844766 0.210587
H46   H     H_    0.158453 0.888222 0.120209 0.152030
H47   H     H_    0.130855 0.879212 0.019040 0.135109
H48   H     H_    0.271716 0.906286 0.047374 0.256843
H49   H     H_    0.276247 0.987898 0.121935 0.211464
H50   H     H_    0.298819 0.916115 0.147486 0.266636
H51   H     H_    0.235314 0.159290 0.659196 0.367382
H52   H     H_    0.750510 0.385466 0.019249 0.162801
H53   H     H_    0.524482 0.385188 0.162578 0.386099
H54   H     H_    0.644195 0.597838 0.095003 0.360787
H55   H     H_    0.465410 0.591145 0.918682 0.124833
H56   H     H_    0.474503 0.562857 0.828964 0.100149
H57   H     H_    0.623984 0.679069 0.914562 0.240019
H58   H     H_    0.550484 0.712052 0.913560 0.212686
H59   H     H_    0.610052 0.705986 0.001058 0.296284
H60   H     H_    0.828445 0.271515 0.207634 0.331835
H61   H     H_    0.268241 0.591303 0.583852 0.383346
H62   H     H_    0.871870 0.477133 0.467261 0.065203
H63   H     H_    0.342162 0.296312 0.918268 0.218856
H64   H     H_    0.905071 0.582092 0.515129 0.138335
H65   H     H_    0.881625 0.570383 0.626398 0.269095
H66   H     H_    0.788336 0.500288 0.527215 0.221226
H67   H     H_    0.848591 0.463656 0.578989 0.250642
H68   H     H_    0.716221 0.123083 0.767548 0.090957
H69   H     H_    0.630995 0.119489 0.783658 0.127761
H70   H     H_    0.693251 0.101903 0.905360 0.261170
H71   H     H_    0.662867 0.020935 0.810612 0.221853
H72   H     H_    0.771408 0.097320 0.881270 0.268972
H73   H     H_    0.283997 0.072285 0.572089 0.132342
H74   H     H_    0.867105 0.416907 0.715740 0.197158
H75   H     H_    0.183566 0.997542 0.481265 0.180515
H76   H     H_    0.208574 0.088523 0.419448 0.315601
H77   H     H_    0.211797 0.135903 0.513405 0.204237
H78   H     H_    0.307824 0.163431 0.512694 0.258721
H79   H     H_    0.322968 0.862683 0.611120 0.392004
H80   H     H_    0.370428 0.084933 0.276151 0.374092
H81   H     H_    0.572817 0.035433 0.474378 0.126814
H82   H     H_    0.651704 0.123808 0.573446 0.093340
H83   H     H_    0.702059 0.199228 0.507577 0.269066
H84   H     H_    0.703577 0.105661 0.478372 0.200301
H85   H     H_    0.355821 0.426104 0.799427 0.186581
H86   H     H_    0.622121 0.111982 0.408352 0.268832
H87   H     H_    0.458617 0.797812 0.384414 0.162614
H88   H     H_    0.389197 0.782221 0.422113 0.083727
H89   H     H_    0.513403 0.856025 0.565418 0.244349
H90   H     H_    0.513780 0.772962 0.498828 0.242612
H91   H     H_    0.582824 0.876261 0.526022 0.267564
H92   H     H_    0.261484 0.253515 0.122604 0.405783
H93   H     H_    0.673809 0.350799 0.587363 0.387665
H94   H     H_    0.978723 0.014277 0.828671 0.383943
H95   H     H_    0.784690 0.803770 0.825743 0.121461
H96   H     H_    0.892959 0.298894 0.466215 0.228738
H97   H     H_    0.837302 0.768433 0.888235 0.052472
H98   H     H_    0.910416 0.753463 0.812285 0.249467
H99   H     H_    0.798373 0.693667 0.745396 0.206405
H100  H     H_    0.858064 0.788213 0.749181 0.273450
H101  H     H_    0.142379 0.243674 0.327298 0.382662
H102  H     H_    0.190183 0.043854 0.251647 0.397105
H103  H     H_    0.877526 0.985800 0.189038 0.156428
H104  H     H_    0.908163 0.917941 0.216192 0.193538
H105  H     H_    0.773021 0.799914 0.100810 0.273369
H106  H     H_    0.759684 0.869771 0.168603 0.252742
N1    N     N_R   0.043550 0.386750 0.043430 -0.116233
N2    N     N_R   0.843320 0.343600 0.886740 -0.117921
N3    N     N_R   0.156920 0.543410 0.000250 -0.074225
N4    N     N_R   0.843210 0.386780 0.843560 -0.144382
N5    N     N_R   0.157030 0.500230 0.043430 -0.109618
N6    N     N_R   0.043140 0.543420 0.886740 -0.092202
N7    N     N_R   0.957090 0.343580 0.000250 -0.086915
N8    N     N_R   0.156790 0.613220 0.156440 -0.045597
N9    N     N_R   0.842970 0.499770 0.956570 -0.089518
N10   N     N_R   0.956860 0.456580 0.113260 -0.051546
N11   N     N_R   0.042910 0.656420 0.999750 -0.095373
N12   N     N_R   0.956450 0.613250 0.956570 -0.066322
N13   N     N_R   0.043310 0.499740 0.156440 -0.058250
N14   N     N_R   0.156680 0.656400 0.113260 -0.053133
N15   N     N_R   0.843080 0.456590 0.999750 -0.085701
N16   N     N_R   0.956690 0.500260 0.843560 -0.065923
Ni1   Ni    Ni4+2 0.099270 0.499990 0.099040 0.288785
Ni2   Ni    Ni4+2 0.900730 0.500010 0.900960 0.307588
Ni3   Ni    Ni4+2 0.900990 0.400990 0.000000 0.223343
Ni4   Ni    Ni4+2 0.099010 0.599010 0.000000 0.288978
O1    O     O_3   0.141325 0.390550 0.157066 -0.595541
O2    O     O_2   0.476881 0.619134 0.066146 -0.261107
O3    O     O_2   0.526829 0.558359 0.147050 -0.162894
O4    O     O_3   0.621377 0.634319 0.101482 -0.481407
O5    O     O_3   0.544987 0.544401 0.917616 -0.631065
O6    O     O_2   0.909792 0.216182 0.346499 -0.216484
O7    O     O_2   0.773738 0.204687 0.289392 -0.256310
O8    O     O_3   0.866358 0.252786 0.230453 -0.475898
O9    O     O_2   0.218979 0.430960 0.518293 -0.264565
O10   O     O_2   0.172061 0.478510 0.421804 -0.329424
O11   O     O_3   0.209864 0.560380 0.570243 -0.574444
O12   O     O_3   0.741213 0.514352 0.865707 -0.597168
O13   O     O_3   0.986843 0.555354 0.581070 -0.627800
O14   O     O_3   0.746693 0.221122 0.873132 -0.635710
O15   O     O_3   0.282460 0.010581 0.463962 -0.599660
O16   O     O_2   0.241905 0.944939 0.576654 -0.274921
O17   O     O_2   0.223838 0.835673 0.464423 -0.305575
O18   O     O_3   0.356619 0.909646 0.607076 -0.589410
O19   O     O_2   0.267200 0.959349 0.290256 -0.301502
O20   O     O_2   0.337001 0.101075 0.394241 -0.268497
O21   O     O_3   0.401462 0.065284 0.307631 -0.512992
O22   O     O_3   0.558210 0.137618 0.502763 -0.571749
O23   O     O_3   0.146770 0.787409 0.035543 -0.640231
O24   O     O_3   0.464184 0.902383 0.448652 -0.663807
O25   O     O_2   0.163821 0.102051 0.009755 -0.244955
O26   O     O_2   0.090503 0.177093 0.003498 -0.208886
O27   O     O_3   0.221819 0.232359 0.140241 -0.521715
O28   O     O_2   0.641467 0.362903 0.710159 -0.255668
O29   O     O_2   0.778431 0.468410 0.747938 -0.290272
O30   O     O_3   0.701742 0.328756 0.618194 -0.546929
O31   O     O_2   0.829106 0.948683 0.817975 -0.295367
O32   O     O_2   0.916838 0.095876 0.899913 -0.291311
O33   O     O_3   0.988273 0.011498 0.879507 -0.410808
O34   O     O_2   0.391411 0.278729 0.703580 -0.295210
O35   O     O_3   0.912719 0.882004 0.904274 -0.554039
O36   O     O_2   0.991533 0.204607 0.220652 -0.277769
O37   O     O_2   0.991345 0.121071 0.285932 -0.199550
O38   O     O_3   0.122496 0.193484 0.278673 -0.473581
O39   O     O_2   0.052433 0.027293 0.294651 -0.234311
O40   O     O_2   0.061273 0.920687 0.209093 -0.300314
O41   O     O_3   0.155560 0.069304 0.246007 -0.496928
O42   O     O_3   0.898129 0.913330 0.107894 -0.704790
O43   O     O_2   0.281156 0.508600 0.196567 -0.244992
O44   O     O_2   0.232101 0.370645 0.094428 -0.272027
O45   O     O_2   0.385469 0.200213 0.777079 -0.258180
O46   O     O_3   0.366399 0.492308 0.128492 -0.445209
O47   O     O_3   0.145401 0.604365 0.854829 -0.630239
O48   O     O_3   0.255171 0.210796 0.706266 -0.507732
O49   O     O_2   0.533127 0.314597 0.027288 -0.249151
O50   O     O_2   0.624415 0.462708 0.113571 -0.286240
O51   O     O_3   0.489767 0.390937 0.117657 -0.482736
S1    S     S_3+6 0.359750 0.256632 0.756212 -0.013240
S2    S     S_3+6 0.911275 0.017071 0.892366 0.033982
S3    S     S_3+6 0.017853 0.145158 0.231332 0.024192
S4    S     S_3+6 0.061688 0.998688 0.221990 0.005557
S5    S     S_3+6 0.270977 0.459163 0.116969 0.011950
S6    S     S_3+6 0.535395 0.393501 0.061471 0.019205
S7    S     S_3+6 0.523521 0.575024 0.078032 0.055374
S8    S     S_3+6 0.863213 0.254432 0.313667 -0.001589
S9    S     S_3+6 0.168356 0.468426 0.491984 -0.061957
S10   S     S_3+6 0.286531 0.918051 0.538161 -0.066480
S11   S     S_3+6 0.350451 0.034904 0.353822 -0.020404
S12   S     S_3+6 0.136149 0.149494 0.055532 0.024427
S13   S     S_3+6 0.722245 0.378671 0.713302 -0.034042

loop_
_geom_bond_atom_site_label_1
_geom_bond_atom_site_label_2
_ccdc_geom_bond_type
C44   C49   S    
C25   C31   S    
C15   C18   S    
C66   C68   T    
C96   H9    S    
C89   H19   S    
O45   S1    D    
C93   C94   S    
H54   O4    S    
C6    C45   A    
C55   C59   S    
N2    Ni3   S    
C52   N5    A    
N7    Ni3   S    
C81   H66   S    
O48   S1    S    
O9    S9    D    
C95   C96   S    
C83   H71   S    
O25   S12   D    
C84   H75   S    
O34   S1    D    
C77   H55   S    
C87   H86   S    
C11   H63   S    
C41   O15   S    
N11   N12   A    
O44   S5    D    
C54   S12   S    
N9    Ni2   S    
C64   N6    A    
C29   C36   T    
C26   C27   S    
C62   C63   S    
C4    H74   S    
C30   C35   S    
H93   O30   S    
C8    C29   S    
C32   C36   S    
C19   C21   S    
C10   S1    S    
C18   C19   S    
H51   O48   S    
C92   H98   S    
C10   C15   S    
C21   S6    S    
C59   C66   S    
H102  O41   S    
C91   H97   S    
O43   S5    D    
C80   H64   S    
C90   H91   S    
C16   O14   S    
N6    Ni4   S    
H79   O18   S    
O2    S7    D    
O46   S5    S    
N3    Ni4   S    
C86   H82   S    
C78   O23   S    
C23   C43   S    
C78   N11   A    
C9    C58   S    
C41   C42   S    
C92   H100  S    
C14   C24   T    
C57   C61   S    
C12   C38   S    
O16   S10   D    
O39   S4    D    
C87   H84   S    
C72   H38   S    
C7    C14   S    
C5    N15   A    
C84   O15   S    
O18   S10   S    
C23   C40   A    
C85   H77   S    
H92   O27   S    
N10   N13   A    
C35   H12   S    
C62   S4    S    
C27   H11   S    
C4    C12   A    
C75   O23   S    
C95   H6    S    
C48   O22   S    
C54   C59   S    
C93   O42   S    
C92   H99   S    
O49   S6    D    
O11   S9    S    
C71   H36   S    
C28   C34   A    
C2    N13   A    
N3    N5    A    
C5    H52   S    
O27   S12   S    
N6    N16   A    
C28   N3    A    
C81   H67   S    
C80   O13   S    
C56   O12   S    
C69   C70   A    
C81   H65   S    
C7    C56   A    
C27   S9    S    
H101  O38   S    
C77   H56   S    
O20   S11   D    
C42   C47   S    
C31   S8    S    
C95   O47   S    
C47   C50   S    
C40   N4    A    
N10   Ni3   S    
C77   C79   S    
C73   C74   S    
N15   Ni3   S    
N9    N15   A    
C83   H70   S    
C55   H27   S    
C85   H76   S    
C71   O1    S    
O36   S3    D    
O37   S3    D    
C93   H104  S    
C60   H32   S    
C84   C85   S    
C56   N9    A    
C84   H73   S    
O31   S2    D    
C62   O42   S    
C48   H25   S    
C5    C7    A    
C86   O22   S    
C86   C87   S    
C42   H22   S    
C88   H87   S    
C54   C60   S    
C90   H90   S    
N4    Ni2   S    
C3    N14   A    
O41   S4    S    
O40   S4    D    
C74   H44   S    
C11   C21   S    
C86   H81   S    
N8    Ni1   S    
C30   C37   S    
O33   S2    S    
C60   C61   S    
C51   C53   T    
H53   O51   S    
C28   H21   S    
C75   C76   S    
C55   C57   S    
C37   C38   T    
C91   O35   S    
C75   H46   S    
N13   Ni1   S    
O21   S11   S    
C79   H57   S    
C39   O24   S    
N11   Ni4   S    
C58   C65   T    
C80   H62   S    
C47   C48   S    
O8    S8    S    
C73   H40   S    
O7    S8    D    
C10   C19   S    
C39   H18   S    
C85   H78   S    
O28   S13   D    
C54   H31   S    
C46   H24   S    
C67   N10   A    
C94   H105  S    
O4    S7    S    
C20   C21   S    
C1    C70   A    
C60   H26   S    
C73   O12   S    
C63   H29   S    
C75   H47   S    
C25   H14   S    
C26   H2    S    
C39   C46   S    
C94   H106  S    
C76   H48   S    
C44   C51   S    
C42   H20   S    
C48   C49   S    
O29   S13   D    
C74   H45   S    
C88   C90   S    
C76   H49   S    
C26   C30   S    
O50   S6    D    
C4    N16   A    
C10   C11   S    
H80   O21   S    
H94   O33   S    
C41   C44   S    
C59   C63   S    
C96   H7    S    
C33   H13   S    
C6    C53   S    
C9    C89   A    
C1    N1    A    
C34   C52   A    
C2    H30   S    
C91   C92   S    
C52   S5    S    
C83   H72   S    
C33   H16   S    
C25   C30   S    
C15   C17   S    
C12   C64   A    
C46   C47   S    
C11   C17   S    
C46   H17   S    
C93   H103  S    
C27   C32   S    
N5    Ni1   S    
C17   C20   S    
C31   C32   S    
C2    C8    A    
C20   S7    S    
C26   H10   S    
N2    N4    A    
C80   C81   S    
C41   S10   S    
C25   H96   S    
O30   S13   S    
O32   S2    D    
C43   C50   T    
C77   O5    S    
C39   C44   S    
C90   H89   S    
C16   C23   A    
C88   O24   S    
H4    O46   S    
C74   H43   S    
C49   S11   S    
C55   S2    S    
C45   N8    A    
O6    S8    D    
N1    Ni1   S    
N16   Ni2   S    
C1    O1    S    
O10   S9    D    
C32   C33   S    
C96   H8    S    
C19   C24   S    
C57   O35   S    
C64   O47   S    
C8    C67   A    
C13   C34   S    
N12   Ni2   S    
C79   H58   S    
H61   O11   S    
C72   H37   S    
O26   S12   D    
C72   H39   S    
O17   S10   D    
C94   H3    S    
N8    N14   A    
C3    H41   S    
C15   H85   S    
C40   S13   S    
C33   C35   S    
O3    S7    D    
C13   C22   T    
O51   S6    S    
C69   N7    A    
C18   C20   S    
C9    C78   A    
C91   H95   S    
C61   C62   S    
N14   Ni4   S    
C87   H83   S    
C88   H88   S    
C18   O5    S    
C67   H1    S    
C79   H59   S    
O38   S3    S    
C82   H68   S    
C61   C65   S    
C63   S3    S    
C45   H34   S    
C35   O13   S    
C17   C22   S    
C71   H35   S    
C69   H33   S    
C82   C83   S    
C73   H42   S    
C3    C6    A    
C76   H50   S    
C68   C70   S    
C31   H15   S    
C49   H23   S    
N1    N7    A    
O19   S11   D    
C71   C72   S    
C82   O14   S    
C16   N2    A    
H60   O8    S    
C95   H5    S    
C89   N12   A    
C57   H28   S    
C82   H69   S    
