data_mof_unit_40719.cif
_audit_creation_date              2012-12-10T19:08:05-0500
_audit_creation_method            fapswitch 2.2
_symmetry_space_group_name_H-M    P1
_symmetry_Int_Tables_number       1
_space_group_crystal_system       triclinic
_cell_length_a                    9.04874
_cell_length_b                    10.854802
_cell_length_c                    9.570491
_cell_angle_alpha                 89.182408
_cell_angle_beta                  90.366291
_cell_angle_gamma                 90.599966
_cell_volume                      939.869894983

loop_
_atom_site_label
_atom_site_type_symbol
_atom_type_description
_atom_site_fract_x
_atom_site_fract_y
_atom_site_fract_z
_atom_type_partial_charge
C1    C     C_R   0.499278 0.262624 0.500688 0.783999
C2    C     C_R   0.541607 0.937524 0.376087 -0.206685
C3    C     C_R   0.504005 0.869410 0.497276 -0.093194
C4    C     C_R   0.466991 0.934248 0.615247 0.012811
C5    C     C_3   0.408972 0.917368 0.760326 0.073711
C6    C     C_3   0.407295 0.061154 0.764321 0.431812
C7    C     C_R   0.596605 0.573818 0.073167 0.120696
C8    C     C_R   0.393707 0.437965 0.074158 0.327750
C9    C     C_R   0.394675 0.438277 0.925218 -0.137048
C10   C     C_R   0.597746 0.572429 0.925667 0.160972
C11   C     C_3   0.762416 0.567372 0.918584 -0.552605
C12   C     C_R   0.220800 0.500051 0.499720 0.846270
C13   C     C_3   0.762196 0.568742 0.078034 0.325507
C14   C     C_R   0.501623 0.737041 0.499077 0.804720
C15   C     C_R   0.779210 0.500218 0.500286 0.850600
C16   C     C_1   0.065630 0.500264 0.499637 -0.190249
C17   C     C_1   0.934389 0.500320 0.500382 -0.182117
C18   C     C_R   0.465888 0.058779 0.617373 0.001845
C19   C     C_R   0.502055 0.129740 0.500172 -0.105614
C20   C     C_R   0.541042 0.066795 0.377585 -0.204771
Cu1   Cu    Cu3+1 0.499990 0.499980 0.640670 0.942881
Cu2   Cu    Cu3+1 0.500010 0.500020 0.359330 0.972060
H1    H     H_    0.570707 0.116820 0.282930 0.163355
H2    H     H_    0.810492 0.649253 0.864613 0.197125
H3    H     H_    0.801254 0.479951 0.123507 0.110468
H4    H     H_    0.570805 0.891576 0.280708 0.162836
H5    H     H_    0.490380 0.873124 0.831856 0.109274
H6    H     H_    0.312479 0.385586 0.868684 0.146778
H7    H     H_    0.801666 0.478284 0.877413 0.186251
N1    N     N_R   0.500920 0.500930 0.147930 -0.225427
N2    N     N_R   0.500930 0.500890 0.852020 -0.182688
O1    O     O_R   0.500000 0.319640 0.618810 -0.591154
O2    O     O_R   0.500020 0.319680 0.381230 -0.577380
O3    O     O_R   0.288380 0.499980 0.618770 -0.581770
O4    O     O_R   0.288400 0.500020 0.381190 -0.540341
O5    O     O_R   0.499980 0.680320 0.618770 -0.565345
O6    O     O_R   0.500000 0.680360 0.381190 -0.576259
O7    O     O_R   0.711600 0.499980 0.618810 -0.584704
O8    O     O_R   0.711620 0.500020 0.381230 -0.567918
O9    O     O_3   0.833134 0.670348 0.145026 -0.547341
C21   C     C_3   0.799366 0.787710 0.087398 -0.290432
H8    H     H_    0.681541 0.797961 0.056685 0.141681
H9    H     H_    0.872751 0.809599 0.997756 0.153910
H10   H     H_    0.822949 0.857887 0.167858 0.177224
N3    N     N_2   0.264924 0.855256 0.768068 -0.398679
H11   H     H_    0.217174 0.854344 0.865523 0.255090
C22   C     C_3   0.162085 0.857312 0.650945 -0.594919
H12   H     H_    0.057187 0.810707 0.681873 0.198319
H13   H     H_    0.207727 0.806309 0.561763 0.215522
H14   H     H_    0.136981 0.953024 0.617486 0.236940
N4    N     N_2   0.260563 0.114838 0.769276 -0.433652
H15   H     H_    0.249497 0.198434 0.717871 0.243664
C23   C     C_3   0.179811 0.104670 0.899313 -0.733316
H16   H     H_    0.072994 0.056479 0.880156 0.239243
H17   H     H_    0.155588 0.197597 0.938580 0.214142
H18   H     H_    0.242591 0.053128 0.981027 0.237379
N5    N     N_2   0.509280 0.115145 0.866561 -0.438115
H19   H     H_    0.485529 0.204755 0.891007 0.271611
C24   C     C_3   0.667047 0.096032 0.852664 -0.757401
H20   H     H_    0.724664 0.129393 0.947896 0.225218
H21   H     H_    0.710245 0.148828 0.761145 0.243869
H22   H     H_    0.692707 0.997068 0.841311 0.216480
N6    N     N_2   0.284931 0.367555 0.146512 -0.377799
H23   H     H_    0.295259 0.274200 0.131684 0.229962
C25   C     C_3   0.134691 0.409734 0.126405 -0.669924
H24   H     H_    0.126213 0.508792 0.152660 0.269019
H25   H     H_    0.059536 0.356104 0.196098 0.218136
H26   H     H_    0.097805 0.397263 0.016621 0.187721

loop_
_geom_bond_atom_site_label_1
_geom_bond_atom_site_label_2
_ccdc_geom_bond_type
C7    C10   A    
N4    C23   S    
N6    C25   S    
C15   O7    A    
C6    N4    S    
Cu1   N2    S    
C21   H8    S    
C21   H9    S    
C19   C20   A    
C20   H1    S    
C25   H26   S    
C8    N1    A    
N3    C22   S    
C2    C3    A    
C4    C18   A    
C24   H20   S    
C22   H13   S    
Cu1   O5    S    
C23   H16   S    
N6    H23   S    
C12   O4    A    
C14   O6    A    
Cu2   O4    S    
C11   C13   S    
C6    N5    S    
C15   O8    A    
N5    H19   S    
C4    C5    S    
C3    C14   S    
C5    N3    S    
Cu2   O8    S    
Cu1   Cu2   S    
O9    C21   S    
Cu1   O1    S    
C18   C19   A    
C22   H14   S    
C23   H17   S    
C14   O5    A    
C5    C6    S    
C6    C18   S    
C21   H10   S    
C1    C19   S    
N5    C24   S    
C24   H21   S    
C10   C11   S    
C9    N2    A    
C8    N6    S    
C1    O2    A    
C3    C4    A    
C13   O9    S    
C22   H12   S    
N3    H11   S    
C11   H2    S    
C7    C13   S    
N4    H15   S    
C11   H7    S    
C2    H4    S    
C25   H24   S    
C23   H18   S    
C15   C17   S    
Cu2   O2    S    
C16   C17   T    
C24   H22   S    
Cu1   O3    S    
Cu2   N1    S    
C12   O3    A    
C25   H25   S    
C5    H5    S    
Cu2   O6    S    
C2    C20   A    
C10   N2    A    
C1    O1    A    
Cu1   O7    S    
C12   C16   S    
C9    H6    S    
C8    C9    A    
C13   H3    S    
C7    N1    A    
