data_mof_unit_22851.cif
_audit_creation_date              2012-12-10T16:44:17-0500
_audit_creation_method            fapswitch 2.2
_symmetry_space_group_name_H-M    P1
_symmetry_Int_Tables_number       1
_space_group_crystal_system       triclinic
_cell_length_a                    7.445965
_cell_length_b                    8.728425
_cell_length_c                    13.491162
_cell_angle_alpha                 94.220503
_cell_angle_beta                  79.090753
_cell_angle_gamma                 101.948843
_cell_volume                      841.770631435

loop_
_atom_site_label
_atom_site_type_symbol
_atom_type_description
_atom_site_fract_x
_atom_site_fract_y
_atom_site_fract_z
_atom_type_partial_charge
C1    C     C_R   0.541812 0.799671 0.505756 0.936261
C2    C     C_R   0.407863 0.512243 0.980194 0.053237
C3    C     C_R   0.475595 0.523407 0.874323 -0.076841
C4    C     C_R   0.539199 0.565733 0.045517 0.103149
C5    C     C_R   0.702621 0.677103 0.011302 0.069303
C6    C     C_R   0.752836 0.704667 0.908987 -0.186195
C7    C     C_R   0.666526 0.594831 0.843506 0.017506
C8    C     C_R   0.524315 0.499261 0.138378 -0.159743
C9    C     C_R   0.798347 0.683977 0.173236 -0.147697
C10   C     C_R   0.351323 0.463516 0.804918 -0.081459
C11   C     C_2   0.563901 0.966202 0.503168 -0.491157
C12   C     C_R   0.402508 0.485786 0.694087 0.834040
C13   C     C_2   0.419603 0.039639 0.525858 0.259826
C14   C     C_R   0.452808 0.201624 0.504099 0.765465
C15   C     C_R   0.598623 0.515982 0.307531 0.773729
C16   C     C_R   0.827373 0.740296 0.076521 -0.172550
C17   C     C_R   0.650207 0.559716 0.202868 -0.072387
C18   C     C_R   0.172565 0.380259 0.842569 -0.070765
C19   C     C_R   0.105454 0.372780 0.945619 -0.238275
C20   C     C_R   0.216282 0.445161 0.015167 0.019854
Cu1   Cu    Cu3+1 0.321300 0.483160 0.488710 1.054306
Cu2   Cu    Cu3+1 0.678700 0.516840 0.511290 1.015581
H1    H     H_    0.890810 0.737119 0.224726 0.192189
H2    H     H_    0.012082 0.616717 0.578486 0.322823
H3    H     H_    0.988400 0.381910 0.421134 0.223603
H4    H     H_    0.888814 0.775812 0.881695 0.207326
H5    H     H_    0.950135 0.828784 0.051610 0.152290
H6    H     H_    0.415078 0.399228 0.161551 0.142332
H7    H     H_    0.080375 0.324816 0.791697 0.197357
H8    H     H_    0.961300 0.317016 0.971031 0.132239
H9    H     H_    0.703471 0.029972 0.473721 0.152005
N1    N     N_2   0.947230 0.542220 0.528320 -0.174626
N2    N     N_2   0.052770 0.457780 0.471680 -0.212127
O1    O     O_R   0.383920 0.714220 0.492660 -0.522000
O2    O     O_R   0.685730 0.742660 0.511730 -0.545794
O3    O     O_R   0.275440 0.478800 0.636790 -0.528138
O4    O     O_R   0.577250 0.507240 0.655860 -0.617204
O5    O     O_R   0.314270 0.257340 0.488270 -0.559210
O6    O     O_R   0.616080 0.285780 0.507340 -0.630314
O7    O     O_R   0.422750 0.492760 0.344140 -0.563769
O8    O     O_R   0.724560 0.521200 0.363210 -0.585651
S1    S     S_3+6 0.193141 0.957291 0.590414 0.007530
O9    O     O_2   0.078759 0.880458 0.513193 -0.311193
O10   O     O_2   0.203186 0.839622 0.664037 -0.267010
O11   O     O_3   0.091091 0.098565 0.654856 -0.558250
H10   H     H_    0.985681 0.105029 0.621257 0.364066
C21   C     C_2   0.117986 0.461514 0.120718 0.319405
H11   H     H_    0.993066 0.376812 0.148887 0.062044
O12   O     O_2   0.168195 0.573936 0.175290 -0.531596
C22   C     C_2   0.795281 0.503703 0.780198 0.401244
H12   H     H_    0.745883 0.382382 0.757996 0.068660
O13   O     O_2   0.959374 0.562493 0.754191 -0.543417

loop_
_geom_bond_atom_site_label_1
_geom_bond_atom_site_label_2
_ccdc_geom_bond_type
C22   O13   D    
H2    N1    S    
C6    C7    A    
Cu2   O4    S    
C14   O5    A    
C2    C4    A    
C8    C17   A    
C1    C11   S    
C4    C8    A    
N1    N2    D    
C16   H5    S    
C22   H12   S    
S1    O10   D    
C11   H9    S    
C21   O12   D    
C3    C10   A    
C13   C14   S    
Cu2   O2    S    
C11   C13   D    
C15   O8    A    
C6    H4    S    
Cu1   O7    S    
Cu2   N1    S    
C10   C18   A    
Cu2   O6    S    
C10   C12   S    
C9    C17   A    
C13   S1    S    
C9    C16   A    
C1    O1    A    
C2    C3    A    
C3    C7    A    
C5    C6    A    
C8    H6    S    
C15   O7    A    
Cu2   O8    S    
C12   O3    A    
S1    O9    D    
C18   H7    S    
C20   C21   S    
C21   H11   S    
Cu1   Cu2   S    
Cu1   N2    S    
C1    O2    A    
C15   C17   S    
C18   C19   A    
C12   O4    A    
Cu1   O3    S    
C9    H1    S    
C5    C16   A    
Cu1   O1    S    
C14   O6    A    
O11   H10   S    
C19   H8    S    
C2    C20   A    
Cu1   O5    S    
C19   C20   A    
C7    C22   S    
H3    N2    S    
C4    C5    A    
S1    O11   S    
