data_mof_unit_49178.cif
_audit_creation_date              2013-03-05T15:55:27-0500
_audit_creation_method            fapswitch 2.2
_symmetry_space_group_name_H-M    P1
_symmetry_Int_Tables_number       1
_space_group_crystal_system       triclinic
_cell_length_a                    10.871555
_cell_length_b                    12.381712
_cell_length_c                    13.345339
_cell_angle_alpha                 117.006706
_cell_angle_beta                  77.039571
_cell_angle_gamma                 102.342828
_cell_volume                      1546.72050555

loop_
_atom_site_label
_atom_site_type_symbol
_atom_site_description
_atom_site_fract_x
_atom_site_fract_y
_atom_site_fract_z
_atom_type_partial_charge
O1    O     O_R   0.537340 0.972510 0.318130 -0.542990
O2    O     O_R   0.487200 0.806530 0.359650 -0.620154
C1    C     C_R   0.517432 0.853793 0.286830 0.747860
O3    O     O_R   0.707380 0.082980 0.479220 -0.545859
O4    O     O_R   0.657240 0.917000 0.520740 -0.559352
C2    C     C_R   0.739714 0.002004 0.503026 0.859119
Cu1   Cu    Cu3+1 0.529690 0.098270 0.475420 1.002722
Cu2   Cu    Cu3+1 0.470310 0.901730 0.524580 0.968157
O5    O     O_R   0.512800 0.193470 0.640350 -0.593026
O6    O     O_R   0.462660 0.027490 0.681870 -0.590387
O7    O     O_R   0.342760 0.083000 0.479260 -0.509929
O8    O     O_R   0.292620 0.917020 0.520780 -0.570901
C3    C     C_R   0.494987 0.145208 0.711950 0.820084
C4    C     C_R   0.261409 0.993723 0.491633 0.811817
C5    C     C_3   0.955768 0.000385 0.386229 0.127159
H1    H     H_    0.913102 0.913801 0.321054 0.137752
C6    C     C_3   0.100572 0.984678 0.369200 0.779838
H2    H     H_    0.915400 0.194161 0.609971 0.053695
H3    H     H_    0.129413 0.187668 0.575670 0.211365
C7    C     C_3   0.933226 0.107464 0.604981 0.343898
C8    C     C_3   0.895982 0.876703 0.503629 0.260358
C9    C     C_3   0.878202 0.999050 0.500869 -0.220434
H4    H     H_    0.864160 0.800438 0.424745 0.111549
C10   C     C_3   0.123525 0.987616 0.484822 -0.203670
C11   C     C_3   0.079030 0.105847 0.587566 -0.589018
C12   C     C_3   0.038471 0.878088 0.507131 0.081613
H5    H     H_    0.046350 0.898198 0.596050 0.171938
H6    H     H_    0.107590 0.114160 0.666019 0.182525
C13   C     C_R   0.436274 0.258203 0.026310 0.543747
H7    H     H_    0.427726 0.083191 0.886425 0.195969
C14   C     C_R   0.508112 0.227121 0.831689 -0.230026
C15   C     C_R   0.630846 0.812735 0.094418 -0.254612
C16   C     C_R   0.709012 0.735667 0.004370 -0.234727
C17   C     C_R   0.696306 0.612038 0.981708 0.446360
C18   C     C_R   0.583210 0.559914 0.029698 0.026010
C19   C     C_R   0.512456 0.639588 0.129134 -0.047907
C20   C     C_R   0.541481 0.431834 0.986185 -0.092906
C21   C     C_R   0.458505 0.384892 0.059804 -0.118841
C22   C     C_R   0.391392 0.463657 0.160461 0.499147
C23   C     C_R   0.412597 0.588584 0.189039 -0.261065
C24   C     C_R   0.564874 0.352150 0.868671 0.469290
C25   C     C_R   0.458364 0.180053 0.912042 -0.346890
C26   C     C_R   0.544896 0.768198 0.166262 -0.092624
H8    H     H_    0.650830 0.909672 0.117322 0.191960
H9    H     H_    0.789294 0.775977 0.962449 0.180630
H10   H     H_    0.347647 0.643569 0.257867 0.200200
C27   C     C_R   0.709661 0.355772 0.338363 -0.428800
H11   H     H_    0.742989 0.549752 0.297781 0.192409
H12   H     H_    0.788560 0.362096 0.274660 0.180592
N1    N     N_R   0.574690 0.246280 0.438200 -0.263010
C28   C     C_R   0.337947 0.766823 0.654099 0.143782
C29   C     C_R   0.325800 0.688371 0.704732 -0.268052
C30   C     C_R   0.398622 0.592115 0.655112 -0.142987
C31   C     C_R   0.473711 0.563182 0.548011 0.013533
C32   C     C_R   0.495829 0.655693 0.507869 0.246769
C33   C     C_R   0.538901 0.454921 0.486361 -0.121567
C34   C     C_R   0.639628 0.454504 0.398533 0.029274
C35   C     C_R   0.666521 0.550325 0.365976 -0.248551
C36   C     C_R   0.594810 0.646920 0.417568 -0.181819
C37   C     C_R   0.501240 0.342665 0.499108 0.550993
C38   C     C_R   0.675250 0.249460 0.357340 0.592439
N2    N     N_R   0.426100 0.754320 0.561190 -0.203423
H13   H     H_    0.286083 0.845081 0.695348 0.129552
H14   H     H_    0.408200 0.553630 0.709233 0.148484
H15   H     H_    0.266836 0.707092 0.786360 0.164889
H16   H     H_    0.624346 0.715286 0.386646 0.205751
O9    O     O_3   0.930839 0.088552 0.354348 -0.537373
C39   C     C_3   0.966398 0.213301 0.424247 -0.165418
H17   H     H_    0.048070 0.231969 0.468091 0.161707
H18   H     H_    0.883690 0.254134 0.485446 0.146167
H19   H     H_    0.994702 0.263158 0.369904 0.164349
O10   O     O_3   0.871825 0.096737 0.706638 -0.528067
C40   C     C_3   0.903152 0.201701 0.805588 -0.256603
H20   H     H_    0.815690 0.221377 0.869005 0.209503
H21   H     H_    0.942718 0.285293 0.791597 0.175632
H22   H     H_    0.972682 0.182261 0.842839 0.169495
O11   O     O_3   0.284107 0.416013 0.213477 -0.549373
C41   C     C_3   0.300664 0.446638 0.325247 -0.169777
H23   H     H_    0.300870 0.546095 0.379162 0.186455
H24   H     H_    0.388664 0.415398 0.326157 0.163655
H25   H     H_    0.219347 0.398979 0.362909 0.179592
O12   O     O_3   0.387192 0.210254 0.104457 -0.569835
C42   C     C_3   0.490694 0.192987 0.140943 -0.366317
H26   H     H_    0.455712 0.176666 0.218191 0.205911
H27   H     H_    0.563840 0.275105 0.164713 0.168512
H28   H     H_    0.534710 0.111692 0.074138 0.169766
O13   O     O_3   0.616335 0.404179 0.792540 -0.610009
C43   C     C_3   0.721803 0.348682 0.715906 -0.217194
H29   H     H_    0.810425 0.412843 0.731442 0.203513
H30   H     H_    0.709300 0.328387 0.628698 0.170863
H31   H     H_    0.735521 0.263488 0.717690 0.148767
N3    N     N_R   0.808114 0.550595 0.934633 0.112074
O14   O     O_R   0.819614 0.465294 0.962032 -0.419333
O15   O     O_R   0.908808 0.596483 0.885786 -0.407093
O16   O     O_3   0.737242 0.145541 0.296994 -0.504511
C44   C     C_3   0.808973 0.137077 0.191900 -0.292238
H32   H     H_    0.841203 0.045423 0.144792 0.195759
H33   H     H_    0.896701 0.204020 0.204688 0.172157
H34   H     H_    0.750972 0.146894 0.138388 0.126264
O17   O     O_3   0.373158 0.315738 0.536454 -0.554943
C45   C     C_3   0.347910 0.337372 0.652309 -0.239985
H35   H     H_    0.430665 0.382775 0.699031 0.184482
H36   H     H_    0.311017 0.251842 0.661720 0.180362
H37   H     H_    0.267940 0.392920 0.695039 0.146815
O18   O     O_3   0.117384 0.868866 0.274537 -0.600481
C46   C     C_3   0.243894 0.842266 0.241265 -0.208780
H38   H     H_    0.316305 0.921998 0.248096 0.151914
H39   H     H_    0.254742 0.773645 0.151319 0.184928
H40   H     H_    0.263321 0.801497 0.292939 0.178199
O19   O     O_3   0.182204 0.081368 0.347460 -0.594329
C47   C     C_3   0.181929 0.072717 0.237330 -0.141944
H41   H     H_    0.181705 0.165388 0.244484 0.205699
H42   H     H_    0.099599 0.012554 0.194822 0.187934
H43   H     H_    0.269456 0.038154 0.180218 0.167656
O20   O     O_3   0.817876 0.863508 0.599688 -0.507607
C48   C     C_3   0.818640 0.748444 0.597766 -0.200109
H44   H     H_    0.890522 0.756206 0.648834 0.173800
H45   H     H_    0.837774 0.674402 0.511044 0.180222
H46   H     H_    0.724125 0.721007 0.638134 0.175501
N4    N     N_R   0.080492 0.756838 0.433884 0.106913
O21   O     O_R   0.130163 0.705135 0.478465 -0.399230
O22   O     O_R   0.041941 0.688578 0.335724 -0.353721

loop_
_geom_bond_atom_site_label_1
_geom_bond_atom_site_label_2
_geom_bond_distance
_ccdc_geom_bond_type
C8    C12   1.556434 S    
C44   H34   1.111740 S    
C45   H35   1.109633 S    
C14   C25   1.398116 A    
C32   C36   1.404075 A    
C13   C25   1.383621 A    
C16   H9    1.082671 S    
C40   H20   1.109306 S    
C47   H41   1.107840 S    
C8    O20   1.426085 S    
C6    O19   1.432046 S    
Cu1   Cu2   2.712458 S    
C27   H12   1.081322 S    
C30   C31   1.405083 A    
C48   H44   1.109817 S    
C11   H6    1.112405 S    
C23   H10   1.073525 S    
C1    C26   1.473902 S    
C12   H5    1.116072 S    
C22   O11   1.386976 S    
C18   C20   1.425545 A    
C10   C12   1.577933 S    
C36   H16   1.063733 S    
C21   C22   1.400970 A    
O7    C4    1.309074 A    
C41   H24   1.110282 S    
C46   H38   1.104910 S    
C5    H1    1.114678 S    
C2    C9    1.507339 S    
C32   N2    1.391716 A    
C33   C34   1.412142 A    
C5    C6    1.580495 S    
C17   C18   1.421745 A    
C4    C10   1.505801 S    
O5    C3    1.301428 A    
O19   C47   1.424929 S    
O17   C45   1.415109 S    
C7    O10   1.422413 S    
C5    C9    1.578075 S    
O16   C44   1.413164 S    
C39   H17   1.098469 S    
C44   H33   1.110110 S    
C13   C21   1.402988 A    
C45   H36   1.102155 S    
C8    C9    1.585112 S    
C40   H21   1.113677 S    
C28   N2    1.354945 A    
O3    Cu1   1.994781 S    
N4    O22   1.302052 A    
C24   O13   1.394854 S    
C31   C33   1.455680 A    
C6    C10   1.600731 S    
C28   C29   1.385210 A    
C19   C23   1.411600 A    
C28   H13   1.081564 S    
C10   C11   1.561843 S    
O3    C2    1.311422 A    
C22   C23   1.393718 A    
C41   H23   1.108612 S    
C35   C36   1.386460 A    
O11   C41   1.406637 S    
O9    C39   1.415383 S    
O1    C1    1.314872 A    
C18   C19   1.415435 A    
Cu1   O7    1.991508 S    
C20   C21   1.419059 A    
C6    O18   1.431380 S    
C27   C34   1.396822 A    
C42   H26   1.108469 S    
C43   H31   1.107780 S    
Cu2   O8    1.994779 S    
C5    O9    1.430467 S    
C44   H32   1.108647 S    
N3    O15   1.302497 A    
C16   C17   1.400574 A    
C15   H8    1.079966 S    
C47   H42   1.112097 S    
Cu2   O6    1.961206 S    
C42   H27   1.114169 S    
C43   H30   1.107635 S    
C45   H37   1.109566 S    
C8    H4    1.113774 S    
C40   H22   1.109714 S    
C29   C30   1.391831 A    
Cu1   O5    1.955180 S    
C31   C32   1.427802 A    
C14   C24   1.433605 A    
O1    Cu1   1.961206 S    
C3    C14   1.473426 S    
O2    Cu2   1.955182 S    
Cu1   N1    2.044253 S    
C7    C9    1.557524 S    
O10   C40   1.415162 S    
C37   O17   1.392704 S    
O6    C3    1.312254 A    
C27   C38   1.409448 A    
O4    Cu2   1.991510 S    
C38   O16   1.394469 S    
H11   C35   1.084752 S    
O18   C46   1.408603 S    
C48   H46   1.109114 S    
N1    C37   1.399226 A    
C15   C16   1.387090 A    
O2    C1    1.298416 A    
O8    C4    1.304171 A    
C13   O12   1.379165 S    
C41   H25   1.108779 S    
C34   C35   1.394547 A    
O4    C2    1.301917 A    
C46   H39   1.108951 S    
C39   H19   1.107696 S    
N3    O14   1.300974 A    
C30   H14   1.061629 S    
C15   C26   1.398031 A    
C48   H45   1.110456 S    
C47   H43   1.105468 S    
H2    C7    1.101150 S    
C20   C24   1.421516 A    
H3    C11   1.105164 S    
C17   N3    1.438653 S    
C33   C37   1.438290 A    
N1    C38   1.360956 A    
C42   H28   1.112006 S    
C43   H29   1.102330 S    
O13   C43   1.416121 S    
C39   H18   1.105033 S    
O12   C42   1.411407 S    
C7    C11   1.552767 S    
C12   N4    1.475870 S    
N4    O21   1.301210 A    
H7    C25   1.083570 S    
C19   C26   1.423860 A    
C29   H15   1.082730 S    
O20   C48   1.415006 S    
Cu2   N2    2.032365 S    
C46   H40   1.096372 S    
