data_mof_unit_27258.cif
_audit_creation_date              2012-12-10T19:00:16-0500
_audit_creation_method            fapswitch 2.2
_symmetry_space_group_name_H-M    P1
_symmetry_Int_Tables_number       1
_space_group_crystal_system       triclinic
_cell_length_a                    9.593001
_cell_length_b                    10.818806
_cell_length_c                    13.514376
_cell_angle_alpha                 90.788543
_cell_angle_beta                  74.455616
_cell_angle_gamma                 90.312132
_cell_volume                      1351.15459329

loop_
_atom_site_label
_atom_site_type_symbol
_atom_type_description
_atom_site_fract_x
_atom_site_fract_y
_atom_site_fract_z
_atom_type_partial_charge
C1    C     C_R   0.499344 0.737382 0.502703 0.831949
C2    C     C_R   0.435916 0.482590 0.975778 0.120904
C3    C     C_R   0.476968 0.451099 0.869643 0.040435
C4    C     C_R   0.539919 0.474284 0.032834 0.062786
C5    C     C_R   0.680517 0.428324 0.985256 0.046993
C6    C     C_R   0.712762 0.385786 0.883506 -0.251061
C7    C     C_R   0.613116 0.397098 0.826633 -0.179445
C8    C     C_R   0.506483 0.501151 0.138357 -0.315099
C9    C     C_R   0.759845 0.500426 0.131438 0.251557
C10   C     C_R   0.376966 0.468427 0.810748 -0.165707
C11   C     C_R   0.372097 0.935552 0.510008 0.083536
C12   C     C_R   0.423627 0.486814 0.698336 0.787557
C13   C     C_R   0.495623 0.870406 0.513567 -0.084709
C14   C     C_R   0.614306 0.936477 0.529892 -0.235676
C15   C     C_R   0.614348 0.065526 0.528780 -0.226297
C16   C     C_R   0.495582 0.129344 0.511570 -0.078906
C17   C     C_R   0.371559 0.062647 0.509602 0.058870
C18   C     C_3   0.277272 0.067895 0.437710 -0.498186
C19   C     C_3   0.276015 0.926784 0.439101 0.089402
C20   C     C_R   0.940242 0.401041 0.461464 0.251877
C21   C     C_R   0.908043 0.590929 0.548400 -0.089436
C22   C     C_R   0.056431 0.590659 0.548780 -0.063683
C23   C     C_R   0.499266 0.262435 0.501509 0.780689
C24   C     C_R   0.088125 0.402435 0.459228 0.259102
C25   C     C_3   0.130320 0.358318 0.350076 -0.509232
C26   C     C_3   0.970745 0.351052 0.355088 -0.521394
C27   C     C_R   0.575958 0.505569 0.301181 0.829203
C28   C     C_R   0.784624 0.425197 0.042401 0.151690
C29   C     C_R   0.615544 0.505104 0.189099 -0.111408
C30   C     C_R   0.228633 0.478921 0.862436 0.285657
C31   C     C_R   0.190031 0.514075 0.965272 -0.209008
C32   C     C_R   0.292414 0.521831 0.020399 -0.250292
Cu1   Cu    Cu3+1 0.359330 0.500020 0.500010 0.951565
Cu2   Cu    Cu3+1 0.640670 0.499980 0.499990 0.925653
H1    H     H_    0.709613 0.114494 0.536750 0.158893
H2    H     H_    0.183139 0.266686 0.339846 0.194278
H3    H     H_    0.816371 0.346313 0.845698 0.150756
H4    H     H_    0.930361 0.254783 0.353109 0.193393
H5    H     H_    0.397142 0.516468 0.183087 0.164649
H6    H     H_    0.253663 0.553749 0.098675 0.136191
H7    H     H_    0.642484 0.357896 0.749899 0.167160
N1    N     N_R   0.852320 0.499070 0.499340 -0.188185
N2    N     N_R   0.148230 0.499110 0.499340 -0.183738
O1    O     O_R   0.381190 0.680360 0.500000 -0.574389
O2    O     O_R   0.618780 0.680320 0.499990 -0.599064
O3    O     O_R   0.323230 0.500000 0.650990 -0.543636
O4    O     O_R   0.560820 0.499960 0.650980 -0.591037
O5    O     O_R   0.381220 0.319680 0.500010 -0.581915
O6    O     O_R   0.618810 0.319640 0.500000 -0.592883
O7    O     O_R   0.439180 0.500040 0.349020 -0.581846
O8    O     O_R   0.676770 0.500000 0.349010 -0.586951
N3    N     N_2   0.834898 0.615904 0.121629 -0.440315
H8    H     H_    0.881671 0.644628 0.047667 0.239477
C33   C     C_3   0.915163 0.648124 0.194858 -0.697084
H9    H     H_    0.971687 0.737557 0.173113 0.214567
H10   H     H_    0.998049 0.577519 0.194842 0.206883
H11   H     H_    0.841707 0.661156 0.272688 0.266030
H12   H     H_    0.169770 0.108594 0.475638 0.165524
H13   H     H_    0.333611 0.110282 0.363430 0.201325
H14   H     H_    0.168423 0.887092 0.478256 0.100807
N4    N     N_2   0.341635 0.865140 0.340810 -0.394374
H15   H     H_    0.267253 0.837409 0.302262 0.247926
C34   C     C_3   0.475572 0.910566 0.272942 -0.656768
H16   H     H_    0.527797 0.834676 0.220028 0.229938
H17   H     H_    0.552653 0.942321 0.316094 0.239461
H18   H     H_    0.452948 0.987506 0.226015 0.208332
H19   H     H_    0.839065 0.665921 0.586086 0.137394
H20   H     H_    0.097649 0.665279 0.587001 0.135730
H21   H     H_    0.188344 0.430084 0.296457 0.205015
H22   H     H_    0.937183 0.415439 0.303146 0.225928
N5    N     N_2   0.902199 0.339137 0.016614 -0.443786
H23   H     H_    0.884071 0.264651 0.973429 0.249607
C35   C     C_3   0.962022 0.298697 0.098342 -0.689266
H24   H     H_    0.048088 0.229201 0.067665 0.228149
H25   H     H_    0.876289 0.255932 0.160670 0.220638
H26   H     H_    0.012328 0.377083 0.129163 0.241110
N6    N     N_2   0.118432 0.455410 0.811520 -0.399539
H27   H     H_    0.017533 0.489555 0.848514 0.249165
C36   C     C_3   0.114849 0.329809 0.772641 -0.628898
H28   H     H_    0.081964 0.264107 0.836823 0.208496
H29   H     H_    0.222216 0.299888 0.724294 0.226416
H30   H     H_    0.037965 0.324224 0.724284 0.204195
H31   H     H_    0.079473 0.534239 0.003236 0.179256
H32   H     H_    0.709517 0.889094 0.538385 0.157095

loop_
_geom_bond_atom_site_label_1
_geom_bond_atom_site_label_2
_ccdc_geom_bond_type
C34   H17   S    
C27   C29   S    
C35   H24   S    
Cu2   N1    S    
C14   H32   S    
C4    C8    A    
N6    H27   S    
C11   C19   S    
Cu2   O8    S    
C8    C29   A    
C3    C7    A    
C5    C6    A    
C23   O6    A    
C15   C16   A    
C31   H31   S    
C2    C32   A    
C18   C19   S    
N4    C34   S    
C30   N6    S    
C18   H12   S    
C31   C32   A    
C27   O8    A    
C16   C17   A    
C8    H5    S    
C27   O7    A    
C9    C29   A    
C32   H6    S    
C34   H18   S    
C13   C14   A    
C21   H19   S    
Cu1   O3    S    
C35   H25   S    
C9    N3    S    
C12   O4    A    
C15   H1    S    
N3    C33   S    
Cu1   Cu2   S    
N6    C36   S    
C33   H10   S    
Cu1   N2    S    
C20   C24   A    
C24   C25   S    
C12   O3    A    
C36   H29   S    
C26   H4    S    
C25   C26   S    
C34   H16   S    
C2    C4    A    
C5    C28   A    
C10   C30   A    
C1    O1    A    
C22   N2    A    
C17   C18   S    
C6    H3    S    
Cu2   O2    S    
C22   H20   S    
C21   N1    A    
C10   C12   S    
C16   C23   S    
C26   H22   S    
C35   H26   S    
C28   N5    S    
C1    C13   S    
N3    H8    S    
N5    C35   S    
Cu1   O5    S    
C33   H9    S    
C11   C17   A    
Cu2   O6    S    
C23   O5    A    
Cu1   O1    S    
C4    C5    A    
C36   H30   S    
C20   N1    A    
C6    C7    A    
C19   H14   S    
C2    C3    A    
Cu1   O7    S    
N5    H23   S    
C3    C10   A    
C11   C13   A    
C1    O2    A    
C30   C31   A    
C20   C26   S    
C19   N4    S    
C7    H7    S    
N4    H15   S    
C25   H2    S    
C36   H28   S    
C18   H13   S    
C25   H21   S    
C24   N2    A    
C14   C15   A    
Cu2   O4    S    
C21   C22   A    
C9    C28   A    
C33   H11   S    
