data_mof_unit_29002.cif
_audit_creation_date              2012-10-26T18:27:33-0400
_audit_creation_method            fapswitch 2.2
_symmetry_space_group_name_H-M    P1
_symmetry_Int_Tables_number       1
_space_group_crystal_system       triclinic
_cell_length_a                    10.743628
_cell_length_b                    11.021339
_cell_length_c                    9.914801
_cell_angle_alpha                 111.444702
_cell_angle_beta                  96.996357
_cell_angle_gamma                 91.905444
_cell_volume                      1080.74043518

loop_
_atom_site_label
_atom_site_type_symbol
_atom_type_description
_atom_site_fract_x
_atom_site_fract_y
_atom_site_fract_z
_atom_type_partial_charge
Br1   Br    Br    0.350699 0.363801 0.801403 -0.391644
Br2   Br    Br    0.648030 0.637596 0.198633 -0.479254
Br3   Br    Br    0.283763 0.790592 0.777272 -0.396147
C1    C     C_R   0.490994 0.254182 0.440455 0.559777
C2    C     C_2   0.498663 0.930296 0.483973 -0.099834
C3    C     C_2   0.512052 0.510325 0.079840 0.264897
C4    C     C_R   0.263887 0.510924 0.505846 0.569206
C5    C     C_2   0.487538 0.490031 0.920185 0.274270
C6    C     C_R   0.510505 0.745824 0.559410 0.561405
C7    C     C_R   0.736603 0.497521 0.496727 0.532848
C8    C     C_R   0.135772 0.762576 0.636700 0.126314
C9    C     C_R   0.073738 0.875140 0.644663 0.304184
C10   C     C_R   0.944109 0.863988 0.598883 0.257781
C11   C     C_R   0.876395 0.742635 0.552505 -0.101669
C12   C     C_R   0.071052 0.636083 0.562718 -0.019311
C13   C     C_R   0.938281 0.628237 0.535195 -0.038192
C14   C     C_R   0.130553 0.516580 0.516189 0.042553
C15   C     C_R   0.059409 0.395892 0.464027 -0.091633
C16   C     C_R   0.930133 0.390691 0.457455 -0.101555
C17   C     C_R   0.869932 0.505777 0.492662 0.038489
C18   C     C_2   0.485922 0.114168 0.407207 -0.090322
C19   C     C_2   0.505031 0.069742 0.515815 -0.087719
C20   C     C_2   0.517134 0.885862 0.592568 -0.054356
Cl1   Cl    Cl    0.156941 0.031551 0.719876 -0.437174
Cl2   Cl    Cl    0.861893 0.002027 0.609546 -0.523063
Cu1   Cu    Cu3+1 0.521920 0.521810 0.644910 1.087019
Cu2   Cu    Cu3+1 0.478080 0.478190 0.355090 1.058012
H1    H     H_    0.104711 0.305169 0.430036 0.156248
H2    H     H_    0.466206 0.047056 0.293643 0.135639
H3    H     H_    0.628066 0.620465 0.926966 0.243626
H4    H     H_    0.373230 0.377993 0.072512 0.252206
H5    H     H_    0.775210 0.738274 0.526582 0.170783
H6    H     H_    0.876625 0.296667 0.423532 0.151313
H7    H     H_    0.478198 0.863591 0.370259 0.186354
H8    H     H_    0.525375 0.136455 0.629555 0.197956
H9    H     H_    0.536987 0.952945 0.706126 0.157173
N1    N     N_2   0.445130 0.445430 0.137370 -0.322233
N2    N     N_2   0.554930 0.554500 0.862630 -0.317194
O1    O     O_R   0.511700 0.332330 0.577400 -0.468523
O2    O     O_R   0.474680 0.295500 0.332650 -0.489495
O3    O     O_R   0.338160 0.518420 0.622400 -0.423146
O4    O     O_R   0.301140 0.481590 0.377650 -0.496876
O5    O     O_R   0.525320 0.704500 0.667350 -0.467303
O6    O     O_R   0.488300 0.667670 0.422600 -0.475194
O7    O     O_R   0.698860 0.518410 0.622350 -0.495396
O8    O     O_R   0.661840 0.481580 0.377600 -0.460818

loop_
_geom_bond_atom_site_label_1
_geom_bond_atom_site_label_2
_ccdc_geom_bond_type
C7    O8    A    
C8    C9    A    
C18   H2    S    
C1    C18   S    
Br1   C5    S    
C9    Cl1   S    
C16   C17   A    
C2    C20   D    
C1    O1    A    
Cu2   O2    S    
C13   C17   A    
C2    H7    S    
C7    O7    A    
C14   C15   A    
C3    N1    D    
C18   C19   D    
C19   H8    S    
Cu2   O4    S    
C10   Cl2   S    
Cu1   Cu2   S    
Br2   C3    S    
C5    N2    D    
Cu2   N1    S    
Cu2   O8    S    
Cu1   O5    S    
C15   C16   A    
C4    O3    A    
C11   C13   A    
Cu1   O1    S    
C6    O5    A    
Br3   C8    S    
C12   C13   A    
H4    N1    S    
C15   H1    S    
C9    C10   A    
H3    N2    S    
C20   H9    S    
C16   H6    S    
C4    O4    A    
C11   H5    S    
C12   C14   A    
C6    C20   S    
C6    O6    A    
C3    C5    S    
Cu1   O7    S    
C10   C11   A    
C8    C12   A    
Cu2   O6    S    
Cu1   N2    S    
C2    C19   S    
C1    O2    A    
Cu1   O3    S    
C7    C17   S    
C4    C14   S    
