data_mof_unit_12728.cif
_audit_creation_date              2012-12-11T20:22:13-0500
_audit_creation_method            fapswitch 2.2
_symmetry_space_group_name_H-M    P1
_symmetry_Int_Tables_number       1
_space_group_crystal_system       triclinic
_cell_length_a                    8.247704
_cell_length_b                    17.413033
_cell_length_c                    26.947061
_cell_angle_alpha                 99.664634
_cell_angle_beta                  92.67712
_cell_angle_gamma                 81.376171
_cell_volume                      3771.08944938

loop_
_atom_site_label
_atom_site_type_symbol
_atom_type_description
_atom_site_fract_x
_atom_site_fract_y
_atom_site_fract_z
_atom_type_partial_charge
Ba1   Ba    Ba6+2 0.860160 0.462360 0.521850 1.657256
Ba2   Ba    Ba6+2 0.329680 0.537570 0.478140 1.655345
Br1   Br    Br    0.297649 0.769828 0.668955 -0.633461
C1    C     C_3   0.633484 0.192904 0.648500 -0.383265
C2    C     C_R   0.883869 0.571943 0.177994 0.572751
C3    C     C_2   0.752070 0.546943 0.274031 -0.085175
C4    C     C_3   0.165907 0.259103 0.648911 0.331858
C5    C     C_3   0.733028 0.575691 0.329686 -0.052181
C6    C     C_1   0.985279 0.487098 0.342424 0.032711
C7    C     C_2   0.027275 0.484674 0.294725 -0.107841
C8    C     C_2   0.902044 0.513193 0.256461 0.185869
C9    C     C_R   0.020717 0.504291 0.101010 -0.080553
C10   C     C_R   0.082776 0.441476 0.126683 -0.035419
C11   C     C_R   0.186645 0.377285 0.100986 -0.059199
C12   C     C_3   0.623252 0.273326 0.632797 0.385503
C13   C     C_R   0.918849 0.569286 0.126899 -0.023099
C14   C     C_2   0.845700 0.526506 0.361232 -0.291457
C15   C     C_2   0.359332 0.485505 0.640095 -0.269768
C16   C     C_3   0.112159 0.237584 0.697942 -0.222448
C17   C     C_R   0.209573 0.436272 0.972904 0.019715
C18   C     C_R   0.030906 0.563555 0.972555 0.020238
C19   C     C_R   0.140501 0.499330 0.947382 0.049923
C20   C     C_R   0.318986 0.374296 0.945990 -0.099201
C21   C     C_R   0.356978 0.373703 0.896013 -0.061872
C22   C     C_R   0.289220 0.435131 0.870377 -0.032146
C23   C     C_3   0.476753 0.693489 0.639203 0.585736
C24   C     C_R   0.181490 0.498279 0.896087 -0.078010
C25   C     C_R   0.114865 0.560533 0.870510 -0.036033
C26   C     C_R   0.159402 0.559973 0.820388 0.591574
C27   C     C_R   0.327040 0.434590 0.819506 0.583014
C28   C     C_3   0.217781 0.297989 0.411116 0.315325
C29   C     C_2   0.464776 0.484441 0.728538 -0.082257
C30   C     C_3   0.507520 0.490259 0.675142 -0.057959
C31   C     C_1   0.212967 0.517004 0.657226 0.051819
C32   C     C_2   0.174042 0.515194 0.704218 -0.087442
C33   C     C_2   0.305811 0.497381 0.742933 0.210340
C34   C     C_3   0.592306 0.673408 0.682627 -0.336520
C35   C     C_R   0.167653 0.437272 0.024094 0.019828
C36   C     C_R   0.060519 0.502335 0.049485 0.049220
C37   C     C_R   0.992728 0.565654 0.024005 0.020615
C38   C     C_R   0.228882 0.375280 0.051156 -0.098760
C39   C     C_R   0.854112 0.631390 0.101434 -0.059202
C40   C     C_3   0.240702 0.209014 0.396232 -0.372606
C41   C     C_R   0.963098 0.623856 0.945068 -0.099430
C42   C     C_R   0.005011 0.622505 0.895524 -0.058252
C43   C     C_R   0.889208 0.629626 0.051326 -0.102027
C44   C     C_2   0.446400 0.278924 0.515074 -0.256328
C45   C     C_3   0.027816 0.707585 0.345444 0.348251
C46   C     C_3   0.372260 0.226167 0.544341 -0.055133
C47   C     C_2   0.415109 0.140415 0.523781 -0.103783
C48   C     C_2   0.546276 0.114914 0.493914 0.010967
C49   C     C_2   0.631971 0.174298 0.475671 -0.123625
C50   C     C_1   0.572346 0.250240 0.485210 0.058620
C51   C     C_R   0.783706 0.861052 0.467308 -0.125029
C52   C     C_3   0.965861 0.699709 0.585685 0.345827
C53   C     C_R   0.844249 0.780749 0.461726 0.014443
C54   C     C_R   0.610411 0.757075 0.504645 0.050036
C55   C     C_R   0.549312 0.837149 0.510722 -0.114841
C56   C     C_3   0.035885 0.732136 0.294213 -0.355484
C57   C     C_R   0.634162 0.889687 0.491685 0.005367
C58   C     C_2   0.606742 0.029647 0.478492 -0.074022
C59   C     C_2   0.574384 0.974649 0.504808 -0.069106
C60   C     C_R   0.753443 0.728564 0.478146 -0.285700
C61   C     C_3   0.913398 0.788014 0.601078 -0.342275
C62   C     C_3   0.694810 0.363249 0.368721 0.303365
C63   C     C_3   0.695803 0.343389 0.311564 -0.358337
C64   C     C_R   0.105757 0.150626 0.695881 0.094639
C65   C     C_R   0.234828 0.092740 0.675660 -0.042973
C66   C     C_R   0.225853 0.012835 0.674334 -0.061166
C67   C     C_3   0.484231 0.745714 0.367503 0.374972
C68   C     C_R   0.090025 0.989928 0.694036 -0.038075
C69   C     C_R   0.964223 0.046831 0.715816 -0.079925
C70   C     C_R   0.972871 0.126732 0.717320 -0.071970
C71   C     C_3   0.438535 0.822295 0.346778 -0.363945
C72   C     C_R   0.039232 0.443825 0.177426 0.597935
H1    H     H_    0.690366 0.264306 0.596973 0.067623
H2    H     H_    0.816584 0.377397 0.382497 0.007670
H3    H     H_    0.600183 0.415018 0.379589 0.074459
H4    H     H_    0.762453 0.163867 0.646828 0.131622
H5    H     H_    0.792829 0.293171 0.299524 0.131744
H6    H     H_    0.719811 0.394644 0.295210 0.068529
H7    H     H_    0.575294 0.327456 0.297099 0.135611
H8    H     H_    0.493272 0.297975 0.627198 -0.084926
H9    H     H_    0.560988 0.155122 0.621780 0.059356
H10   H     H_    0.430113 0.638930 0.619780 -0.026578
H11   H     H_    0.636398 0.728024 0.703188 0.153505
H12   H     H_    0.330202 0.190469 0.365461 0.120573
H13   H     H_    0.527247 0.646748 0.709460 0.085696
H14   H     H_    0.701295 0.631102 0.668334 0.110903
H15   H     H_    0.586379 0.198476 0.687123 0.131468
H16   H     H_    0.200597 0.256055 0.728420 0.077502
H17   H     H_    0.098201 0.647641 0.344334 0.073170
H18   H     H_    0.896920 0.706585 0.352911 -0.058314
H19   H     H_    0.163921 0.737238 0.285727 0.152531
H20   H     H_    0.991851 0.687080 0.264835 0.132115
H21   H     H_    0.957365 0.789721 0.293393 0.113568
H22   H     H_    0.620233 0.734234 0.370196 -0.072753
H23   H     H_    0.286774 0.180500 0.428907 0.074947
H24   H     H_    0.433609 0.753503 0.405783 0.078198
H25   H     H_    0.491728 0.870230 0.371636 0.069515
H26   H     H_    0.303454 0.838590 0.345044 0.148919
H27   H     H_    0.156815 0.324398 0.653740 0.027136
H28   H     H_    0.487689 0.815763 0.308397 0.121302
H29   H     H_    0.153385 0.464523 0.283777 0.140980
H30   H     H_    0.237312 0.327961 0.119538 0.121974
H31   H     H_    0.563458 0.475332 0.755977 0.103476
H32   H     H_    0.441398 0.324557 0.877486 0.120095
H33   H     H_    0.378864 0.324931 0.962438 0.069451
H34   H     H_    0.121748 0.189369 0.383260 0.132104
H35   H     H_    0.309645 0.323452 0.034905 0.069486
H36   H     H_    0.652158 0.564127 0.248696 0.127421
H37   H     H_    0.774400 0.682243 0.120236 0.123319
H38   H     H_    0.875855 0.673486 0.960454 0.070899
H39   H     H_    0.295483 0.233085 0.643473 -0.052242
H40   H     H_    0.949633 0.670672 0.876674 0.126452
H41   H     H_    0.046727 0.527521 0.715110 0.126110
H42   H     H_    0.833592 0.680456 0.035491 0.069761
H43   H     H_    0.826483 0.537963 0.401523 0.080967
H44   H     H_    0.373804 0.457946 0.601011 0.070559
H45   H     H_    0.858145 0.671705 0.571069 -0.003265
H46   H     H_    0.501306 0.991747 0.538369 0.067291
H47   H     H_    0.740865 0.154386 0.453210 0.083518
H48   H     H_    0.858345 0.900866 0.455933 0.073836
H49   H     H_    0.682850 0.012529 0.445490 0.070833
H50   H     H_    0.343587 0.100271 0.536321 0.067218
H51   H     H_    0.990771 0.272606 0.708098 0.131268
H52   H     H_    0.440943 0.859145 0.532964 0.092391
H53   H     H_    0.411790 0.341999 0.525352 0.071566
H54   H     H_    0.802780 0.666871 0.475315 0.061299
H55   H     H_    0.337831 0.317138 0.421686 -0.001486
H56   H     H_    0.056844 0.690182 0.555477 0.072653
H57   H     H_    0.135659 0.314428 0.443797 0.082511
H58   H     H_    0.342354 0.108766 0.660773 0.048985
H59   H     H_    0.324585 0.968667 0.658135 0.100821
H60   H     H_    0.082736 0.928185 0.692908 0.129487
H61   H     H_    0.860057 0.029059 0.731654 0.080866
H62   H     H_    0.874984 0.169983 0.734908 0.082640
H63   H     H_    0.832731 0.799567 0.634320 0.154323
H64   H     H_    0.846104 0.813620 0.569763 0.041771
H65   H     H_    0.022408 0.818495 0.610526 0.151809
N1    N     N_R   0.941700 0.509169 0.203197 -0.420607
N2    N     N_R   0.263638 0.497127 0.795054 -0.425975
O1    O     O_2   0.906370 0.542040 0.619810 -0.478181
O2    O     O_2   0.178810 0.781816 0.477956 -0.487007
O3    O     O_3   0.096535 0.761484 0.381976 -0.596539
O4    O     O_3   0.138370 0.541980 0.559630 -0.492355
O5    O     O_3   0.572820 0.404940 0.471170 -0.494820
O6    O     O_2   0.345130 0.693150 0.532000 -0.453379
O7    O     O_3   0.561003 0.730609 0.607793 -0.646762
O8    O     O_2   0.413440 0.532612 0.324443 -0.494508
O9    O     O_3   0.418607 0.684484 0.335759 -0.588082
O10   O     O_2   0.086622 0.387022 0.198224 -0.597959
O11   O     O_2   0.415159 0.377977 0.796886 -0.600589
O12   O     O_3   0.660457 0.297955 0.388089 -0.634241
O13   O     O_2   0.802941 0.631284 0.200143 -0.621661
O14   O     O_2   0.106994 0.616260 0.799572 -0.584248
O15   O     O_3   0.686580 0.398330 0.583860 -0.484948
O16   O     O_2   0.850801 0.440149 0.668499 -0.484682
O17   O     O_3   0.033690 0.668290 0.627889 -0.586798
O18   O     O_3   0.694336 0.324434 0.670278 -0.585769
O19   O     O_2   0.844570 0.306830 0.467970 -0.457672
O20   O     O_3   0.101900 0.357890 0.557750 -0.478964
O21   O     O_2   0.048873 0.217491 0.508659 -0.480262
O22   O     O_3   0.069158 0.231011 0.607301 -0.580928
O23   O     O_2   0.283330 0.457940 0.380160 -0.458136
O24   O     O_3   0.051340 0.457960 0.440360 -0.500722
O25   O     O_3   0.503130 0.601610 0.416130 -0.481696
O26   O     O_3   0.150754 0.331879 0.369895 -0.623874
O27   O     O_3   0.616890 0.595000 0.528820 -0.481150
O28   O     O_3   0.087820 0.642040 0.442240 -0.492402
P1    P     P_3+3 0.071770 0.565500 0.613330 1.022370
P2    P     P_3+3 0.664870 0.318630 0.453960 0.983192
P3    P     P_3+3 0.147480 0.256227 0.553686 0.958684
P4    P     P_3+3 0.117940 0.434440 0.386660 0.992264
P5    P     P_3+3 0.053376 0.743009 0.441311 0.948923
P6    P     P_3+3 0.683507 0.415341 0.649788 0.985727
P7    P     P_3+3 0.532872 0.694639 0.543485 0.970133
P8    P     P_3+3 0.517025 0.595165 0.351068 0.951613

loop_
_geom_bond_atom_site_label_1
_geom_bond_atom_site_label_2
_ccdc_geom_bond_type
C51   H48   S    
O6    P7    D    
C70   H62   S    
C3    H36   S    
C34   H13   S    
C32   C33   S    
C48   C58   S    
C40   H23   S    
C46   P3    S    
C44   H53   S    
C44   C46   S    
O20   P3    S    
C51   C57   A    
C41   C42   A    
C37   C43   A    
C66   H59   S    
O17   P1    S    
C58   H49   S    
C29   C33   D    
C4    H39   S    
C25   C26   A    
C31   C32   D    
C28   H55   S    
C7    H29   S    
C68   H60   S    
C35   C36   A    
C69   H61   S    
C26   N2    Am   
Ba2   O6    S    
C57   C59   S    
Ba1   Ba2   S    
C39   C43   A    
C52   H45   S    
C66   C68   A    
C30   P6    S    
C33   N2    S    
C2    C13   A    
C39   H37   S    
C72   N1    Am   
C50   P2    S    
O19   P2    D    
C49   H47   S    
C27   O11   D    
C10   C72   A    
C65   C66   A    
C4    H27   S    
C67   C71   S    
C20   C21   A    
C16   C64   S    
C64   C70   A    
C56   H19   S    
C6    C7    D    
Ba2   O24   S    
C61   H63   S    
C67   H22   S    
C44   C50   D    
C52   O17   S    
C12   H1    S    
Ba1   O19   S    
C55   H52   S    
C29   H31   S    
C10   C11   A    
C52   C61   S    
O18   P6    S    
Ba1   O4    S    
C56   H20   S    
O27   P7    S    
C54   C60   A    
C1    H15   S    
O28   P5    S    
C11   H30   S    
C51   C53   A    
C25   C42   A    
O24   P4    S    
C62   H2    S    
C45   H18   S    
C53   P5    S    
C64   C65   A    
C9    C13   A    
C34   H11   S    
O22   P3    S    
C21   C22   A    
C1    H4    S    
C3    C8    D    
C21   H32   S    
O9    P8    S    
C71   H25   S    
O15   P6    S    
O23   P4    D    
C2    O13   D    
Ba1   P1    S    
C48   C49   S    
C43   H42   S    
O26   P4    S    
C28   H57   S    
Ba1   O1    S    
C63   H7    S    
C18   C41   A    
C17   C35   A    
C42   H40   S    
C2    N1    Am   
C1    H9    S    
C17   C20   A    
C72   O10   D    
C45   O3    S    
O7    P7    S    
C47   C48   D    
C53   C60   A    
O12   P2    S    
C32   H41   S    
C47   H50   S    
C49   C50   D    
C9    C10   A    
C8    N1    S    
Ba2   O23   S    
C28   C40   S    
C14   H43   S    
C35   C38   A    
C71   H26   S    
O16   P6    D    
C17   C19   A    
Ba1   O20   S    
C62   C63   S    
C52   H56   S    
C38   H35   S    
C26   O14   D    
C1    C12   S    
Ba1   O5    S    
Ba2   O4    S    
C56   H21   S    
O21   P3    D    
C13   C39   A    
C36   C37   A    
C67   H24   S    
C45   C56   S    
C61   H65   S    
C6    C14   D    
C22   C27   A    
O5    P2    S    
C65   H58   S    
C62   H3    S    
C16   H51   S    
C23   O7    S    
C67   O9    S    
C69   C70   A    
C41   H38   S    
C3    C5    S    
C23   C34   S    
C22   C24   A    
Br1   C23   S    
C63   H5    S    
C4    O22   S    
Ba1   P2    S    
C4    C16   S    
C5    C14   S    
C27   N2    Am   
C34   H14   S    
C19   C24   A    
C40   H12   S    
C29   C30   S    
C9    C36   A    
Ba1   O15   S    
Ba2   O5    S    
O1    P1    D    
C68   C69   A    
Ba2   O28   S    
O8    P8    D    
Ba2   P4    S    
C63   H6    S    
C54   P7    S    
C54   C55   A    
C18   C37   A    
C11   C38   A    
Ba1   O24   S    
C15   C31   D    
C23   H10   S    
C12   H8    S    
C20   H33   S    
C15   H44   S    
O2    P5    D    
Ba1   O27   S    
C60   H54   S    
C58   C59   D    
C15   C30   S    
O4    P1    S    
C16   H16   S    
C7    C8    S    
Ba2   O27   S    
C5    P8    S    
C12   O18   S    
O25   P8    S    
C28   O26   S    
C46   C47   S    
C45   H17   S    
C24   C25   A    
C40   H34   S    
C62   O12   S    
C6    P4    S    
C18   C19   A    
C55   C57   A    
Ba2   O25   S    
C59   H46   S    
O3    P5    S    
C31   P1    S    
C71   H28   S    
C61   H64   S    
