data_mof_unit_61588.cif
_audit_creation_date              2012-12-11T16:21:30-0500
_audit_creation_method            fapswitch 2.2
_symmetry_space_group_name_H-M    P1
_symmetry_Int_Tables_number       1
_space_group_crystal_system       triclinic
_cell_length_a                    8.283988
_cell_length_b                    16.473579
_cell_length_c                    17.341302
_cell_angle_alpha                 108.305547
_cell_angle_beta                  84.455073
_cell_angle_gamma                 97.187715
_cell_volume                      2224.96865227

loop_
_atom_site_label
_atom_site_type_symbol
_atom_type_description
_atom_site_fract_x
_atom_site_fract_y
_atom_site_fract_z
_atom_type_partial_charge
Ba1   Ba    Ba6+2 0.638770 0.457640 0.528600 2.071074
Ba2   Ba    Ba6+2 0.171410 0.542370 0.471460 1.710244
C1    C     C_3   0.821631 0.213884 0.763882 0.492898
C2    C     C_R   0.106981 0.249489 0.479262 -0.553894
C3    C     C_2   0.532547 0.862074 0.594517 0.645678
C4    C     C_3   0.322987 0.226037 0.661291 0.275885
C5    C     C_2   0.551601 0.777620 0.562264 -0.100518
C6    C     C_2   0.817390 0.807121 0.494286 -0.124099
C7    C     C_3   0.774206 0.897173 0.506057 -0.054309
C8    C     C_3   0.663437 0.930104 0.582739 0.063070
C9    C     C_2   0.912676 0.963856 0.499952 0.060373
C10   C     C_2   0.882859 0.032681 0.479656 0.615615
C11   C     C_R   0.164346 0.077077 0.433535 0.174013
C12   C     C_3   0.820726 0.257122 0.698141 0.913243
C13   C     C_R   0.012631 0.100911 0.471582 -0.184207
C14   C     C_R   0.284199 0.138022 0.416889 -0.060283
C15   C     C_R   0.254879 0.224444 0.438573 0.116469
C16   C     C_3   0.316020 0.139057 0.675578 0.498558
C17   C     C_R   0.984030 0.188570 0.494298 0.076951
C18   C     C_R   0.085158 0.467017 0.714159 0.139005
C19   C     C_R   0.951911 0.513393 0.747561 -0.079198
C20   C     C_R   0.898332 0.524753 0.829209 -0.017018
C21   C     C_R   0.979956 0.490632 0.877471 0.135123
C22   C     C_R   0.119457 0.447957 0.844317 0.034053
C23   C     C_3   0.962056 0.279447 0.313497 0.256924
C24   C     C_R   0.172858 0.437053 0.762713 -0.317240
C25   C     C_R   0.906237 0.480009 0.160281 0.728583
C26   C     C_R   0.854030 0.486862 0.241250 -0.234849
C27   C     C_R   0.631817 0.565773 0.232754 -0.045789
C28   C     C_3   0.332881 0.662879 0.736907 1.266711
C29   C     C_R   0.682829 0.559087 0.151499 -0.087130
C30   C     C_R   0.821781 0.517011 0.115285 -0.246552
C31   C     C_1   0.875415 0.509075 0.031383 0.166469
C32   C     C_1   0.922761 0.501114 0.961334 -0.070808
C33   C     C_R   0.719950 0.531379 0.277392 -0.098299
C34   C     C_3   0.956403 0.182491 0.274798 0.438557
C35   C     C_3   0.377286 0.682602 0.824604 0.312194
C36   C     C_3   0.455832 0.343223 0.265968 0.896881
C37   C     C_3   0.378139 0.328172 0.185929 -0.217286
C38   C     C_3   0.850975 0.717454 0.668698 0.506320
C39   C     C_3   0.871177 0.814865 0.705678 1.267100
C40   C     C_3   0.508545 0.776554 0.313982 1.241814
C41   C     C_3   0.494279 0.856870 0.289843 1.452101
C42   C     C_3   0.024444 0.719911 0.292872 0.607324
C43   C     C_3   0.037437 0.745300 0.215161 -0.518465
C44   C     C_2   0.699947 0.749583 0.511167 0.461270
F1    F     F_    0.746735 0.332285 0.730672 -0.680262
F2    F     F_    0.669258 0.759718 0.299689 -0.784386
F3    F     F_    0.341585 0.885111 0.313572 -0.657659
F4    F     F_    0.610321 0.921782 0.326829 -0.611342
F5    F     F_    0.519638 0.838620 0.206337 -0.630565
F6    F     F_    0.402690 0.888161 0.646866 -0.567788
F7    F     F_    0.721460 0.664776 0.488117 -0.714657
F8    F     F_    0.728598 0.038054 0.462767 -0.599433
F9    F     F_    0.035531 0.435670 0.124820 -0.674153
F10   F     F_    0.168720 0.665001 0.737298 -0.787291
F11   F     F_    0.375438 0.581883 0.693541 -0.729771
F12   F     F_    0.543543 0.682801 0.827580 -0.634115
F13   F     F_    0.621474 0.346851 0.250121 -0.737788
F14   F     F_    0.752692 0.840693 0.767611 -0.555658
F15   F     F_    0.023224 0.841169 0.736285 -0.535739
F16   F     F_    0.918739 0.264670 0.824993 -0.701400
F17   F     F_    0.802606 0.149402 0.248289 -0.601154
F18   F     F_    0.232802 0.076589 0.614637 -0.704625
F19   F     F_    0.463025 0.792370 0.395891 -0.734538
H1    H     H_    0.422153 0.405697 0.308285 -0.038600
H2    H     H_    0.313072 0.633134 0.850909 -0.022226
H3    H     H_    0.418537 0.269181 0.139956 0.158359
H4    H     H_    0.414940 0.383670 0.162419 0.107889
H5    H     H_    0.243315 0.320359 0.194899 0.095924
H6    H     H_    0.943500 0.699496 0.617215 -0.001570
H7    H     H_    0.695431 0.204178 0.790200 0.067615
H8    H     H_    0.859994 0.845878 0.658594 -1.108971
H9    H     H_    0.085360 0.304104 0.335613 -0.138508
H10   H     H_    0.869883 0.292920 0.365658 0.042657
H11   H     H_    0.047545 0.166966 0.222300 0.083944
H12   H     H_    0.727808 0.696748 0.646303 -0.196901
H13   H     H_    0.870482 0.150325 0.737374 0.041854
H14   H     H_    0.896603 0.695732 0.304325 -0.012832
H15   H     H_    0.099866 0.666361 0.283947 0.021322
H16   H     H_    0.965376 0.696447 0.168011 0.127315
H17   H     H_    0.166592 0.749600 0.191596 0.219307
H18   H     H_    0.405578 0.225308 0.606703 0.041198
H19   H     H_    0.989759 0.808513 0.227201 0.254815
H20   H     H_    0.397307 0.117066 0.384487 0.174761
H21   H     H_    0.084397 0.316251 0.495434 0.132980
H22   H     H_    0.613798 0.585359 0.116633 0.133378
H23   H     H_    0.949066 0.273096 0.678649 -0.203491
H24   H     H_    0.795011 0.560905 0.855195 0.082927
H25   H     H_    0.677884 0.534649 0.339255 0.104558
H26   H     H_    0.442185 0.121543 0.675128 0.082153
H27   H     H_    0.250998 0.141640 0.735742 0.096072
H28   H     H_    0.984945 0.152096 0.319872 0.084653
H29   H     H_    0.033350 0.958801 0.516247 0.087696
H30   H     H_    0.186942 0.424158 0.881757 0.127649
H31   H     H_    0.198729 0.235768 0.649706 0.014467
H32   H     H_    0.127015 0.458900 0.651354 -0.008879
H33   H     H_    0.340155 0.746470 0.861770 0.123728
O1    O     O_2   0.563480 0.287900 0.421550 -0.403495
O2    O     O_2   0.300261 0.547877 0.236026 -0.477057
O3    O     O_3   0.406488 0.707646 0.266835 -0.619023
O4    O     O_3   0.344560 0.396140 0.441010 -0.543126
O5    O     O_3   0.942720 0.544140 0.599330 -0.523486
O6    O     O_2   0.129060 0.458130 0.306750 -0.416900
O7    O     O_3   0.928654 0.316702 0.254987 -0.487925
O8    O     O_2   0.155538 0.811387 0.506627 -0.349156
O9    O     O_3   0.078476 0.791176 0.357695 -0.547187
O10   O     O_3   0.805120 0.340890 0.569250 -0.460398
O11   O     O_2   0.646726 0.191791 0.490315 -0.391936
O12   O     O_3   0.870856 0.680062 0.728808 -0.519341
O13   O     O_3   0.406753 0.272704 0.294637 -0.607214
O14   O     O_3   0.732237 0.201293 0.633651 -0.661646
O15   O     O_2   0.681260 0.541920 0.693290 -0.347630
O16   O     O_3   0.399420 0.384560 0.615960 -0.456372
O17   O     O_2   0.508802 0.449071 0.764730 -0.323156
O18   O     O_3   0.381424 0.290492 0.730189 -0.636802
O19   O     O_2   0.246830 0.712160 0.578490 -0.424892
O20   O     O_3   0.465730 0.603870 0.559050 -0.406651
O21   O     O_3   0.005180 0.659120 0.430820 -0.463988
O22   O     O_3   0.411861 0.727010 0.705426 -0.561073
O23   O     O_3   0.867570 0.455870 0.400730 -0.413380
O24   O     O_3   0.410870 0.615450 0.384100 -0.416578
P1    P     P_3+3 0.397200 0.301470 0.401420 0.910662
P2    P     P_3+3 0.862850 0.568080 0.686620 1.299010
P3    P     P_3+3 0.364811 0.391033 0.718907 1.161197
P4    P     P_3+3 0.413100 0.698540 0.598650 1.249062
P5    P     P_3+3 0.440541 0.610163 0.280698 0.874113
P6    P     P_3+3 0.791363 0.229336 0.544995 0.993995
P7    P     P_3+3 0.942460 0.428493 0.298732 1.025887
P8    P     P_3+3 0.016130 0.769544 0.449083 1.198474

loop_
_geom_bond_atom_site_label_1
_geom_bond_atom_site_label_2
_ccdc_geom_bond_type
C6    C7    S    
C38   H6    S    
O2    P5    D    
C37   H3    S    
C43   H17   S    
C39   F15   S    
C16   F18   S    
Ba1   O1    S    
Ba2   O20   S    
C23   O7    S    
C12   O14   S    
C28   O22   S    
C16   H26   S    
C26   P7    S    
C22   C24   A    
Ba1   Ba2   S    
C37   H5    S    
C36   C37   S    
C25   F9    S    
C1    F16   S    
C2    H21   S    
Ba2   O4    S    
C28   F11   S    
C17   P6    S    
O21   P8    S    
C23   H9    S    
O24   P5    S    
C34   H11   S    
O12   P2    S    
C2    C17   A    
C34   H28   S    
C15   P1    S    
C18   H32   S    
C36   H1    S    
C26   C33   A    
C14   C15   A    
C40   F19   S    
C21   C22   A    
C3    F6    S    
C34   F17   S    
C7    C8    S    
Ba1   O5    S    
C35   F12   S    
C19   C20   A    
Ba1   O15   S    
O9    P8    S    
O5    P2    S    
C35   H33   S    
Ba2   O19   S    
C6    C44   D    
Ba2   O24   S    
C4    C16   S    
C29   H22   S    
O13   P1    S    
C5    C44   S    
C42   H15   S    
C22   H30   S    
C3    C5    D    
O16   P3    S    
C41   F3    S    
O7    P7    S    
Ba1   O10   S    
C28   F10   S    
C28   C35   S    
C23   H10   S    
C24   P3    S    
C13   C17   A    
Ba1   P1    S    
O11   P6    D    
C29   C30   A    
C10   C13   S    
Ba2   O6    S    
C9    C10   D    
C21   C32   S    
C42   O9    S    
C31   C32   T    
C37   H4    S    
C40   F2    S    
O10   P6    S    
C7    C9    S    
C4    O18   S    
C1    C12   S    
C2    C15   A    
Ba2   P4    S    
C9    H29   S    
C38   C39   S    
C4    H31   S    
O6    P7    D    
C11   C13   A    
C6    P8    S    
C14   H20   S    
C43   H19   S    
C40   C41   S    
O4    P1    S    
C40   O3    S    
C42   C43   S    
O1    P1    D    
O19   P4    D    
Ba2   O23   S    
O8    P8    D    
C4    H18   S    
C25   C30   A    
C38   H12   S    
C42   H14   S    
C43   H16   S    
C39   F14   S    
O23   P7    S    
C38   O12   S    
Ba2   O21   S    
C41   F4    S    
C12   F1    S    
C27   C33   A    
O17   P3    D    
O18   P3    S    
C16   H27   S    
C30   C31   S    
C19   P2    S    
C27   P5    S    
C1    H7    S    
Ba1   P2    S    
C12   H23   S    
C3    C8    S    
C27   C29   A    
C41   F5    S    
O15   P2    D    
C18   C24   A    
Ba2   O5    S    
C35   H2    S    
C44   F7    S    
O3    P5    S    
C20   H24   S    
O22   P4    S    
Ba1   O20   S    
C5    P4    S    
Ba1   O23   S    
O14   P6    S    
C23   C34   S    
C39   H8    S    
C36   F13   S    
C33   H25   S    
C18   C19   A    
Ba1   O16   S    
C11   C14   A    
C25   C26   A    
C20   C21   A    
O20   P4    S    
C36   O13   S    
C1    H13   S    
Ba1   O4    S    
C10   F8    S    
