data_mof_unit_34855.cif
_audit_creation_date              2012-12-10T17:53:13-0500
_audit_creation_method            fapswitch 2.2
_symmetry_space_group_name_H-M    P1
_symmetry_Int_Tables_number       1
_space_group_crystal_system       triclinic
_cell_length_a                    22.349462
_cell_length_b                    10.601964
_cell_length_c                    10.058647
_cell_angle_alpha                 92.683756
_cell_angle_beta                  89.868881
_cell_angle_gamma                 90.764624
_cell_volume                      2380.54880361

loop_
_atom_site_label
_atom_site_type_symbol
_atom_type_description
_atom_site_fract_x
_atom_site_fract_y
_atom_site_fract_z
_atom_type_partial_charge
Br1   Br    Br    0.383737 0.221823 0.691326 -0.355344
Br2   Br    Br    0.334685 0.231447 0.381433 -0.422454
Br3   Br    Br    0.403597 0.127497 0.991512 -0.347411
Br4   Br    Br    0.493962 0.891761 0.041315 -0.383885
Br5   Br    Br    0.587037 0.791780 0.798678 -0.408759
Br6   Br    Br    0.596295 0.837330 0.274275 -0.476709
Br7   Br    Br    0.283799 0.693779 0.165534 -0.355072
Br8   Br    Br    0.320741 0.821049 0.874877 -0.316388
Br9   Br    Br    0.058433 0.766499 0.859048 -0.397040
Br10  Br    Br    0.175217 0.723310 0.540912 -0.383338
C1    C     C_R   0.498452 0.258754 0.497813 0.929704
C2    C     C_R   0.121908 0.515588 0.727277 0.636681
C3    C     C_R   0.227694 0.581681 0.562195 0.356727
C4    C     C_R   0.388514 0.496306 0.499875 0.967997
C5    C     C_R   0.289478 0.596683 0.536393 0.026285
C6    C     C_R   0.323172 0.488537 0.501335 -0.205800
C7    C     C_R   0.293302 0.374537 0.463305 0.221465
C8    C     C_R   0.231430 0.364952 0.483166 0.158710
C9    C     C_R   0.203156 0.457707 0.566946 0.065762
C10   C     C_R   0.743234 0.320574 0.619750 0.200431
C11   C     C_R   0.685652 0.349192 0.579734 -0.275807
C12   C     C_R   0.976531 0.154501 0.630945 0.204524
C13   C     C_R   0.674604 0.454065 0.504222 -0.112442
C14   C     C_R   0.723212 0.519905 0.448151 0.127040
C15   C     C_R   0.782340 0.482543 0.476066 0.196692
C16   C     C_R   0.509723 0.737994 0.503633 0.929267
C17   C     C_R   0.791915 0.389664 0.570538 0.267511
C18   C     C_R   0.447736 0.106790 0.718509 0.242651
C19   C     C_R   0.450388 0.056435 0.845295 0.211274
C20   C     C_R   0.489052 0.957194 0.867540 0.176968
C21   C     C_R   0.521170 0.901317 0.761185 0.232986
C22   C     C_R   0.512112 0.942239 0.630831 -0.130051
C23   C     C_R   0.039902 0.163450 0.634302 0.121756
C24   C     C_R   0.485508 0.058313 0.613289 -0.111324
C25   C     C_R   0.502431 0.122186 0.496036 -0.086121
C26   C     C_R   0.538463 0.059953 0.395635 0.112929
C27   C     C_R   0.547952 0.930640 0.403331 0.311427
C28   C     C_R   0.611678 0.494060 0.499992 0.872198
C29   C     C_R   0.527415 0.870488 0.515248 -0.152932
C30   C     C_R   0.393873 0.555621 0.124805 0.066815
C31   C     C_R   0.357044 0.649237 0.075147 0.269995
C32   C     C_R   0.369787 0.695836 0.949976 0.261177
C33   C     C_R   0.416645 0.643339 0.874473 -0.229437
C34   C     C_R   0.067514 0.283131 0.666278 -0.065209
C35   C     C_R   0.456564 0.560331 0.931491 0.099165
C36   C     C_R   0.451382 0.540848 0.070587 0.090881
C37   C     C_R   0.548454 0.460148 0.067603 0.216730
C38   C     C_R   0.544176 0.442094 0.925916 0.273805
C39   C     C_R   0.872419 0.476549 0.706941 0.533263
C40   C     C_R   0.883517 0.273545 0.597798 0.511445
C41   C     C_R   0.942523 0.266272 0.645010 -0.049455
C42   C     C_R   0.969369 0.378051 0.699605 -0.087730
C43   C     C_R   0.933685 0.481362 0.742212 -0.061845
C44   C     C_3   0.945543 0.026118 0.624403 -0.778473
C45   C     C_R   0.031942 0.387909 0.706171 -0.088572
C46   C     C_3   0.713542 0.633011 0.366210 -0.810242
C47   C     C_3   0.835110 0.546228 0.410728 -0.829998
C48   C     C_3   0.569240 0.131140 0.286619 -0.737503
C49   C     C_3   0.609040 0.449182 0.130535 -0.759735
C50   C     C_3   0.077158 0.048976 0.593722 -0.647931
C51   C     C_3   0.361695 0.434122 0.150255 -0.674854
C52   C     C_3   0.590672 0.363627 0.853653 -0.832089
C53   C     C_3   0.924250 0.683787 0.890186 -0.707096
C54   C     C_3   0.319393 0.725711 0.538270 -0.657219
C55   C     C_3   0.195864 0.271038 0.396121 -0.677906
C56   C     C_R   0.059617 0.503734 0.749163 -0.132163
C57   C     C_3   0.751600 0.222606 0.721836 -0.824210
C58   C     C_R   0.024120 0.602524 0.806102 0.309997
C59   C     C_R   0.961144 0.587289 0.811296 0.095860
C60   C     C_R   0.129550 0.306158 0.654937 0.555485
H1    H     H_    0.648394 0.293557 0.614598 0.158092
H2    H     H_    0.829105 0.542445 0.301108 0.239821
H3    H     H_    0.878081 0.499257 0.429799 0.234018
H4    H     H_    0.600677 0.075118 0.224055 0.275121
H5    H     H_    0.535587 0.167527 0.217549 0.276555
H6    H     H_    0.596763 0.208772 0.333485 0.198013
H7    H     H_    0.646306 0.432555 0.059638 0.211943
H8    H     H_    0.621167 0.541804 0.178720 0.280577
H9    H     H_    0.609173 0.370359 0.198181 0.239347
H10   H     H_    0.107192 0.071663 0.509946 0.245871
H11   H     H_    0.103667 0.019621 0.679919 0.304070
H12   H     H_    0.423179 0.673678 0.775464 0.212009
H13   H     H_    0.050680 0.965801 0.556602 0.232497
H14   H     H_    0.324727 0.450144 0.221877 0.255091
H15   H     H_    0.342083 0.394195 0.055693 0.257221
H16   H     H_    0.393186 0.363330 0.186207 0.287191
H17   H     H_    0.629109 0.424199 0.825774 0.264642
H18   H     H_    0.606790 0.287833 0.916668 0.210915
H19   H     H_    0.572368 0.311100 0.767068 0.261165
H20   H     H_    0.905077 0.752591 0.822670 0.263259
H21   H     H_    0.888233 0.635780 0.945693 0.252991
H22   H     H_    0.950527 0.736047 0.968570 0.245361
H23   H     H_    0.899126 0.030700 0.663496 0.255423
H24   H     H_    0.358749 0.728344 0.604934 0.205561
H25   H     H_    0.335146 0.746033 0.436772 0.253021
H26   H     H_    0.289635 0.802753 0.573982 0.302254
H27   H     H_    0.205104 0.172844 0.422957 0.294836
H28   H     H_    0.147088 0.288638 0.401274 0.203944
H29   H     H_    0.208850 0.281022 0.290427 0.248341
H30   H     H_    0.776611 0.264525 0.808716 0.235745
H31   H     H_    0.708055 0.186288 0.758705 0.238125
H32   H     H_    0.776543 0.141093 0.678016 0.273050
H33   H     H_    0.945080 0.986139 0.520403 0.258604
H34   H     H_    0.968602 0.960697 0.689833 0.241753
H35   H     H_    0.666292 0.658917 0.364954 0.266653
H36   H     H_    0.738599 0.716102 0.409573 0.264057
H37   H     H_    0.728431 0.612660 0.262167 0.246877
H38   H     H_    0.838981 0.646200 0.447976 0.259228
N1    N     N_R   0.850232 0.377781 0.628686 -0.343739
N2    N     N_R   0.150028 0.427658 0.646345 -0.329818
N3    N     N_R   0.499460 0.498800 0.142780 -0.108180
N4    N     N_R   0.499440 0.498720 0.857170 -0.096797
O1    O     O_R   0.500000 0.316780 0.614690 -0.623127
O2    O     O_R   0.583850 0.500050 0.614640 -0.581669
O3    O     O_R   0.583840 0.500030 0.385310 -0.625887
O4    O     O_2   0.835822 0.572774 0.741376 -0.556777
O5    O     O_2   0.861024 0.182172 0.513638 -0.555699
O6    O     O_2   0.169001 0.211482 0.658254 -0.505709
O7    O     O_2   0.154627 0.606468 0.791835 -0.427711
O8    O     O_R   0.500000 0.316750 0.385360 -0.605302
O9    O     O_R   0.416160 0.499970 0.614690 -0.591421
O10   O     O_R   0.416150 0.499950 0.385360 -0.599266
O11   O     O_R   0.500000 0.683250 0.614640 -0.617145
O12   O     O_R   0.500000 0.683220 0.385310 -0.554148
Zn1   Zn    Zn3+2 0.500000 0.500020 0.653130 0.995225
Zn2   Zn    Zn3+2 0.500000 0.499980 0.346870 0.990870

loop_
_geom_bond_atom_site_label_1
_geom_bond_atom_site_label_2
_ccdc_geom_bond_type
C56   C58   A    
C4    O10   A    
C40   O5    S    
C31   C32   A    
C10   C57   S    
C25   C26   A    
C43   C59   A    
C49   H7    S    
C2    N2    A    
C35   N4    A    
C48   H6    S    
C12   C44   S    
C35   C36   A    
C8    C55   S    
C30   C36   A    
C48   H4    S    
O3    Zn2   S    
C16   O12   A    
C11   H1    S    
O12   Zn2   S    
C26   C27   A    
Br8   C32   S    
C55   H28   S    
C24   C25   A    
C26   C48   S    
C20   C21   A    
C28   O2    A    
C50   H13   S    
C37   N3    A    
C16   C29   S    
O11   Zn1   S    
O1    Zn1   S    
C5    C6    A    
C52   H19   S    
C8    C9    A    
C22   C29   A    
C47   H3    S    
Br3   C19   S    
C44   H23   S    
C60   N2    A    
C50   H10   S    
C53   C59   S    
C58   C59   A    
C53   H22   S    
Br1   C18   S    
C5    C54   S    
C34   C60   A    
C42   C45   A    
C18   C24   A    
C4    O9    A    
C36   N3    A    
Br2   C7    S    
C15   C47   S    
C1    O8    A    
C49   H8    S    
C48   H5    S    
C40   C41   A    
C3    C9    A    
C41   C42   A    
C37   C38   A    
C44   H33   S    
C14   C15   A    
C54   H26   S    
C49   H9    S    
O2    Zn1   S    
C6    C7    A    
C52   H18   S    
C51   H14   S    
C40   N1    A    
C30   C51   S    
C22   C24   A    
O10   Zn2   S    
C46   H37   S    
O9    Zn1   S    
C19   C20   A    
C17   N1    S    
C2    O7    S    
C50   H11   S    
C38   C52   S    
C21   C22   A    
C13   C14   A    
C46   H36   S    
C39   O4    S    
N3    Zn2   S    
C7    C8    A    
Br6   C27   S    
C33   C35   A    
C55   H29   S    
N4    Zn1   S    
C51   H15   S    
C57   H30   S    
C30   C31   A    
C38   N4    A    
C23   C50   S    
C11   C13   A    
C4    C6    S    
C15   C17   A    
C32   C33   A    
C45   C56   A    
C42   C43   A    
C57   H31   S    
C39   N1    A    
C9    N2    S    
C44   H34   S    
C12   C23   A    
C18   C19   A    
C23   C34   A    
C54   H25   S    
Br10  C3    S    
C10   C17   A    
C14   C46   S    
C13   C28   S    
C52   H17   S    
C3    C5    A    
Br9   C58   S    
C54   H24   S    
C27   C29   A    
C28   O3    A    
C34   C45   A    
C2    C56   A    
C60   O6    S    
C39   C43   A    
C53   H20   S    
C1    C25   S    
O8    Zn2   S    
Br7   C31   S    
C47   H2    S    
C1    O1    A    
C46   H35   S    
C51   H16   S    
C37   C49   S    
C47   H38   S    
C10   C11   A    
C55   H27   S    
C16   O11   A    
C53   H21   S    
C33   H12   S    
Br4   C20   S    
C57   H32   S    
C12   C41   A    
Br5   C21   S    
