data_mof_unit_64810.cif
_audit_creation_date              2013-03-05T16:14:13-0500
_audit_creation_method            fapswitch 2.2
_symmetry_space_group_name_H-M    P1
_symmetry_Int_Tables_number       1
_space_group_crystal_system       triclinic
_cell_length_a                    44.918248
_cell_length_b                    39.043469
_cell_length_c                    21.919984
_cell_angle_alpha                 89.454817
_cell_angle_beta                  60.268305
_cell_angle_gamma                 89.925698
_cell_volume                      33380.0410561

loop_
_atom_site_label
_atom_site_type_symbol
_atom_site_description
_atom_site_fract_x
_atom_site_fract_y
_atom_site_fract_z
_atom_type_partial_charge
O1    O     O_R   0.049910 0.528880 0.450120 -0.585431
O2    O     O_R   0.950090 0.528880 0.549880 -0.589699
O3    O     O_R   0.549910 0.028880 0.450120 -0.585396
O4    O     O_R   0.450090 0.028880 0.549880 -0.589562
O5    O     O_R   0.049900 0.471110 0.450110 -0.589470
O6    O     O_R   0.950100 0.471110 0.549890 -0.585689
O7    O     O_R   0.549900 0.971110 0.450110 -0.589592
O8    O     O_R   0.450100 0.971110 0.549890 -0.585704
C1    C     C_R   0.066187 0.500050 0.433838 0.782872
C2    C     C_R   0.933806 0.499935 0.566125 0.782941
C3    C     C_R   0.566187 0.000050 0.433838 0.782979
C4    C     C_R   0.433810 0.999935 0.566123 0.782849
O9    O     O_R   0.999990 0.528880 0.589040 -0.579549
O10   O     O_R   0.000010 0.528880 0.410960 -0.585993
O11   O     O_R   0.499990 0.028880 0.589040 -0.579444
O12   O     O_R   0.500010 0.028880 0.410960 -0.585979
O13   O     O_R   0.999990 0.471110 0.589030 -0.586245
O14   O     O_R   0.000010 0.471110 0.410970 -0.579546
O15   O     O_R   0.499990 0.971110 0.589030 -0.586598
O16   O     O_R   0.500010 0.971110 0.410970 -0.579696
C5    C     C_R   0.998916 0.499724 0.618635 0.850986
C6    C     C_R   0.001086 0.500263 0.381362 0.850803
C7    C     C_R   0.498916 0.999724 0.618636 0.851093
C8    C     C_R   0.501086 0.000263 0.381362 0.850720
Cu1   Cu    Cu3+1 0.000000 0.534200 0.500000 0.949481
Cu2   Cu    Cu3+1 0.500000 0.034200 0.500000 0.949502
Cu3   Cu    Cu3+1 1.000000 0.465790 0.500000 0.947797
Cu4   Cu    Cu3+1 0.500000 0.965790 0.500000 0.946835
C9    C     C_2   0.977570 0.519018 0.805816 -0.154886
C10   C     C_2   0.022410 0.480948 0.194200 -0.153840
C11   C     C_2   0.477572 0.019019 0.805814 -0.155474
C12   C     C_2   0.522417 0.980948 0.194192 -0.155268
C13   C     C_2   0.001883 0.503455 0.814328 -0.317784
C14   C     C_2   0.998119 0.496549 0.185671 -0.315772
C15   C     C_2   0.501882 0.003450 0.814329 -0.318307
C16   C     C_2   0.498119 0.996540 0.185670 -0.314702
H1    H     H_    0.955897 0.531072 0.850025 0.162830
H2    H     H_    0.044062 0.468862 0.150005 0.160887
H3    H     H_    0.455903 0.031079 0.850021 0.162945
H4    H     H_    0.544073 0.968870 0.149992 0.159565
H5    H     H_    0.025366 0.494753 0.769053 0.154285
H6    H     H_    0.974649 0.505283 0.230933 0.153376
H7    H     H_    0.525363 0.994742 0.769056 0.154693
H8    H     H_    0.474646 0.005265 0.230937 0.153528
C17   C     C_2   0.980930 0.522381 0.735634 -0.155221
C18   C     C_2   0.019051 0.477587 0.264384 -0.155019
C19   C     C_2   0.480933 0.022383 0.735632 -0.155121
C20   C     C_2   0.519060 0.977590 0.264374 -0.155101
C21   C     C_2   0.996536 0.498111 0.687225 -0.318319
C22   C     C_2   0.003470 0.501872 0.312767 -0.315028
C23   C     C_2   0.496534 0.998110 0.687227 -0.318734
C24   C     C_2   0.503469 0.001870 0.312768 -0.314588
H9    H     H_    0.968837 0.544020 0.725171 0.163360
H10   H     H_    0.031119 0.455935 0.274869 0.160094
H11   H     H_    0.468847 0.044026 0.725165 0.163412
H12   H     H_    0.531142 0.955946 0.274850 0.159561
C25   C     C_R   0.378114 0.484581 0.075025 -0.139979
C26   C     C_R   0.621751 0.485044 0.926250 -0.141059
C27   C     C_R   0.878111 0.984620 0.074983 -0.139620
C28   C     C_R   0.121706 0.984249 0.925522 -0.138292
H13   H     H_    0.391693 0.472275 0.024365 0.151566
H14   H     H_    0.608049 0.473294 0.977975 0.151516
H15   H     H_    0.891690 0.972353 0.024281 0.151505
H16   H     H_    0.107982 0.971889 0.976638 0.151323
C29   C     C_R   0.342344 0.484197 0.111361 -0.160806
C30   C     C_R   0.657516 0.484492 0.889912 -0.160776
C31   C     C_R   0.842341 0.984234 0.111319 -0.160634
C32   C     C_R   0.157469 0.983676 0.889146 -0.160461
C33   C     C_R   0.323848 0.499962 0.177281 0.102596
C34   C     C_R   0.676185 0.499505 0.822600 0.102749
C35   C     C_R   0.823845 0.999947 0.177293 0.102628
C36   C     C_R   0.176150 0.999486 0.822624 0.102563
C37   C     C_R   0.342155 0.515605 0.206326 -0.157902
C38   C     C_R   0.658056 0.514590 0.792226 -0.158132
C39   C     C_R   0.842152 0.015541 0.206392 -0.157773
C40   C     C_R   0.158022 0.015375 0.793046 -0.157621
H17   H     H_    0.328931 0.528641 0.256150 0.125830
H18   H     H_    0.671437 0.527041 0.741233 0.125735
H19   H     H_    0.828926 0.028536 0.256263 0.125646
H20   H     H_    0.171395 0.028460 0.742735 0.125450
C41   C     C_R   0.377940 0.515219 0.170681 -0.170910
C42   C     C_R   0.622265 0.514394 0.827969 -0.168392
C43   C     C_R   0.877936 0.015159 0.170741 -0.170713
C44   C     C_R   0.122232 0.015170 0.828753 -0.170305
H21   H     H_    0.391394 0.527503 0.194145 0.144950
H22   H     H_    0.608959 0.526232 0.803434 0.145213
H23   H     H_    0.891389 0.027405 0.194246 0.144144
H24   H     H_    0.108918 0.027623 0.804856 0.143617
C45   C     C_R   0.396155 0.499960 0.104545 -0.003904
C46   C     C_R   0.603870 0.499867 0.895445 -0.002578
C47   C     C_R   0.896153 0.999952 0.104551 -0.003563
C48   C     C_R   0.103843 0.999860 0.895464 -0.001885
C49   C     C_R   0.266963 0.498785 0.289321 -0.165819
C50   C     C_R   0.733018 0.497192 0.710675 -0.166061
C51   C     C_R   0.766960 0.998702 0.289327 -0.165879
C52   C     C_R   0.233004 0.998271 0.710563 -0.165823
H25   H     H_    0.279836 0.496859 0.319858 0.132306
H26   H     H_    0.720088 0.494631 0.680411 0.132835
H27   H     H_    0.779833 0.996720 0.319857 0.132334
H28   H     H_    0.220094 0.996558 0.680116 0.132497
C53   C     C_R   0.231183 0.499279 0.324938 -0.172859
C54   C     C_R   0.768805 0.497586 0.674956 -0.172285
C55   C     C_R   0.731180 0.999198 0.324945 -0.172802
C56   C     C_R   0.268788 0.998684 0.674877 -0.172567
H29   H     H_    0.217241 0.498239 0.381838 0.135598
H30   H     H_    0.782726 0.495864 0.618185 0.136401
H31   H     H_    0.717237 0.998104 0.381841 0.135707
H32   H     H_    0.282705 0.997818 0.618001 0.135992
C57   C     C_R   0.213505 0.500314 0.287331 0.089534
C58   C     C_R   0.786510 0.499494 0.712378 0.088357
C59   C     C_R   0.713504 0.000307 0.287340 0.089440
C60   C     C_R   0.286498 0.999480 0.712405 0.089195
C61   C     C_R   0.231877 0.501315 0.213811 -0.170961
C62   C     C_R   0.768202 0.501415 0.785743 -0.170672
C63   C     C_R   0.731876 0.001377 0.213823 -0.170994
C64   C     C_R   0.268166 0.000282 0.785896 -0.171094
H33   H     H_    0.218485 0.502395 0.184147 0.134520
H34   H     H_    0.781649 0.503165 0.815189 0.134911
H35   H     H_    0.718484 0.002514 0.184164 0.134559
H36   H     H_    0.281593 0.001181 0.815478 0.134464
C65   C     C_R   0.267650 0.501645 0.178116 -0.174383
C66   C     C_R   0.732430 0.501819 0.821469 -0.174941
C67   C     C_R   0.767649 0.001704 0.178131 -0.174297
C68   C     C_R   0.232396 0.000695 0.821636 -0.174323
H37   H     H_    0.281068 0.503519 0.121361 0.126656
H38   H     H_    0.719052 0.504417 0.878010 0.126640
H39   H     H_    0.781069 0.003632 0.121383 0.126789
H40   H     H_    0.219021 0.002443 0.878333 0.126637
C69   C     C_R   0.285710 0.500137 0.215368 0.100915
C70   C     C_R   0.714322 0.499497 0.784452 0.100843
C71   C     C_R   0.785708 0.000124 0.215380 0.100862
C72   C     C_R   0.214292 0.999474 0.784480 0.100964
C73   C     C_R   0.157946 0.473252 0.315702 -0.163658
C74   C     C_R   0.841938 0.472081 0.683256 -0.163116
C75   C     C_R   0.657946 0.973247 0.315711 -0.163659
C76   C     C_R   0.341958 0.972255 0.683858 -0.163423
C77   C     C_R   0.122160 0.472979 0.351905 -0.185171
C78   C     C_R   0.877731 0.471997 0.647128 -0.183359
C79   C     C_R   0.622159 0.972975 0.351912 -0.185331
C80   C     C_R   0.377749 0.972166 0.647712 -0.183340
C81   C     C_R   0.103883 0.500163 0.396270 -0.024479
C82   C     C_R   0.896099 0.499800 0.603549 -0.025623
C83   C     C_R   0.603883 0.000163 0.396270 -0.024442
C84   C     C_R   0.396112 0.999799 0.603545 -0.025219
C85   C     C_R   0.121905 0.527411 0.404562 -0.181817
C86   C     C_R   0.878148 0.527469 0.595938 -0.184449
C87   C     C_R   0.621907 0.027411 0.404557 -0.181798
C88   C     C_R   0.378169 0.027294 0.595341 -0.184125
C89   C     C_R   0.157687 0.527238 0.369699 -0.165564
C90   C     C_R   0.842368 0.527140 0.630747 -0.165697
C91   C     C_R   0.657689 0.027235 0.369696 -0.165530
C92   C     C_R   0.342391 0.026954 0.630139 -0.165926
H41   H     H_    0.171245 0.548294 0.377035 0.134165
H42   H     H_    0.828862 0.548537 0.623978 0.134276
H43   H     H_    0.671248 0.048292 0.377028 0.134155
H44   H     H_    0.328898 0.048223 0.622906 0.133807
C93   C     C_R   0.175850 0.500266 0.324802 0.097675
C94   C     C_R   0.824139 0.499551 0.674860 0.096457
C95   C     C_R   0.675850 0.000261 0.324808 0.097692
C96   C     C_R   0.324147 0.999543 0.674875 0.097341
O17   O     O_R   0.971110 0.450090 0.028870 -0.588827
O18   O     O_R   0.028890 0.450090 0.971130 -0.592897
O19   O     O_R   0.471110 0.950090 0.028870 -0.585783
O20   O     O_R   0.528890 0.950090 0.971130 -0.589491
C97   C     C_R   0.999947 0.433755 0.000005 0.786824
C98   C     C_R   0.499941 0.933794 0.000053 0.782755
O21   O     O_R   0.971120 0.500000 0.939830 -0.578889
O22   O     O_R   0.028880 0.500000 0.060170 -0.578632
O23   O     O_R   0.471120 0.000000 0.939830 -0.580359
O24   O     O_R   0.528880 1.000000 0.060170 -0.579753
O25   O     O_R   0.028890 0.500000 0.882090 -0.586976
O26   O     O_R   0.971110 0.500000 0.117910 -0.587045
O27   O     O_R   0.528890 1.000000 0.882090 -0.585936
O28   O     O_R   0.471110 0.000000 0.117910 -0.586138
C99   C     C_R   0.000274 0.501075 0.882147 0.853902
C100  C     C_R   0.999726 0.498926 0.117852 0.853688
C101  C     C_R   0.500274 0.001072 0.882147 0.852297
C102  C     C_R   0.499726 0.998922 0.117852 0.852141
Cu5   Cu    Cu3+1 0.965790 0.500000 0.034190 0.945577
Cu6   Cu    Cu3+1 0.034210 0.500000 0.965810 0.945804
Cu7   Cu    Cu3+1 0.465790 1.000000 0.034190 0.946939
Cu8   Cu    Cu3+1 0.534210 1.000000 0.965810 0.947461
O29   O     O_R   0.971120 0.549910 0.028870 -0.591397
O30   O     O_R   0.028880 0.549910 0.971130 -0.587115
O31   O     O_R   0.471120 0.049910 0.028870 -0.591361
O32   O     O_R   0.528880 0.049910 0.971130 -0.587104
C103  C     C_R   0.000055 0.566217 0.999974 0.785628
C104  C     C_R   0.500055 0.066217 0.999973 0.785543
O33   O     O_R   0.499990 0.450020 0.051430 -0.557796
O34   O     O_R   0.500010 0.450020 0.948570 -0.558257
O35   O     O_R   0.999990 0.950020 0.051430 -0.557929
O36   O     O_R   0.000010 0.950020 0.948570 -0.558174
C105  C     C_R   0.500024 0.433823 0.000228 0.951851
C106  C     C_R   0.000023 0.933823 0.000228 0.951714
O37   O     O_R   0.450090 0.499930 0.101420 -0.563857
O38   O     O_R   0.549910 0.499930 0.898580 -0.563966
O39   O     O_R   0.950090 0.999930 0.101420 -0.564874
O40   O     O_R   0.049910 0.999930 0.898580 -0.564308
O41   O     O_R   0.450100 0.500000 0.998350 -0.601617
O42   O     O_R   0.549900 0.500000 0.001650 -0.602101
O43   O     O_R   0.950100 1.000000 0.998350 -0.600249
O44   O     O_R   0.049900 1.000000 0.001650 -0.600626
C107  C     C_R   0.433838 0.500080 0.066373 0.827642
C108  C     C_R   0.566172 0.500096 0.933616 0.827369
C109  C     C_R   0.933837 0.000077 0.066374 0.829007
C110  C     C_R   0.066162 0.000096 0.933624 0.828601
Cu9   Cu    Cu3+1 0.499990 0.499920 0.061020 0.998864
Cu10  Cu    Cu3+1 0.500010 0.499920 0.938980 0.998711
Cu11  Cu    Cu3+1 0.999990 0.999920 0.061020 0.997646
Cu12  Cu    Cu3+1 0.000010 0.999920 0.938980 0.997807
O45   O     O_R   0.500000 0.549840 0.051640 -0.594467
O46   O     O_R   0.500000 0.549840 0.948360 -0.594804
O47   O     O_R   0.000000 0.049840 0.051640 -0.597786
O48   O     O_R   0.000000 0.049840 0.948360 -0.597996
C111  C     C_R   0.500030 0.566092 0.999722 0.758751
C112  C     C_R   0.999983 0.066135 0.999771 0.762712
C113  C     C_R   0.515060 0.621855 0.032174 -0.182229
C114  C     C_R   0.485117 0.622022 0.965913 -0.182889
C115  C     C_R   0.000824 0.122004 0.053527 -0.182968
C116  C     C_R   0.998939 0.122270 0.944950 -0.183527
C117  C     C_R   0.515355 0.657611 0.031374 -0.165666
C118  C     C_R   0.484644 0.657790 0.966564 -0.165099
C119  C     C_R   0.000817 0.157718 0.053215 -0.170071
C120  C     C_R   0.998854 0.158011 0.944753 -0.169533
H45   H     H_    0.528107 0.670666 0.055415 0.125263
H46   H     H_    0.471833 0.670984 0.942472 0.125361
H47   H     H_    0.001153 0.171018 0.096004 0.129135
H48   H     H_    0.998478 0.171558 0.901798 0.128987
C121  C     C_R   0.499908 0.676114 0.999035 0.105435
C122  C     C_R   0.999842 0.176053 0.998835 0.105576
C123  C     C_R   0.500097 0.603794 0.999167 -0.020986
C124  C     C_R   0.999922 0.103916 0.999362 -0.027343
C125  C     C_R   0.501251 0.733029 0.942552 -0.173905
C126  C     C_R   0.498002 0.732328 0.056261 -0.174019
C127  C     C_R   0.978115 0.232226 0.981339 -0.173910
C128  C     C_R   0.021695 0.231961 0.015824 -0.174259
C129  C     C_R   0.978039 0.267958 0.981590 -0.173856
C130  C     C_R   0.021693 0.267675 0.015874 -0.174083
C131  C     C_R   0.500775 0.768793 0.943178 -0.172586
C132  C     C_R   0.498358 0.768085 0.055978 -0.172701
H49   H     H_    0.961180 0.281495 0.967610 0.129581
H50   H     H_    0.038518 0.280972 0.030003 0.129127
H51   H     H_    0.501972 0.782724 0.899028 0.134128
H52   H     H_    0.497139 0.781456 0.100241 0.134251
C133  C     C_R   0.999842 0.286005 0.998832 0.097001
C134  C     C_R   0.499566 0.786470 0.999642 0.089999
C135  C     C_R   0.499701 0.714262 0.999283 0.098953
C136  C     C_R   0.999905 0.213905 0.998571 0.096928
C137  C     C_R   0.030851 0.342127 0.970225 -0.169128
C138  C     C_R   0.968813 0.341957 0.028203 -0.168410
C139  C     C_R   0.526719 0.842014 0.999608 -0.164994
C140  C     C_R   0.472653 0.842322 0.000040 -0.165296
C141  C     C_R   0.030881 0.377843 0.970529 -0.183882
C142  C     C_R   0.968822 0.377690 0.028668 -0.180216
C143  C     C_R   0.527024 0.877786 0.998866 -0.184895
C144  C     C_R   0.472508 0.878088 0.001100 -0.182336
H53   H     H_    0.055226 0.391215 0.947733 0.152917
H54   H     H_    0.944505 0.390952 0.051700 0.153786
H55   H     H_    0.548266 0.891136 0.998377 0.144905
H56   H     H_    0.451333 0.891679 0.001683 0.147813
C145  C     C_R   0.999866 0.395981 0.999799 -0.032302
C146  C     C_R   0.499811 0.896093 0.000049 -0.024617
C147  C     C_R   0.999826 0.323855 0.999042 0.105276
C148  C     C_R   0.499649 0.824129 0.999734 0.097262
C149  C     C_R   0.526658 0.378188 0.943742 0.295606
C150  C     C_R   0.473736 0.377675 0.057737 0.295077
C151  C     C_R   0.026646 0.878186 0.943728 0.295550
C152  C     C_R   0.973742 0.877675 0.057755 0.295122
C153  C     C_R   0.526248 0.342321 0.944443 -0.215762
C154  C     C_R   0.474278 0.341798 0.057265 -0.215774
C155  C     C_R   0.026235 0.842319 0.944433 -0.215817
C156  C     C_R   0.974283 0.841798 0.057286 -0.215779
H57   H     H_    0.547072 0.328793 0.901604 0.175821
H58   H     H_    0.453506 0.327861 0.100178 0.175724
H59   H     H_    0.047052 0.828790 0.901581 0.175827
H60   H     H_    0.953517 0.827862 0.100212 0.175739
C157  C     C_R   0.500278 0.323856 0.000867 -0.024853
C158  C     C_R   0.000274 0.823855 0.000873 -0.024846
C159  C     C_R   0.500154 0.396148 0.000641 -0.276046
C160  C     C_R   0.000152 0.896148 0.000643 -0.276025
C161  C     C_R   0.489631 0.267166 0.063502 -0.163099
C162  C     C_R   0.510984 0.267891 0.937975 -0.163055
C163  C     C_R   0.989639 0.767166 0.063504 -0.163102
C164  C     C_R   0.010965 0.767890 0.937987 -0.163024
H61   H     H_    0.481873 0.280140 0.112542 0.140179
H62   H     H_    0.518705 0.281429 0.889016 0.140322
H63   H     H_    0.981892 0.780139 0.112539 0.140186
H64   H     H_    0.018674 0.781427 0.889033 0.140351
C165  C     C_R   0.989421 0.731430 0.063438 -0.177518
C166  C     C_R   0.011244 0.732160 0.937820 -0.177842
C167  C     C_R   0.489412 0.231431 0.063436 -0.177537
C168  C     C_R   0.511263 0.232161 0.937807 -0.177848
H65   H     H_    0.981252 0.717594 0.112303 0.135873
H66   H     H_    0.019409 0.718897 0.888876 0.135945
H67   H     H_    0.481232 0.217595 0.112304 0.135858
H68   H     H_    0.519437 0.218899 0.888859 0.135929
C169  C     C_R   0.000347 0.713694 0.000567 0.091701
C170  C     C_R   0.500351 0.213694 0.000560 0.091723
C171  C     C_R   0.500296 0.285838 0.000794 0.143475
C172  C     C_R   0.000290 0.785837 0.000801 0.143464
C173  C     C_R   0.029586 0.658035 0.952256 -0.165371
C174  C     C_R   0.970960 0.657652 0.048458 -0.166298
C175  C     C_R   0.529590 0.158034 0.952260 -0.165375
C176  C     C_R   0.470960 0.157653 0.048441 -0.166301
H69   H     H_    0.052545 0.671729 0.915058 0.133342
H70   H     H_    0.948048 0.671047 0.085764 0.132893
H71   H     H_    0.552552 0.171728 0.915069 0.133341
H72   H     H_    0.448046 0.171049 0.085739 0.132891
C177  C     C_R   0.029619 0.622289 0.952466 -0.181020
C178  C     C_R   0.970781 0.621920 0.047896 -0.183665
C179  C     C_R   0.529622 0.122288 0.952472 -0.180966
C180  C     C_R   0.470779 0.121922 0.047882 -0.183635
H73   H     H_    0.052566 0.609029 0.914928 0.151060
H74   H     H_    0.947773 0.608374 0.085317 0.150447
H75   H     H_    0.552571 0.109028 0.914942 0.151107
H76   H     H_    0.447769 0.108376 0.085296 0.150486
C181  C     C_R   0.000160 0.603932 0.000088 -0.029261
C182  C     C_R   0.500160 0.103932 0.000085 -0.029288
C183  C     C_R   0.000307 0.675949 0.000447 0.104157
C184  C     C_R   0.500310 0.175950 0.000440 0.104149
H77   H     H_    0.171704 0.452236 0.281224 0.134393
H78   H     H_    0.828095 0.450609 0.717196 0.135803
H79   H     H_    0.671703 0.952229 0.281237 0.134353
H80   H     H_    0.328127 0.950908 0.718239 0.135274
H81   H     H_    0.108775 0.451787 0.344491 0.145284
H82   H     H_    0.891044 0.450463 0.654021 0.148222
H83   H     H_    0.608774 0.951783 0.344501 0.145114
H84   H     H_    0.391068 0.950770 0.655050 0.147677
H85   H     H_    0.108315 0.548556 0.438784 0.148454
H86   H     H_    0.891791 0.549098 0.562327 0.147655
H87   H     H_    0.608317 0.048557 0.438774 0.148448
H88   H     H_    0.391819 0.048788 0.561268 0.147299
H89   H     H_    0.527107 0.608307 0.057529 0.146145
H90   H     H_    0.473117 0.608590 0.940681 0.145971
H91   H     H_    0.001502 0.108597 0.096292 0.153821
H92   H     H_    0.998284 0.109052 0.902422 0.153237
H93   H     H_    0.503335 0.720188 0.897073 0.126886
H94   H     H_    0.495962 0.718931 0.101629 0.127030
H95   H     H_    0.960844 0.218905 0.968470 0.129590
H96   H     H_    0.038982 0.218447 0.028643 0.129443
H97   H     H_    0.055136 0.328783 0.946656 0.128838
H98   H     H_    0.944521 0.328458 0.051495 0.129223
H99   H     H_    0.547759 0.828254 0.999263 0.133036
H100  H     H_    0.451549 0.828800 0.000285 0.133806
N1    N     N_R   0.554771 0.395811 0.886018 0.131603
O49   O     O_R   0.569435 0.421733 0.897467 -0.383993
O50   O     O_R   0.568990 0.382982 0.823224 -0.350738
N2    N     N_R   0.445561 0.394769 0.115351 0.131413
O51   O     O_R   0.430941 0.420873 0.103813 -0.384122
O52   O     O_R   0.431291 0.381341 0.178174 -0.350729
N3    N     N_R   0.054750 0.895807 0.885984 0.131668
O53   O     O_R   0.069425 0.921728 0.897408 -0.384614
O54   O     O_R   0.068954 0.882977 0.823192 -0.350552
N4    N     N_R   0.945576 0.894770 0.115385 0.131425
O55   O     O_R   0.930947 0.920872 0.103865 -0.384196
O56   O     O_R   0.931321 0.881345 0.178209 -0.350753
H101  H     H_    0.005273 0.474658 0.700296 0.154897
H102  H     H_    0.994759 0.525334 0.299673 0.153848
H103  H     H_    0.505264 0.974654 0.700304 0.154489
H104  H     H_    0.494745 0.025327 0.299683 0.153785
H105  H     H_    0.329267 0.471151 0.087993 0.128247
H106  H     H_    0.670454 0.471898 0.914393 0.128369
H107  H     H_    0.829264 0.971228 0.087907 0.128250
H108  H     H_    0.170389 0.970445 0.912970 0.128352

loop_
_geom_bond_atom_site_label_1
_geom_bond_atom_site_label_2
_geom_bond_distance
_ccdc_geom_bond_type
C26   H14   1.083271 S    
C144  C146  1.404545 A    
O40   C110  1.295928 A    
C154  H58   1.082831 S    
C43   H23   1.083281 S    
C14   H6    1.086317 S    
C115  C124  1.404918 A    
C76   C80   1.396070 A    
C1    C81   1.470388 S    
C137  C141  1.394565 A    
O24   C102  1.293121 A    
C22   H102  1.086321 S    
C8    C24   1.454215 S    
C51   H27   1.082093 S    
O37   C107  1.295887 A    
C126  H94   1.082033 S    
C117  H45   1.082056 S    
C74   H78   1.083320 S    
C10   H2    1.086275 S    
C82   C86   1.404527 A    
C24   H104  1.086338 S    
C157  C171  1.484373 S    
C168  C170  1.401952 A    
C113  H89   1.083280 S    
C92   H44   1.083333 S    
C142  C145  1.404865 A    
Cu11  O47   1.957896 S    
C34   C38   1.407968 A    
C91   H43   1.083313 S    
O38   C108  1.296134 A    
C64   C68   1.395448 A    
C81   C85   1.404281 A    
C150  N2    1.438950 S    
C166  C169  1.401947 A    
C120  H48   1.082988 S    
C37   C41   1.396010 A    
C36   C72   1.487788 S    
C46   C108  1.470491 S    
C113  C117  1.395952 A    
C63   C67   1.395414 A    
C149  N1    1.438702 S    
C177  H73   1.083023 S    
O16   Cu4   1.960371 S    
O22   Cu6   1.960690 S    
C165  H65   1.083245 S    
O7    Cu4   1.956689 S    
C9    C17   1.473955 S    
C137  H97   1.082997 S    
O15   C7    1.286136 A    
C116  H92   1.082877 S    
C126  C135  1.408994 A    
O18   C97   1.294538 A    
C173  H69   1.083225 S    
Cu10  O46   1.961786 S    
C16   C102  1.454212 S    
C27   C47   1.401686 A    
C137  C147  1.403897 A    
O36   Cu12  1.957587 S    
C161  C167  1.395305 A    
O26   Cu5   1.964640 S    
C162  C168  1.395083 A    
O27   Cu8   1.964642 S    
C52   C56   1.395897 A    
C21   H101  1.086358 S    
O8    Cu4   1.958284 S    
C16   H8    1.086329 S    
C175  C179  1.395617 A    
C178  H74   1.083030 S    
C141  C145  1.404842 A    
C176  C180  1.395326 A    
C156  C158  1.401877 A    
C60   C96   1.468571 S    
O3    Cu2   1.958676 S    
C44   H24   1.083314 S    
O11   Cu2   1.960589 S    
C25   H13   1.083330 S    
C43   C47   1.401688 A    
C174  H70   1.083236 S    
C27   H15   1.083320 S    
C28   H16   1.083378 S    
C165  C169  1.402169 A    
C114  H90   1.083245 S    
C125  C131  1.396569 A    
O35   C106  1.292829 A    
C30   C34   1.407616 A    
C130  C133  1.404209 A    
N2    O51   1.300791 A    
C128  H96   1.082979 S    
C173  C183  1.402995 A    
C98   C146  1.471994 S    
O3    C3    1.294489 A    
C4    C84   1.470556 S    
C20   C24   1.339750 D    
C50   C54   1.395970 A    
C33   C69   1.487663 S    
C37   H17   1.082131 S    
C55   H31   1.083418 S    
C75   H79   1.083322 S    
O17   C97   1.295186 A    
Cu6   O30   1.960514 S    
C149  C153  1.400363 A    
C105  C159  1.470903 S    
C106  C160  1.470918 S    
C179  H75   1.083025 S    
O19   Cu7   1.960473 S    
C128  C136  1.404273 A    
N3    O53   1.300676 A    
C132  H52   1.083407 S    
C57   C93   1.468846 S    
C5    C21   1.454192 S    
O5    C1    1.294144 A    
C50   C70   1.408611 A    
C131  C134  1.400237 A    
C12   C16   1.339759 D    
C154  C157  1.401876 A    
C2    C82   1.470897 S    
O48   C112  1.299059 A    
C179  C182  1.404457 A    
C151  C160  1.416471 A    
C68   C72   1.408796 A    
C89   H41   1.083313 S    
C27   C31   1.395246 A    
O5    Cu3   1.956689 S    
C79   C83   1.404197 A    
C152  C156  1.400997 A    
C9    C13   1.339734 D    
C164  C166  1.395083 A    
C115  H91   1.082889 S    
O17   Cu5   1.960473 S    
C15   H7    1.086341 S    
C58   C62   1.399447 A    
O18   Cu6   1.958882 S    
C119  C122  1.403810 A    
O42   C108  1.294973 A    
C17   H9    1.086335 S    
C86   C90   1.396029 A    
O24   Cu8   1.960690 S    
Cu9   O45   1.957896 S    
C31   H107  1.082134 S    
O23   C101  1.293125 A    
C51   C55   1.395886 A    
C162  C171  1.406911 A    
C15   C101  1.454194 S    
C28   C48   1.401706 A    
C79   H83   1.083162 S    
C10   C14   1.339742 D    
O13   Cu3   1.964300 S    
C168  H68   1.083253 S    
O20   Cu8   1.958882 S    
C118  C121  1.408388 A    
C175  C184  1.402996 A    
C56   C60   1.400029 A    
C49   C53   1.395885 A    
C125  C135  1.408917 A    
C32   H108  1.082153 S    
C51   C71   1.408590 A    
C64   H36   1.083452 S    
C91   C95   1.401493 A    
O38   Cu10  1.959435 S    
C87   C91   1.396123 A    
C65   H37   1.082118 S    
C139  H99   1.083311 S    
C67   H39   1.082109 S    
O46   C111  1.298176 A    
O8    C4    1.294525 A    
C25   C29   1.395241 A    
Cu11  Cu12  2.674669 S    
C80   H84   1.083137 S    
C153  C157  1.401559 A    
C126  C132  1.396113 A    
C85   H85   1.083136 S    
O15   Cu4   1.964300 S    
O35   Cu11  1.961565 S    
C61   H33   1.083425 S    
C74   C94   1.401182 A    
C63   H35   1.083419 S    
C180  C182  1.404568 A    
C103  C181  1.472580 S    
O4    C4    1.294184 A    
C169  C183  1.473701 S    
O44   Cu11  1.955938 S    
C117  C121  1.408085 A    
C133  C147  1.477844 S    
C49   H25   1.082094 S    
C127  C136  1.404331 A    
C60   C64   1.399736 A    
C134  C148  1.470359 S    
O21   C99   1.293133 A    
C151  N3    1.438696 S    
O22   C100  1.293120 A    
C166  H66   1.083252 S    
C10   C18   1.474010 S    
C40   H20   1.082159 S    
C131  H51   1.083389 S    
C178  C181  1.404568 A    
C150  C159  1.416571 A    
C52   H28   1.082115 S    
O30   C103  1.294253 A    
C129  H49   1.082962 S    
C75   C79   1.395875 A    
O10   C6    1.286132 A    
C3    C83   1.470396 S    
C30   H106  1.082145 S    
C144  H56   1.083126 S    
O41   Cu10  1.955969 S    
C73   C93   1.401515 A    
O40   Cu12  1.959435 S    
C140  C148  1.401721 A    
C35   C71   1.487652 S    
C76   C96   1.401470 A    
C141  H53   1.082887 S    
C176  H72   1.083234 S    
C61   C65   1.395410 A    
N4    O55   1.300793 A    
O43   C109  1.294869 A    
C44   C48   1.401625 A    
C41   H21   1.083286 S    
O26   C100  1.285394 A    
C138  C142  1.395261 A    
O21   Cu5   1.960692 S    
O39   C109  1.295887 A    
C73   C77   1.395871 A    
C40   C44   1.396053 A    
Cu7   Cu8   2.668844 S    
C25   C45   1.401674 A    
C50   H26   1.082104 S    
C53   C57   1.400076 A    
C34   C70   1.487579 S    
C125  H93   1.082031 S    
C55   C59   1.400059 A    
Cu8   O32   1.960514 S    
C167  C170  1.402170 A    
C59   C95   1.468804 S    
O34   C105  1.291972 A    
C151  C155  1.400359 A    
C33   C37   1.408065 A    
N1    O50   1.301425 A    
O28   C102  1.285396 A    
C58   C94   1.467809 S    
C36   C40   1.408184 A    
C68   H40   1.082155 S    
C41   C45   1.401669 A    
C11   C19   1.473953 S    
O41   C107  1.294844 A    
C12   C20   1.474013 S    
C38   C42   1.396103 A    
C49   C69   1.408602 A    
C47   C109  1.469867 S    
C77   H81   1.083161 S    
C161  H61   1.082530 S    
C163  H63   1.082528 S    
Cu9   Cu10  2.674669 S    
C88   C92   1.395970 A    
C164  H64   1.082530 S    
O19   C98   1.294252 A    
O1    C1    1.294484 A    
C88   H88   1.083139 S    
C78   C82   1.404441 A    
C129  C133  1.404409 A    
C19   C23   1.339741 D    
C42   H22   1.083239 S    
C164  C172  1.406914 A    
C138  H98   1.082981 S    
C32   C36   1.407837 A    
C83   C87   1.404282 A    
C120  C122  1.404181 A    
C139  C143  1.396601 A    
C17   C21   1.339740 D    
C156  H60   1.082830 S    
C18   H10   1.086288 S    
N2    O52   1.301429 A    
C26   C46   1.401907 A    
O23   Cu7   1.960692 S    
C130  H50   1.082972 S    
C158  C172  1.484377 S    
O42   Cu9   1.955938 S    
C11   C15   1.339741 D    
C54   C58   1.399740 A    
O32   C104  1.294252 A    
C170  C184  1.473709 S    
C56   H32   1.083487 S    
C73   H77   1.083320 S    
O47   C112  1.297892 A    
C77   C81   1.404188 A    
C90   C94   1.401037 A    
C67   C71   1.408654 A    
C80   C84   1.404265 A    
C65   C69   1.408664 A    
O6    C2    1.294613 A    
O4    Cu2   1.957089 S    
N3    O54   1.301425 A    
C152  C160  1.416572 A    
C42   C46   1.401838 A    
C153  H57   1.082851 S    
C174  C183  1.402756 A    
C13   H5    1.086338 S    
O14   C6    1.293884 A    
C39   C43   1.396014 A    
O33   Cu9   1.961565 S    
C29   C33   1.407797 A    
C128  C130  1.394433 A    
O2    Cu1   1.957089 S    
C31   C35   1.407782 A    
O10   Cu1   1.964524 S    
O13   C5    1.286139 A    
C138  C147  1.404125 A    
C48   C110  1.469795 S    
C115  C119  1.394370 A    
Cu5   Cu6   2.668844 S    
O37   Cu9   1.959437 S    
C28   C32   1.395242 A    
C38   H18   1.082130 S    
C9    H1    1.086317 S    
C118  H46   1.082047 S    
C89   C93   1.401505 A    
C85   C89   1.396113 A    
O45   C111  1.297133 A    
C92   C96   1.401325 A    
C167  H67   1.083244 S    
C84   C88   1.404353 A    
C161  C171  1.406783 A    
C87   H87   1.083137 S    
C163  C165  1.395309 A    
O7    C3    1.294143 A    
C111  C123  1.471930 S    
C155  H59   1.082850 S    
O29   C103  1.293719 A    
C176  C184  1.402764 A    
C142  H54   1.082876 S    
C78   H82   1.083123 S    
C140  H100  1.083295 S    
C177  C181  1.404455 A    
C163  C172  1.406784 A    
C26   C30   1.395272 A    
C155  C158  1.401555 A    
O16   C8    1.293875 A    
C76   H80   1.083319 S    
C152  N4    1.438948 S    
C57   C61   1.399811 A    
C139  C148  1.401771 A    
C140  C144  1.396777 A    
O11   C7    1.293871 A    
C173  C177  1.395617 A    
O12   C8    1.286144 A    
O1    Cu1   1.958676 S    
C127  C129  1.395161 A    
O9    Cu1   1.960589 S    
O28   Cu7   1.964640 S    
C114  C118  1.396774 A    
Cu5   O29   1.958924 S    
C53   H29   1.083432 S    
C143  H55   1.083145 S    
C116  C124  1.404944 A    
O9    C5    1.293867 A    
C6    C22   1.454202 S    
O39   Cu11  1.959437 S    
C104  C182  1.472583 S    
C150  C154  1.400994 A    
Cu7   O31   1.958924 S    
C149  C159  1.416465 A    
O31   C104  1.293724 A    
C175  H71   1.083227 S    
Cu12  O48   1.961786 S    
O25   C99   1.285380 A    
C180  H76   1.083032 S    
C121  C135  1.489504 S    
C66   H38   1.082112 S    
O33   C105  1.292824 A    
C75   C95   1.401495 A    
C7    C23   1.454195 S    
O6    Cu3   1.958284 S    
C143  C146  1.404437 A    
O27   C101  1.285385 A    
C174  C178  1.395326 A    
C119  H47   1.083014 S    
C86   H86   1.083127 S    
C62   H34   1.083414 S    
O34   Cu10  1.957587 S    
C45   C107  1.469816 S    
C162  H62   1.082530 S    
N4    O56   1.301431 A    
C90   H42   1.083327 S    
C97   C145  1.474885 S    
O25   Cu6   1.964642 S    
C39   H19   1.082124 S    
C132  C134  1.399981 A    
C23   H103  1.086357 S    
O2    C2    1.294265 A    
O43   Cu12  1.955969 S    
C116  C120  1.395436 A    
C122  C136  1.477831 S    
C19   H11   1.086337 S    
C127  H95   1.082961 S    
C20   H12   1.086321 S    
O14   Cu3   1.960371 S    
O12   Cu2   1.964524 S    
C74   C78   1.396140 A    
Cu1   Cu3   2.670964 S    
C18   C22   1.339706 D    
Cu2   Cu4   2.670964 S    
C52   C72   1.408700 A    
O20   C98   1.293972 A    
C113  C123  1.402050 A    
C35   C39   1.408047 A    
C29   H105  1.082134 S    
C112  C124  1.475047 S    
C11   H3    1.086321 S    
C54   H30   1.083401 S    
C12   H4    1.086311 S    
C13   C99   1.454205 S    
C114  C123  1.402110 A    
C14   C100  1.454214 S    
C62   C66   1.395516 A    
O44   C110  1.294823 A    
C59   C63   1.399791 A    
N1    O49   1.300675 A    
C66   C70   1.408706 A    
O36   C106  1.291974 A    
