data_mof_unit_50820.cif
_audit_creation_date              2013-03-05T16:48:04-0500
_audit_creation_method            fapswitch 2.2
_symmetry_space_group_name_H-M    P1
_symmetry_Int_Tables_number       1
_space_group_crystal_system       triclinic
_cell_length_a                    19.284122
_cell_length_b                    8.916356
_cell_length_c                    8.091521
_cell_angle_alpha                 90.003698
_cell_angle_beta                  90.004941
_cell_angle_gamma                 89.999888
_cell_volume                      1391.28926281

loop_
_atom_site_label
_atom_site_type_symbol
_atom_site_description
_atom_site_fract_x
_atom_site_fract_y
_atom_site_fract_z
_atom_type_partial_charge
O1    O     O_R   0.500000 0.285350 0.636850 -0.607891
O2    O     O_R   0.500000 0.714650 0.363150 -0.608034
O3    O     O_R   0.500000 0.714650 0.636850 -0.607892
O4    O     O_R   0.500000 0.285350 0.363150 -0.608101
C1    C     C_R   0.499997 0.217964 0.499996 0.963307
C2    C     C_R   0.500003 0.782035 0.500003 0.963482
O5    O     O_R   0.398140 0.500000 0.636920 -0.582290
O6    O     O_R   0.601860 0.500000 0.363080 -0.582183
O7    O     O_R   0.601860 0.500000 0.636920 -0.582284
O8    O     O_R   0.398140 0.500000 0.363080 -0.582181
C3    C     C_R   0.365271 0.500033 0.499992 0.978323
C4    C     C_R   0.634728 0.499981 0.500006 0.978501
Zn1   Zn    Zn3+2 0.500000 0.500000 0.682780 1.132602
Zn2   Zn    Zn3+2 0.500000 0.500000 0.317220 1.132601
C5    C     C_1   0.499999 0.065214 0.499995 -0.079545
C6    C     C_1   0.500001 0.934786 0.500004 -0.079445
N1    N     N_1   0.500000 0.500000 0.073640 0.033011
N2    N     N_1   0.500000 0.500000 0.926360 0.032981
C7    C     C_R   0.253814 0.582885 0.621151 0.266839
C8    C     C_R   0.746258 0.582479 0.378967 0.266643
C9    C     C_R   0.746208 0.417225 0.621155 0.266773
C10   C     C_R   0.253717 0.417762 0.378837 0.266624
C11   C     C_R   0.181138 0.578998 0.626067 0.039635
C12   C     C_R   0.818932 0.578635 0.374326 0.039754
C13   C     C_R   0.818884 0.421141 0.626053 0.039646
C14   C     C_R   0.181045 0.421697 0.374175 0.039824
C15   C     C_R   0.145042 0.500303 0.500221 -0.063082
C16   C     C_R   0.854957 0.499945 0.500278 -0.063055
C17   C     C_R   0.289675 0.500226 0.499990 -0.318926
C18   C     C_R   0.710324 0.499888 0.500035 -0.318888
N3    N     N_R   0.034402 0.368965 0.501184 -0.177233
N4    N     N_R   0.965597 0.631291 0.501396 -0.177244
N5    N     N_R   0.965668 0.368876 0.499446 -0.177287
N6    N     N_R   0.034331 0.631382 0.499629 -0.177293
C19   C     C_R   0.930345 0.500038 0.500420 0.307351
C20   C     C_R   0.069654 0.500219 0.500391 0.307371
N7    N     N_R   0.291401 0.675461 0.735585 0.216045
O9    O     O_R   0.298741 0.633535 0.888538 -0.340940
O10   O     O_R   0.325906 0.790957 0.681750 -0.393520
N8    N     N_R   0.708748 0.674825 0.264196 0.215889
O11   O     O_R   0.701263 0.632253 0.111472 -0.341041
O12   O     O_R   0.674489 0.790898 0.317550 -0.393384
N9    N     N_R   0.708645 0.324658 0.735612 0.216019
O13   O     O_R   0.701305 0.366648 0.888548 -0.341026
O14   O     O_R   0.674147 0.209128 0.681804 -0.393495
N10   N     N_R   0.291200 0.325497 0.263946 0.215876
O15   O     O_R   0.298764 0.368282 0.111338 -0.340948
O16   O     O_R   0.325297 0.209126 0.317082 -0.393308
C21   C     C_3   0.143215 0.656833 0.767765 -0.367780
C22   C     C_3   0.138184 0.826174 0.740539 -0.754951
H1    H     H_    0.190316 0.878611 0.742618 0.293195
H2    H     H_    0.113158 0.851454 0.620213 0.260578
H3    H     H_    0.106653 0.877128 0.840708 0.234625
H4    H     H_    0.090352 0.610933 0.786392 0.198429
H5    H     H_    0.169806 0.634355 0.886767 0.238868
C23   C     C_3   0.856924 0.656461 0.232736 -0.367827
C24   C     C_3   0.861935 0.825810 0.259969 -0.755050
H6    H     H_    0.809807 0.878260 0.257508 0.293301
H7    H     H_    0.886811 0.851125 0.380468 0.260623
H8    H     H_    0.893593 0.876728 0.160008 0.234591
H9    H     H_    0.909799 0.610557 0.214263 0.198470
H10   H     H_    0.830378 0.633979 0.113667 0.238706
C25   C     C_3   0.856832 0.343212 0.767656 -0.367732
C26   C     C_3   0.861864 0.173891 0.740256 -0.755113
H11   H     H_    0.809732 0.121449 0.742295 0.293193
H12   H     H_    0.886876 0.148701 0.619895 0.260573
H13   H     H_    0.893408 0.122868 0.840366 0.234660
H14   H     H_    0.909698 0.389103 0.786303 0.198444
H15   H     H_    0.830257 0.365599 0.886693 0.238889
C27   C     C_3   0.143035 0.344103 0.232432 -0.367902
C28   C     C_3   0.137984 0.174722 0.259346 -0.755000
H16   H     H_    0.190098 0.122221 0.256831 0.293372
H17   H     H_    0.113091 0.149258 0.379773 0.260644
H18   H     H_    0.106324 0.123981 0.159259 0.234538
H19   H     H_    0.090170 0.390087 0.214025 0.198468
H20   H     H_    0.169590 0.366723 0.113419 0.238610

loop_
_geom_bond_atom_site_label_1
_geom_bond_atom_site_label_2
_geom_bond_distance
_ccdc_geom_bond_type
C28   H18   1.110475 S    
C22   H2    1.109777 S    
N9    O13   1.300596 A    
N3    N5    1.325546 A    
N4    N6    1.325553 A    
C27   C28   1.529003 S    
C10   C17   1.407939 A    
C11   C15   1.419005 A    
C15   C20   1.453788 S    
C12   C23   1.526807 S    
C12   C16   1.418985 A    
C9    C18   1.408044 A    
C25   H14   1.108828 S    
O7    Zn1   1.999056 S    
C7    C11   1.402497 A    
C14   C27   1.526800 S    
O3    Zn1   1.949668 S    
O5    Zn1   1.998995 S    
O6    C4    1.276383 A    
O3    C2    1.259840 A    
C4    C18   1.457801 S    
C26   H11   1.108860 S    
N8    O12   1.301512 A    
C22   H1    1.108851 S    
C14   C15   1.418974 A    
C28   H16   1.108842 S    
N7    O10   1.301197 A    
C21   H5    1.109162 S    
C13   C16   1.418993 A    
O5    C3    1.276396 A    
O4    C1    1.259838 A    
N9    O14   1.301209 A    
Zn2   N1    1.970933 S    
C24   H6    1.108871 S    
O2    C2    1.259818 A    
Zn1   N2    1.970933 S    
O2    Zn2   1.949621 S    
C5    C6    1.162943 T    
N8    O11   1.300748 A    
N5    C19   1.353430 A    
N7    O9    1.300581 A    
N1    N2    1.191718 T    
N6    C20   1.353434 A    
N3    C20   1.353438 A    
O4    Zn2   1.949669 S    
C8    N8    1.436535 S    
O7    C4    1.276390 A    
O6    Zn2   1.998993 S    
C1    C5    1.361977 S    
C24   H7    1.109786 S    
C11   C21   1.526782 S    
O8    C3    1.276385 A    
C27   H20   1.109235 S    
C2    C6    1.361977 S    
C21   H4    1.108819 S    
C7    C17   1.408046 A    
N4    C19   1.353441 A    
C8    C12   1.402366 A    
C26   H13   1.110462 S    
O1    C1    1.259820 A    
O1    Zn1   1.949622 S    
C23   C24   1.529015 S    
C3    C17   1.457803 S    
C21   C22   1.528986 S    
C10   C14   1.402351 A    
C27   H19   1.108842 S    
C28   H17   1.109787 S    
C9    C13   1.402482 A    
N10   O15   1.300654 A    
C13   C25   1.526796 S    
C24   H8    1.110485 S    
C8    C18   1.407967 A    
C7    N7    1.436629 S    
C10   N10   1.436500 S    
C22   H3    1.110449 S    
C23   H9    1.108856 S    
N10   O16   1.301468 A    
C23   H10   1.109219 S    
C9    N9    1.436618 S    
C25   H15   1.109172 S    
C16   C19   1.453794 S    
O8    Zn2   1.999057 S    
C25   C26   1.528989 S    
C26   H12   1.109787 S    
