data_mof_unit_48415.cif
_audit_creation_date              2012-12-10T18:06:49-0500
_audit_creation_method            fapswitch 2.2
_symmetry_space_group_name_H-M    P1
_symmetry_Int_Tables_number       1
_space_group_crystal_system       triclinic
_cell_length_a                    12.595097
_cell_length_b                    13.149075
_cell_length_c                    15.160266
_cell_angle_alpha                 84.565692
_cell_angle_beta                  98.858091
_cell_angle_gamma                 94.716116
_cell_volume                      2463.80867899

loop_
_atom_site_label
_atom_site_type_symbol
_atom_type_description
_atom_site_fract_x
_atom_site_fract_y
_atom_site_fract_z
_atom_type_partial_charge
C1    C     C_R   0.447120 0.307552 0.512903 0.886347
C2    C     C_R   0.637563 0.362827 0.937630 0.006718
C3    C     C_R   0.532393 0.392426 0.902136 0.063234
C4    C     C_R   0.434249 0.508675 0.335085 0.860231
C5    C     C_R   0.717637 0.372194 0.881201 -0.096866
C6    C     C_R   0.695295 0.413778 0.792820 -0.190078
C7    C     C_R   0.514887 0.441447 0.815924 -0.127259
C8    C     C_R   0.681421 0.882718 0.649762 -0.159518
C9    C     C_R   0.592612 0.790166 0.525098 -0.036606
C10   C     C_R   0.308305 0.173681 0.472936 -0.200314
C11   C     C_R   0.266931 0.073081 0.470619 -0.121534
C12   C     C_R   0.417010 0.421843 0.104031 0.125590
C13   C     C_R   0.331738 0.992782 0.503208 0.187987
C14   C     C_R   0.441958 0.016265 0.538237 0.000470
C15   C     C_R   0.481930 0.118836 0.551091 -0.036629
C16   C     C_R   0.556341 0.690560 0.495641 0.853326
C17   C     C_R   0.517770 0.941958 0.559040 0.068724
C18   C     C_R   0.604637 0.955996 0.628437 0.098733
C19   C     C_R   0.622090 0.050895 0.663691 -0.270904
C20   C     C_R   0.585709 0.133622 0.605205 0.370088
C21   C     C_R   0.518301 0.864060 0.503660 -0.219036
C22   C     C_R   0.674492 0.798961 0.598581 -0.203541
C23   C     C_R   0.308532 0.437774 0.068384 0.108844
C24   C     C_R   0.414179 0.198380 0.513164 -0.082856
C25   C     C_R   0.135879 0.638871 0.627676 -0.317831
C26   C     C_R   0.759219 0.392769 0.384694 0.143413
C27   C     C_R   0.855061 0.370443 0.358877 -0.186596
C28   C     C_R   0.563613 0.483423 0.665227 0.854835
C29   C     C_R   0.952080 0.409055 0.404087 -0.192593
C30   C     C_R   0.953248 0.472587 0.474439 0.016841
C31   C     C_R   0.853169 0.492293 0.498687 0.266416
C32   C     C_R   0.048970 0.520015 0.519262 -0.000677
C33   C     C_R   0.042629 0.588878 0.584854 0.195370
C34   C     C_R   0.485149 0.384603 0.050414 -0.046435
C35   C     C_R   0.943313 0.607675 0.606670 -0.280473
C36   C     C_R   0.850117 0.559721 0.564268 -0.192806
C37   C     C_R   0.151537 0.502658 0.501354 -0.002303
C38   C     C_R   0.234616 0.619094 0.606193 0.060638
C39   C     C_R   0.390245 0.491014 0.241917 -0.066611
C40   C     C_R   0.593851 0.449630 0.760080 -0.091730
C41   C     C_R   0.240919 0.475985 0.121090 -0.159627
C42   C     C_R   0.281474 0.502103 0.207647 -0.195818
C43   C     C_R   0.456853 0.451575 0.189659 -0.224458
C44   C     C_3   0.275840 0.886143 0.513052 -0.440809
C45   C     C_R   0.451033 0.385496 0.957549 -0.051420
C46   C     C_3   0.226702 0.846754 0.422823 -0.822675
C47   C     C_R   0.338621 0.386280 0.925173 0.356900
C48   C     C_R   0.269042 0.413995 0.981028 -0.310240
C49   C     C_R   0.586715 0.348120 0.085791 -0.276758
C50   C     C_R   0.660212 0.330254 0.029529 0.454287
H1    H     H_    0.183931 0.417675 0.955930 0.182932
H2    H     H_    0.439736 0.475901 0.792490 0.196878
H3    H     H_    0.937471 0.660294 0.656364 0.155701
H4    H     H_    0.132441 0.692058 0.677417 0.150121
H5    H     H_    0.164921 0.450124 0.454542 0.115654
H6    H     H_    0.683459 0.364956 0.348181 0.146234
H7    H     H_    0.024013 0.390490 0.380542 0.140460
H8    H     H_    0.854329 0.324367 0.303421 0.212535
H9    H     H_    0.776410 0.579227 0.582292 0.196858
H10   H     H_    0.757718 0.418678 0.750497 0.195681
H11   H     H_    0.157030 0.486237 0.095163 0.155930
H12   H     H_    0.798704 0.350775 0.905000 0.217929
H13   H     H_    0.227873 0.530401 0.247686 0.158229
H14   H     H_    0.541144 0.446816 0.215693 0.152399
H15   H     H_    0.608534 0.330620 0.157039 0.183394
H16   H     H_    0.156977 0.890799 0.391902 0.257322
H17   H     H_    0.286449 0.853060 0.375650 0.256745
H18   H     H_    0.197591 0.765089 0.433200 0.255244
H19   H     H_    0.330073 0.829833 0.550874 0.215946
H20   H     H_    0.210030 0.888723 0.553802 0.216779
H21   H     H_    0.794064 0.069725 0.545403 0.365790
H22   H     H_    0.946401 0.331752 0.116015 0.380989
H23   H     H_    0.729483 0.739216 0.618832 0.130748
H24   H     H_    0.187423 0.462822 0.770042 0.345598
H25   H     H_    0.692443 0.063626 0.713547 0.204300
H26   H     H_    0.747743 0.891630 0.703794 0.159515
H27   H     H_    0.457873 0.857339 0.445284 0.159414
H28   H     H_    0.255497 0.233283 0.444523 0.161206
H29   H     H_    0.182705 0.058016 0.444432 0.160541
H30   H     H_    0.308010 0.655983 0.639200 0.126461
N1    N     N_R   0.239390 0.551900 0.544730 -0.090489
N2    N     N_R   0.759950 0.448600 0.455730 -0.107995
O1    O     O_R   0.374950 0.371210 0.521360 -0.595144
O2    O     O_2   0.725967 0.297387 0.594492 -0.258728
O3    O     O_3   0.806327 0.125882 0.585784 -0.524011
O4    O     O_2   0.770174 0.222122 0.168616 -0.315648
O5    O     O_2   0.807529 0.197189 0.018742 -0.279792
O6    O     O_3   0.881787 0.367273 0.087740 -0.591482
O7    O     O_2   0.354029 0.268487 0.791073 -0.254456
O8    O     O_2   0.178978 0.266610 0.841746 -0.252503
O9    O     O_3   0.241161 0.427013 0.745521 -0.549124
O10   O     O_R   0.542050 0.338030 0.492790 -0.531893
O11   O     O_R   0.368720 0.526070 0.390200 -0.623852
O12   O     O_R   0.535820 0.492890 0.361630 -0.630857
O13   O     O_R   0.457950 0.661970 0.507210 -0.618948
O14   O     O_R   0.625050 0.628790 0.478640 -0.634297
O15   O     O_R   0.464180 0.507110 0.638370 -0.589722
O16   O     O_R   0.631280 0.473930 0.609800 -0.607891
O17   O     O_2   0.670241 0.205126 0.458191 -0.325982
S1    S     S_3+6 0.697208 0.194787 0.558479 0.037425
S2    S     S_3+6 0.781483 0.274578 0.077725 -0.002749
S3    S     S_3+6 0.277931 0.332947 0.824552 0.035741
Zn1   Zn    Zn3+2 0.388420 0.522150 0.519080 0.977144
Zn2   Zn    Zn3+2 0.611580 0.477850 0.480920 1.003730

loop_
_geom_bond_atom_site_label_1
_geom_bond_atom_site_label_2
_ccdc_geom_bond_type
C28   O15   A    
O7    S3    D    
C27   C29   A    
C41   C42   A    
C19   C20   A    
C41   H11   S    
C36   H9    S    
O11   Zn1   S    
O6    S2    S    
C10   H28   S    
C12   C23   A    
C26   C27   A    
C31   N2    A    
O1    Zn1   S    
C9    C16   S    
C7    H2    S    
C46   H16   S    
C12   C43   A    
C3    C7    A    
C30   C31   A    
C9    C22   A    
C35   H3    S    
C28   C40   S    
C8    H26   S    
C18   C19   A    
O8    S3    D    
C2    C50   A    
H21   O3    S    
C48   H1    S    
O17   S1    D    
C44   C46   S    
C16   O13   A    
C8    C22   A    
C7    C40   A    
C44   H20   S    
O12   Zn2   S    
C26   N2    A    
C47   S3    S    
O5    S2    D    
C13   C14   A    
C14   C17   A    
C37   N1    A    
H22   O6    S    
O13   Zn1   S    
C43   H14   S    
C39   C42   A    
C45   C47   A    
C15   C20   A    
C16   O14   A    
O2    S1    D    
C6    H10   S    
C25   H4    S    
C39   C43   A    
C10   C24   A    
C3    C45   A    
C8    C18   A    
C35   C36   A    
H24   O9    S    
C46   H18   S    
C29   C30   A    
C49   H15   S    
C25   C38   A    
C47   C48   A    
C20   S1    S    
C4    C39   S    
C17   C18   A    
C44   H19   S    
C34   C45   A    
C32   C37   A    
O15   Zn1   S    
C11   H29   S    
C50   S2    S    
C4    O12   A    
C15   C24   A    
C29   H7    S    
C1    O10   A    
O14   Zn2   S    
C38   N1    A    
C6    C40   A    
C2    C5    A    
O9    S3    S    
C12   C34   A    
N1    Zn1   S    
C28   O16   A    
C34   C49   A    
C23   C48   A    
C31   C36   A    
C27   H8    S    
C26   H6    S    
C1    O1    A    
C23   C41   A    
C32   C33   A    
C19   H25   S    
C2    C3    A    
C46   H17   S    
O3    S1    S    
C30   C32   A    
C11   C13   A    
C9    C21   A    
C5    C6    A    
C38   H30   S    
O16   Zn2   S    
C33   C35   A    
C5    H12   S    
C17   C21   A    
C10   C11   A    
O10   Zn2   S    
C4    O11   A    
C37   H5    S    
C1    C24   S    
C49   C50   A    
C21   H27   S    
N2    Zn2   S    
C14   C15   A    
C22   H23   S    
O4    S2    D    
C42   H13   S    
C13   C44   S    
C25   C33   A    
