data_mof_unit_64687.cif
_audit_creation_date              2012-12-10T20:09:45-0500
_audit_creation_method            fapswitch 2.2
_symmetry_space_group_name_H-M    P1
_symmetry_Int_Tables_number       1
_space_group_crystal_system       triclinic
_cell_length_a                    22.525427
_cell_length_b                    22.518217
_cell_length_c                    21.286282
_cell_angle_alpha                 89.999944
_cell_angle_beta                  58.050444
_cell_angle_gamma                 90.000018
_cell_volume                      9161.48801109

loop_
_atom_site_label
_atom_site_type_symbol
_atom_type_description
_atom_site_fract_x
_atom_site_fract_y
_atom_site_fract_z
_atom_type_partial_charge
C1    C     C_R   0.400166 0.249976 0.699657 0.821148
C2    C     C_3   0.286545 0.750688 0.926482 -0.002251
C3    C     C_3   0.894179 0.395683 0.033354 -0.796508
C4    C     C_3   0.789442 0.599494 0.000957 0.073884
C5    C     C_3   0.772636 0.536397 0.030857 -0.689001
C6    C     C_3   0.128836 0.346926 0.998551 0.115055
C7    C     C_3   0.106065 0.395939 0.966619 -0.796570
C8    C     C_3   0.628656 0.153298 0.998555 0.115093
C9    C     C_3   0.605818 0.104317 0.966649 -0.796504
C10   C     C_3   0.289130 0.900584 0.000965 0.073652
C11   C     C_3   0.272170 0.963680 0.030849 -0.688793
C12   C     C_3   0.371164 0.153074 0.001448 0.115053
C13   C     C_3   0.286963 0.249055 0.926494 -0.002100
C14   C     C_3   0.393933 0.104057 0.033376 -0.796569
C15   C     C_3   0.710562 0.900506 0.999043 0.073909
C16   C     C_3   0.727359 0.963603 0.969137 -0.689011
C17   C     C_3   0.713457 0.750688 0.073517 -0.002240
C18   C     C_3   0.213455 0.749312 0.073517 -0.002248
C19   C     C_3   0.786964 0.250943 0.926494 -0.002105
C20   C     C_3   0.786544 0.749312 0.926482 -0.002239
C21   C     C_3   0.213037 0.250944 0.073506 -0.002100
C22   C     C_1   0.672799 0.249481 0.154498 0.102162
C23   C     C_1   0.327139 0.750195 0.845493 0.103129
C24   C     C_1   0.327198 0.249478 0.845502 0.102167
C25   C     C_R   0.599795 0.749970 0.300346 0.824826
C26   C     C_1   0.672864 0.750196 0.154507 0.103136
C27   C     C_1   0.172862 0.749805 0.154507 0.103130
C28   C     C_1   0.827200 0.250520 0.845502 0.102160
C29   C     C_1   0.827137 0.749805 0.845493 0.103136
C30   C     C_1   0.172801 0.250522 0.154498 0.102166
C31   C     C_1   0.276625 0.250007 0.500002 -0.143690
C32   C     C_1   0.723375 0.749993 0.499998 -0.140948
C33   C     C_1   0.723375 0.250007 0.499998 -0.143687
C34   C     C_1   0.276625 0.749993 0.500002 -0.140959
C35   C     C_1   0.776625 0.750007 0.500002 -0.140948
C36   C     C_R   0.599834 0.249977 0.300343 0.821138
C37   C     C_1   0.223375 0.249993 0.499998 -0.143690
C38   C     C_1   0.223375 0.750007 0.499998 -0.140959
C39   C     C_1   0.776624 0.249993 0.500002 -0.143687
C40   C     C_1   0.500000 0.026630 0.500000 -0.142850
C41   C     C_1   0.500000 0.973370 0.500000 -0.143583
C42   C     C_1   0.000000 0.526630 0.500000 -0.143583
C43   C     C_1   0.000000 0.473370 0.500000 -0.142850
C44   C     C_R   0.660138 0.250015 0.500000 0.843078
C45   C     C_R   0.339861 0.749985 0.500000 0.844988
C46   C     C_R   0.339862 0.250015 0.500000 0.843073
C47   C     C_R   0.400205 0.749970 0.699654 0.824827
C48   C     C_R   0.660138 0.749985 0.500000 0.844994
C49   C     C_R   0.160138 0.750015 0.500000 0.844988
C50   C     C_R   0.839862 0.249985 0.500000 0.843079
C51   C     C_R   0.839861 0.750015 0.500000 0.844994
C52   C     C_R   0.160138 0.249985 0.500000 0.843073
C53   C     C_R   0.500000 0.089872 0.500000 0.846548
C54   C     C_R   0.500000 0.910127 0.500000 0.845673
C55   C     C_R   1.000000 0.589873 0.500000 0.845673
C56   C     C_R   1.000000 0.410127 0.500000 0.846548
C57   C     C_R   0.500000 0.410144 0.500000 0.843138
C58   C     C_R   0.900205 0.750030 0.699654 0.824828
C59   C     C_R   0.500000 0.589856 0.500000 0.844104
C60   C     C_R   0.000000 0.910144 0.500000 0.844104
C61   C     C_R   1.000000 0.089856 0.500000 0.843138
C62   C     C_1   0.500000 0.473374 0.500000 -0.139375
C63   C     C_1   0.500000 0.526626 0.500000 -0.138950
C64   C     C_1   0.000000 0.973374 0.500000 -0.138950
C65   C     C_1   1.000000 0.026626 0.500000 -0.139375
C66   C     C_3   0.218731 0.786310 0.976354 -0.111733
C67   C     C_3   0.750721 0.194919 0.023350 -0.098729
C68   C     C_3   0.781193 0.786403 0.023644 -0.111788
C69   C     C_R   0.099834 0.250023 0.300343 0.821147
C70   C     C_3   0.249179 0.194940 0.976653 -0.098706
C71   C     C_3   0.749277 0.305082 0.976650 -0.098730
C72   C     C_3   0.281269 0.713690 0.023646 -0.111735
C73   C     C_3   0.250820 0.305059 0.023347 -0.098709
C74   C     C_3   0.718808 0.713597 0.976356 -0.111784
C75   C     C_3   0.682926 0.267028 0.025349 -0.408989
C76   C     C_3   0.316320 0.769271 0.974751 -0.409394
C77   C     C_3   0.317103 0.266930 0.974650 -0.408960
C78   C     C_3   0.683639 0.769156 0.025251 -0.409345
C79   C     C_3   0.183680 0.730729 0.025249 -0.409400
C80   C     C_R   0.099795 0.750030 0.300346 0.824826
C81   C     C_3   0.817073 0.232973 0.974651 -0.408985
C82   C     C_3   0.816363 0.730845 0.974749 -0.409346
C83   C     C_3   0.182896 0.233069 0.025350 -0.408959
C84   C     C_1   0.639545 0.249788 0.221106 -0.099490
C85   C     C_1   0.360527 0.750016 0.778887 -0.096934
C86   C     C_1   0.360453 0.249786 0.778894 -0.099505
C87   C     C_1   0.639475 0.750016 0.221113 -0.096931
C88   C     C_1   0.139473 0.749984 0.221113 -0.096934
C89   C     C_1   0.860454 0.250212 0.778894 -0.099490
C90   C     C_1   0.860526 0.749984 0.778887 -0.096930
C91   C     C_R   0.900166 0.250023 0.699657 0.821139
C92   C     C_1   0.139546 0.250213 0.221106 -0.099505
C93   C     C_3   0.778385 0.287118 0.024969 0.502085
C94   C     C_3   0.252317 0.695666 0.975209 0.512413
C95   C     C_3   0.221681 0.287189 0.975029 0.502066
C96   C     C_3   0.747803 0.695687 0.024789 0.512385
C97   C     C_3   0.247683 0.804334 0.024791 0.512419
C98   C     C_3   0.721614 0.212882 0.975031 0.502084
C99   C     C_3   0.752199 0.804314 0.975210 0.512379
C100  C     C_3   0.278319 0.212810 0.024971 0.502065
C101  C     C_2   0.182821 0.827611 0.951679 0.939962
C102  C     C_3   0.713034 0.249058 0.073506 -0.002104
C103  C     C_2   0.752296 0.132769 0.047528 0.924963
C104  C     C_2   0.817018 0.827806 0.048317 0.939978
C105  C     C_2   0.247487 0.132815 0.952478 0.924877
C106  C     C_2   0.747702 0.367231 0.952472 0.924955
C107  C     C_2   0.317178 0.672389 0.048321 0.939964
C108  C     C_2   0.252512 0.367184 0.047522 0.924874
C109  C     C_2   0.682984 0.672193 0.951683 0.939987
C110  C     C_3   0.210867 0.599417 0.999035 0.073677
C111  C     C_3   0.227818 0.536321 0.969150 -0.688815
C112  C     C_3   0.871340 0.346707 0.001445 0.115096
H1    H     H_    0.628233 0.281038 0.046599 0.177574
H2    H     H_    0.720762 0.075172 0.131875 0.345612
H3    H     H_    0.818143 0.866155 0.133230 0.352032
H4    H     H_    0.278925 0.075232 0.868135 0.345597
H5    H     H_    0.779235 0.424828 0.868125 0.345612
H6    H     H_    0.318381 0.634132 0.133235 0.352024
H7    H     H_    0.221075 0.424767 0.131865 0.345599
H8    H     H_    0.681858 0.633844 0.866771 0.352032
H9    H     H_    0.156858 0.610101 0.013437 0.144451
H10   H     H_    0.213154 0.601096 0.050022 0.144173
H11   H     H_    0.281638 0.524408 0.954106 0.293367
H12   H     H_    0.370483 0.784779 0.953639 0.178431
H13   H     H_    0.190212 0.504860 0.012001 0.205480
H14   H     H_    0.224127 0.532498 0.919303 0.247009
H15   H     H_    0.871895 0.365019 0.952543 0.139470
H16   H     H_    0.909802 0.309783 0.983414 0.142478
H17   H     H_    0.896747 0.378331 0.080706 0.259510
H18   H     H_    0.946724 0.412223 0.990175 0.201428
H19   H     H_    0.856418 0.433112 0.052695 0.261790
H20   H     H_    0.843441 0.610277 0.986514 0.144430
H21   H     H_    0.787114 0.601106 0.949993 0.144167
H22   H     H_    0.718823 0.524391 0.045959 0.293442
H23   H     H_    0.371820 0.280863 0.953398 0.177567
H24   H     H_    0.810278 0.504963 0.987991 0.205407
H25   H     H_    0.776393 0.532637 0.080668 0.246975
H26   H     H_    0.128331 0.365229 0.047429 0.139483
H27   H     H_    0.090307 0.310052 0.016622 0.142458
H28   H     H_    0.103446 0.378597 0.919294 0.259510
H29   H     H_    0.053556 0.412544 0.009799 0.201447
H30   H     H_    0.143894 0.433318 0.947232 0.261773
H31   H     H_    0.590196 0.190222 0.016577 0.142480
H32   H     H_    0.628095 0.134991 0.047462 0.139468
H33   H     H_    0.643576 0.066885 0.947320 0.261785
H34   H     H_    0.629441 0.784568 0.046367 0.178449
H35   H     H_    0.553270 0.087783 0.009827 0.201427
H36   H     H_    0.603259 0.121663 0.919290 0.259513
H37   H     H_    0.286846 0.898901 0.949977 0.144169
H38   H     H_    0.343139 0.889905 0.986566 0.144457
H39   H     H_    0.275859 0.967506 0.080698 0.247011
H40   H     H_    0.309773 0.995141 0.987998 0.205485
H41   H     H_    0.218349 0.975586 0.045890 0.293365
H42   H     H_    0.409693 0.189948 0.983383 0.142460
H43   H     H_    0.371672 0.134776 0.952567 0.139481
H44   H     H_    0.356104 0.066677 0.052757 0.261772
H45   H     H_    0.129516 0.715222 0.046361 0.178430
H46   H     H_    0.446443 0.087453 0.990196 0.201447
H47   H     H_    0.396549 0.121393 0.080705 0.259511
H48   H     H_    0.712902 0.898901 0.050000 0.144172
H49   H     H_    0.656561 0.889719 0.013498 0.144419
H50   H     H_    0.723589 0.967357 0.919333 0.246968
H51   H     H_    0.689721 0.995036 0.012004 0.205409
H52   H     H_    0.781175 0.975613 0.954021 0.293442
H53   H     H_    0.871765 0.218962 0.953401 0.177574
H54   H     H_    0.870560 0.715432 0.953633 0.178449
H55   H     H_    0.128179 0.219136 0.046601 0.177568
H56   H     H_    0.181618 0.865867 0.866765 0.352024
O1    O     O_3   0.500000 0.250010 0.500000 -0.496116
O2    O     O_R   0.116800 0.215380 0.335590 -0.627619
O3    O     O_R   0.116800 0.784620 0.335590 -0.624854
O4    O     O_R   0.883200 0.215380 0.664410 -0.627623
O5    O     O_R   0.610480 0.215400 0.543100 -0.635707
O6    O     O_R   0.389520 0.784600 0.456900 -0.634766
O7    O     O_R   0.389520 0.215400 0.456900 -0.635707
O8    O     O_R   0.610480 0.784600 0.543100 -0.634760
O9    O     O_R   0.110480 0.715400 0.543100 -0.634766
O10   O     O_R   0.889520 0.284600 0.456900 -0.635707
O11   O     O_R   0.889520 0.715400 0.456900 -0.634760
O12   O     O_3   0.500000 0.749990 0.500000 -0.496398
O13   O     O_R   0.110480 0.284600 0.543100 -0.635707
O14   O     O_R   0.513060 0.117980 0.543100 -0.633075
O15   O     O_R   0.486940 0.882020 0.456900 -0.634112
O16   O     O_R   0.486940 0.117980 0.456900 -0.633067
O17   O     O_R   0.513060 0.882020 0.543100 -0.634119
O18   O     O_R   0.013060 0.617980 0.543100 -0.634112
O19   O     O_R   0.986940 0.382020 0.456900 -0.633075
O20   O     O_R   0.986940 0.617980 0.456900 -0.634118
O21   O     O_R   0.013060 0.382020 0.543100 -0.633067
O22   O     O_R   0.443850 0.382040 0.543100 -0.633349
O23   O     O_3   1.000000 0.750010 0.500000 -0.496398
O24   O     O_R   0.556150 0.617960 0.456900 -0.633355
O25   O     O_R   0.556150 0.382040 0.456900 -0.633346
O26   O     O_R   0.443850 0.617960 0.543100 -0.633361
O27   O     O_R   0.943850 0.882040 0.543100 -0.633355
O28   O     O_R   0.056150 0.117960 0.456900 -0.633349
O29   O     O_R   0.056150 0.882040 0.456900 -0.633361
O30   O     O_R   0.943850 0.117960 0.543100 -0.633346
O31   O     O_R   0.653580 0.284630 0.456900 -0.633065
O32   O     O_R   0.346420 0.715370 0.543100 -0.632610
O33   O     O_R   0.346420 0.284630 0.543100 -0.633068
O34   O     O_3   0.000000 0.249990 0.500000 -0.496116
O35   O     O_R   0.653580 0.715370 0.456900 -0.632609
O36   O     O_R   0.153580 0.784630 0.456900 -0.632610
O37   O     O_R   0.846420 0.215370 0.543100 -0.633065
O38   O     O_R   0.846420 0.784630 0.543100 -0.632609
O39   O     O_R   0.153580 0.215370 0.456900 -0.633068
O40   O     O_R   0.452420 0.215390 0.664410 -0.633025
O41   O     O_R   0.547580 0.784610 0.335590 -0.638224
O42   O     O_R   0.547580 0.215390 0.335590 -0.633003
O43   O     O_R   0.452420 0.784610 0.664410 -0.638232
O44   O     O_R   0.952420 0.715390 0.664410 -0.638224
O45   O     O_R   0.383200 0.284620 0.664410 -0.627619
O46   O     O_R   0.047580 0.284610 0.335590 -0.633024
O47   O     O_R   0.047580 0.715390 0.335590 -0.638231
O48   O     O_R   0.952420 0.284610 0.664410 -0.633004
O49   O     O_2   0.129384 0.853089 0.997931 -0.578418
O50   O     O_R   0.210505 0.836942 0.876261 -0.819471
O51   O     O_2   0.785501 0.094684 0.000971 -0.611112
O52   O     O_R   0.715859 0.118584 0.122789 -0.818781
O53   O     O_2   0.870398 0.853352 0.002064 -0.578388
O54   O     O_R   0.789319 0.837156 0.123735 -0.819453
O55   O     O_2   0.214194 0.094754 0.999038 -0.611163
O56   O     O_R   0.616800 0.715380 0.335590 -0.624855
O57   O     O_R   0.283913 0.118626 0.877219 -0.818810
O58   O     O_2   0.714495 0.405316 0.999029 -0.611114
O59   O     O_R   0.784139 0.381417 0.877211 -0.818781
O60   O     O_2   0.370615 0.646911 0.002069 -0.578415
O61   O     O_R   0.289495 0.663057 0.123739 -0.819472
O62   O     O_2   0.285805 0.405245 0.000962 -0.611161
O63   O     O_R   0.216087 0.381373 0.122781 -0.818810
O64   O     O_2   0.629604 0.646648 0.997936 -0.578389
O65   O     O_R   0.710682 0.662843 0.876266 -0.819454
O66   O     O_3   0.259211 0.638785 0.944161 -0.585501
O67   O     O_R   0.616800 0.284620 0.335590 -0.627623
O68   O     O_3   0.804039 0.326878 0.056426 -0.585729
O69   O     O_3   0.741036 0.638826 0.055839 -0.585499
O70   O     O_3   0.196097 0.327019 0.943569 -0.585737
O71   O     O_3   0.695960 0.173122 0.943574 -0.585728
O72   O     O_3   0.240789 0.861214 0.055840 -0.585503
O73   O     O_3   0.303903 0.172980 0.056431 -0.585736
O74   O     O_3   0.758965 0.861174 0.944160 -0.585500
O75   O     O_R   0.383200 0.715380 0.664410 -0.624854
O76   O     O_R   0.883200 0.784620 0.664410 -0.624855
Zn1   Zn    Zn3+2 0.580250 0.299470 0.438420 0.996507
Zn2   Zn    Zn3+2 0.481330 0.799450 0.438420 0.991796
Zn3   Zn    Zn3+2 0.481330 0.200550 0.438420 0.992704
Zn4   Zn    Zn3+2 0.518670 0.799450 0.561580 0.991796
Zn5   Zn    Zn3+2 0.018670 0.700550 0.561580 0.991796
Zn6   Zn    Zn3+2 0.981330 0.299450 0.438420 0.992692
Zn7   Zn    Zn3+2 0.981330 0.700550 0.438420 0.991795
Zn8   Zn    Zn3+2 0.018670 0.299450 0.561580 0.992704
Zn9   Zn    Zn3+2 0.419750 0.700530 0.561580 1.000055
Zn10  Zn    Zn3+2 0.419750 0.299470 0.561580 0.996502
Zn11  Zn    Zn3+2 0.580250 0.700530 0.438420 1.000065
Zn12  Zn    Zn3+2 0.080250 0.799470 0.438420 1.000055
Zn13  Zn    Zn3+2 0.919750 0.200530 0.561580 0.996507
Zn14  Zn    Zn3+2 0.919750 0.799470 0.561580 1.000066
Zn15  Zn    Zn3+2 0.080250 0.200530 0.438420 0.996502
Zn16  Zn    Zn3+2 0.518670 0.200550 0.561580 0.992692

loop_
_geom_bond_atom_site_label_1
_geom_bond_atom_site_label_2
_ccdc_geom_bond_type
C8    C9    S    
C5    H24   S    
O34   Zn8   S    
C93   O68   S    
C10   O72   S    
O40   Zn16  S    
C20   C82   S    
O20   Zn7   S    
C3    H18   S    
C55   O20   A    
C96   O69   S    
H3    O54   S    
C19   C71   S    
C81   H53   S    
C72   C76   S    
C74   C109  S    
O67   Zn1   S    
O45   Zn10  S    
C51   O38   A    
C67   C103  S    
C57   C62   S    
C4    H20   S    
C38   C49   S    
C108  O62   D    
C16   H52   S    
C45   O32   A    
C66   C79   S    
C6    O70   S    
C48   O35   A    
C33   C39   T    
C91   O4    A    
C13   C95   S    
O21   Zn8   S    
C3    H19   S    
C17   C26   S    
C47   C85   S    
C66   C97   S    
C67   C102  S    
C50   O10   A    
C47   O43   A    
C106  O59   S    
C110  H9    S    
C7    H28   S    
O36   Zn12  S    
C109  O64   D    
O23   Zn14  S    
C13   C70   S    
H6    O61   S    
O33   Zn10  S    
C52   O39   A    
C21   C73   S    
C110  O66   S    
C25   C87   S    
O11   Zn7   S    
C25   O56   A    
C55   O18   A    
C11   H41   S    
C6    H27   S    
C1    O40   A    
C110  C111  S    
C112  H15   S    
C67   C98   S    
C101  O50   S    
O12   Zn11  S    
C46   O33   A    
C21   C83   S    
O29   Zn12  S    
C18   C79   S    
O18   Zn5   S    
C54   O17   A    
O3    Zn12  S    
O46   Zn6   S    
C75   C102  S    
O23   Zn7   S    
C4    O69   S    
C72   C107  S    
O2    Zn15  S    
C75   H1    S    
C18   C97   S    
C105  O57   S    
C89   C91   S    
C69   C92   S    
O1    Zn1   S    
O35   Zn11  S    
H7    O63   S    
O32   Zn9   S    
C72   C94   S    
O7    Zn3   S    
O38   Zn14  S    
C49   O36   A    
O39   Zn15  S    
C59   O26   A    
C34   C38   T    
C2    C66   S    
O47   Zn7   S    
C32   C48   S    
C66   C101  S    
C59   O24   A    
C61   O30   A    
O42   Zn3   S    
C111  H14   S    
C51   O11   A    
C104  O54   S    
C29   C90   T    
C19   C98   S    
C70   C100  S    
C80   O47   A    
C49   O9    A    
C20   C29   S    
C16   H51   S    
C18   C72   S    
C5    H22   S    
C53   O14   A    
C13   C77   S    
C71   C75   S    
C82   C96   S    
C69   O46   A    
C111  H11   S    
C76   H12   S    
C32   C35   T    
C74   C96   S    
C2    C94   S    
O76   Zn14  S    
C44   O5    A    
O13   Zn8   S    
C79   C94   S    
C30   C92   T    
O34   Zn13  S    
C12   H42   S    
C17   C96   S    
C37   C52   S    
C78   H34   S    
C26   C87   T    
C73   C108  S    
O37   Zn13  S    
C98   O71   S    
C16   H50   S    
C76   C97   S    
C112  O68   S    
C83   H55   S    
C31   C46   S    
C75   C98   S    
O1    Zn3   S    
C31   C37   T    
C13   C24   S    
C57   O25   A    
C36   O67   A    
O15   Zn2   S    
C22   C84   T    
O43   Zn4   S    
C6    H26   S    
O28   Zn15  S    
C25   O41   A    
C111  H13   S    
C91   O48   A    
C70   C83   S    
C61   C65   S    
H8    O65   S    
O1    Zn16  S    
C81   C93   S    
C43   C56   S    
O10   Zn6   S    
C56   O19   A    
C3    C112  S    
O48   Zn8   S    
O24   Zn11  S    
O9    Zn5   S    
C107  O60   D    
C62   C63   T    
C106  O58   D    
O12   Zn2   S    
C20   C74   S    
C8    H32   S    
C34   C45   S    
C83   C95   S    
C52   O13   A    
C58   O76   A    
C19   C28   S    
C58   C90   S    
C61   O28   A    
O8    Zn4   S    
C28   C89   T    
C60   O29   A    
O5    Zn16  S    
O17   Zn4   S    
O12   Zn4   S    
C11   H39   S    
C40   C41   T    
O34   Zn6   S    
C12   C14   S    
C67   C81   S    
C107  O61   S    
C35   C51   S    
O16   Zn3   S    
C53   O16   A    
O27   Zn14  S    
C42   C43   T    
C73   C95   S    
C12   H43   S    
C112  H16   S    
C104  O53   D    
C7    H29   S    
C2    C76   S    
O6    Zn2   S    
C82   H54   S    
C8    O71   S    
C1    C86   S    
C21   C100  S    
C97   O72   S    
C56   O21   A    
H5    O59   S    
C17   C68   S    
O25   Zn1   S    
C14   H44   S    
C3    H17   S    
C33   C44   S    
O1    Zn10  S    
C15   H49   S    
C94   O66   S    
C18   C27   S    
C68   C104  S    
H2    O52   S    
C4    C5    S    
C14   H46   S    
C70   C105  S    
C22   C102  S    
C93   C102  S    
C79   H45   S    
C108  O63   S    
O12   Zn9   S    
C40   C53   S    
C5    H25   S    
C6    C7    S    
C71   C93   S    
C58   O44   A    
C77   C100  S    
C78   C99   S    
O14   Zn16  S    
C21   C30   S    
C103  O52   S    
C9    H36   S    
C59   C63   S    
O23   Zn12  S    
O75   Zn9   S    
O26   Zn9   S    
C14   H47   S    
C60   C64   S    
C68   C82   S    
C64   C65   T    
O19   Zn6   S    
O4    Zn13  S    
C68   C99   S    
C23   C85   T    
C57   O22   A    
C10   H37   S    
C105  O55   D    
C45   O6    A    
C110  H10   S    
C47   O75   A    
C20   C99   S    
C19   C81   S    
C36   C84   S    
C42   C55   S    
C9    H33   S    
C17   C78   S    
O23   Zn5   S    
C9    H35   S    
C8    H31   S    
C69   O2    A    
O30   Zn13  S    
C27   C88   T    
C41   C54   S    
C15   O74   S    
C10   C11   S    
O31   Zn1   S    
H4    O57   S    
C46   O7    A    
C50   O37   A    
C101  O49   D    
C11   H40   S    
C15   H48   S    
C39   C50   S    
C60   O27   A    
C44   O31   A    
C80   C88   S    
C12   O73   S    
C74   C78   S    
C71   C106  S    
C103  O51   D    
C2    C23   S    
O22   Zn10  S    
C99   O74   S    
C73   C77   S    
C54   O15   A    
C77   H23   S    
C80   O3    A    
H56   O50   S    
O44   Zn5   S    
O34   Zn15  S    
C24   C86   T    
O41   Zn2   S    
C95   O70   S    
C7    H30   S    
C10   H38   S    
C100  O73   S    
C15   C16   S    
O56   Zn11  S    
C36   O42   A    
C4    H21   S    
C48   O8    A    
C1    O45   A    
C109  O65   S    
