data_mof_unit_32348.cif
_audit_creation_date              2012-12-10T17:27:55-0500
_audit_creation_method            fapswitch 2.2
_symmetry_space_group_name_H-M    P1
_symmetry_Int_Tables_number       1
_space_group_crystal_system       triclinic
_cell_length_a                    10.630902
_cell_length_b                    11.992653
_cell_length_c                    12.878282
_cell_angle_alpha                 93.270212
_cell_angle_beta                  90.189701
_cell_angle_gamma                 86.537469
_cell_volume                      1636.22116523

loop_
_atom_site_label
_atom_site_type_symbol
_atom_type_description
_atom_site_fract_x
_atom_site_fract_y
_atom_site_fract_z
_atom_type_partial_charge
C1    C     C_R   0.499156 0.521977 0.700441 0.885306
C2    C     C_R   0.459815 0.637980 0.862393 -0.210143
C3    C     C_R   0.530290 0.441305 0.867793 -0.278338
C4    C     C_R   0.739500 0.499976 0.496768 0.869908
C5    C     C_R   0.521007 0.448437 0.974426 0.189017
C6    C     C_R   0.480545 0.551545 0.025684 0.186165
C7    C     C_R   0.470840 0.558625 0.132259 -0.271699
C8    C     C_R   0.541755 0.362078 0.137790 -0.223085
C9    C     C_R   0.550718 0.353881 0.030429 -0.222861
C10   C     C_R   0.384489 0.954320 0.401065 -0.331583
C11   C     C_R   0.395438 0.838105 0.410722 0.028315
C12   C     C_R   0.938042 0.435074 0.409969 0.095498
C13   C     C_R   0.549605 0.858417 0.542883 -0.048534
C14   C     C_R   0.541896 0.975789 0.535947 0.092446
C15   C     C_R   0.458099 0.024222 0.463981 0.093187
C16   C     C_R   0.501057 0.478011 0.299576 0.854955
C17   C     C_R   0.450371 0.141603 0.457086 -0.048050
C18   C     C_R   0.604613 0.161870 0.589216 0.030602
C19   C     C_R   0.615537 0.045671 0.598853 -0.332526
C20   C     C_R   0.260494 0.499200 0.497160 0.871890
C21   C     C_R   0.876594 0.374403 0.329233 -0.175554
C22   C     C_R   0.946076 0.312777 0.251644 -0.133150
C23   C     C_R   0.871638 0.499963 0.489124 -0.095471
C24   C     C_R   0.077066 0.311511 0.252373 -0.139714
C25   C     C_R   0.139036 0.371970 0.330627 -0.192850
C26   C     C_R   0.069995 0.433887 0.410652 0.094991
C27   C     C_R   0.931524 0.565867 0.564090 -0.214451
C28   C     C_R   0.060070 0.564770 0.564729 -0.204515
C29   C     C_R   0.128314 0.497836 0.490367 -0.097986
C30   C     C_R   0.503094 0.464833 0.188283 -0.046935
C31   C     C_R   0.497836 0.535121 0.811794 -0.053667
C32   C     C_R   0.451069 0.646167 0.969749 -0.222133
H1    H     H_    0.878534 0.616065 0.623644 0.147687
H2    H     H_    0.613523 0.819681 0.597723 0.123948
H3    H     H_    0.775016 0.375340 0.324222 0.148256
H4    H     H_    0.898053 0.266790 0.190217 0.134979
H5    H     H_    0.240665 0.370885 0.326688 0.143955
H6    H     H_    0.106811 0.614521 0.624547 0.152603
H7    H     H_    0.439402 0.637864 0.171472 0.155671
H8    H     H_    0.567204 0.289252 0.181133 0.159678
H9    H     H_    0.420452 0.725595 0.008792 0.138228
H10   H     H_    0.130824 0.264493 0.191526 0.135623
H11   H     H_    0.581576 0.274495 0.991433 0.137306
H12   H     H_    0.434569 0.710907 0.819134 0.162045
H13   H     H_    0.561441 0.362023 0.828517 0.155711
H14   H     H_    0.386424 0.180374 0.402271 0.123524
H15   H     H_    0.661393 0.215639 0.637812 0.130016
H16   H     H_    0.319180 0.989074 0.344977 0.145027
H17   H     H_    0.680852 0.010917 0.654929 0.143728
H18   H     H_    0.338693 0.784324 0.362104 0.130118
N1    N     N_R   0.523130 0.207800 0.519340 -0.101075
N2    N     N_R   0.476870 0.792180 0.480660 -0.100917
O1    O     O_R   0.506170 0.421690 0.658830 -0.623026
O2    O     O_R   0.491330 0.609320 0.646410 -0.629156
O3    O     O_R   0.690660 0.406170 0.506210 -0.625202
O4    O     O_R   0.675810 0.593790 0.493790 -0.613915
O5    O     O_R   0.508670 0.390680 0.353590 -0.642578
O6    O     O_R   0.493830 0.578310 0.341170 -0.623182
O7    O     O_R   0.324190 0.406210 0.506210 -0.618444
O8    O     O_R   0.309340 0.593830 0.493790 -0.619249
Zn1   Zn    Zn3+2 0.509910 0.374720 0.508290 0.937131
Zn2   Zn    Zn3+2 0.490090 0.625280 0.491710 0.942476

loop_
_geom_bond_atom_site_label_1
_geom_bond_atom_site_label_2
_ccdc_geom_bond_type
O6    Zn2   S    
C6    C32   A    
C32   H9    S    
O5    Zn1   S    
C6    C7    A    
C21   H3    S    
C23   C27   A    
C20   O8    A    
C13   N2    A    
C22   H4    S    
C19   H17   S    
N1    Zn1   S    
C28   H6    S    
C1    O2    A    
C8    C30   A    
C18   H15   S    
C17   N1    A    
C17   H14   S    
C13   H2    S    
C11   H18   S    
C16   O6    A    
C21   C22   A    
C4    O4    A    
C20   O7    A    
C5    C9    A    
C16   O5    A    
C12   C23   A    
C20   C29   S    
C3    C31   A    
O3    Zn1   S    
C2    C32   A    
C28   C29   A    
C18   N1    A    
C22   C24   A    
C10   C15   A    
C4    O3    A    
C10   H16   S    
C5    C6    A    
O4    Zn2   S    
C9    H11   S    
C1    O1    A    
O7    Zn1   S    
C10   C11   A    
C16   C30   S    
O2    Zn2   S    
C12   C21   A    
C1    C31   S    
C24   H10   S    
C24   C25   A    
C26   C29   A    
O8    Zn2   S    
C18   C19   A    
C12   C26   A    
C27   C28   A    
C15   C17   A    
C4    C23   S    
C7    H7    S    
C14   C15   A    
C8    C9    A    
N2    Zn2   S    
C11   N2    A    
C8    H8    S    
C25   H5    S    
C25   C26   A    
C13   C14   A    
O1    Zn1   S    
C14   C19   A    
C3    H13   S    
C27   H1    S    
C2    H12   S    
C2    C31   A    
C3    C5    A    
C7    C30   A    
