data_mof_unit_16871.cif
_audit_creation_date              2012-12-10T20:46:50-0500
_audit_creation_method            fapswitch 2.2
_symmetry_space_group_name_H-M    P1
_symmetry_Int_Tables_number       1
_space_group_crystal_system       triclinic
_cell_length_a                    12.896157
_cell_length_b                    8.93562
_cell_length_c                    8.09907
_cell_angle_alpha                 89.982021
_cell_angle_beta                  97.948232
_cell_angle_gamma                 89.978991
_cell_volume                      924.331682628

loop_
_atom_site_label
_atom_site_type_symbol
_atom_type_description
_atom_site_fract_x
_atom_site_fract_y
_atom_site_fract_z
_atom_type_partial_charge
C1    C     C_R   0.499989 0.217954 0.500011 0.938979
C2    C     C_R   0.875022 0.565286 0.702401 0.153761
C3    C     C_R   0.136482 0.542293 0.577013 -0.256447
C4    C     C_R   0.863518 0.457708 0.422986 -0.256446
C5    C     C_R   0.029924 0.529784 0.571661 0.138969
C6    C     C_R   0.970076 0.470217 0.428338 0.138968
C7    C     C_1   0.499994 0.065178 0.500018 -0.165831
C8    C     C_1   0.500006 0.934822 0.499982 -0.165831
C9    C     C_R   0.500011 0.782046 0.499989 0.938979
C10   C     C_R   0.297314 0.497156 0.466029 0.901852
C11   C     C_R   0.702686 0.502844 0.533970 0.901852
C12   C     C_R   0.815230 0.507103 0.557053 -0.111202
C13   C     C_R   0.184770 0.492898 0.442947 -0.111202
C14   C     C_R   0.017287 0.424531 0.291773 -0.198477
C15   C     C_R   0.982713 0.575470 0.708227 -0.198477
C16   C     C_R   0.124978 0.434715 0.297598 0.153761
H1    H     H_    0.817830 0.410945 0.312367 0.183669
H2    H     H_    0.182170 0.589055 0.687632 0.183669
H3    H     H_    0.970663 0.379043 0.181545 0.177204
H4    H     H_    0.029337 0.620956 0.818455 0.177205
I1    I     I_    0.813222 0.649668 0.914735 -0.344564
I2    I     I_    0.186778 0.350335 0.085264 -0.344564
N1    N     N_1   0.500020 0.500000 0.073640 -0.007293
N2    N     N_1   0.499980 0.500000 0.926360 -0.007293
O1    O     O_R   0.499990 0.285340 0.636850 -0.612811
O2    O     O_R   0.500010 0.714660 0.363150 -0.612811
O3    O     O_R   0.500010 0.285340 0.363150 -0.609861
O4    O     O_R   0.499990 0.714660 0.636850 -0.609861
O5    O     O_R   0.346350 0.500000 0.614250 -0.621669
O6    O     O_R   0.653650 0.500000 0.385750 -0.621669
O7    O     O_R   0.346360 0.500000 0.340500 -0.596687
O8    O     O_R   0.653640 0.500000 0.659500 -0.596688
Zn1   Zn    Zn3+2 0.499990 0.500000 0.682780 1.030406
Zn2   Zn    Zn3+2 0.500010 0.500000 0.317220 1.030406

loop_
_geom_bond_atom_site_label_1
_geom_bond_atom_site_label_2
_ccdc_geom_bond_type
C11   O8    A    
N1    N2    T    
C4    C12   A    
N2    Zn1   S    
C3    C13   A    
C11   C12   S    
N1    Zn2   S    
C2    C12   A    
O8    Zn1   S    
C2    I1    S    
O7    Zn2   S    
C7    C8    T    
C1    O1    A    
C2    C15   A    
C10   O5    A    
C5    C6    A    
C4    H1    S    
C14   H3    S    
C9    O2    A    
O3    Zn2   S    
C15   H4    S    
C14   C16   A    
C5    C15   A    
C6    C14   A    
O4    Zn1   S    
O6    Zn2   S    
O5    Zn1   S    
C11   O6    A    
C3    H2    S    
C4    C6    A    
C13   C16   A    
C1    O3    A    
C16   I2    S    
C1    C7    S    
C10   O7    A    
O2    Zn2   S    
C9    O4    A    
O1    Zn1   S    
C8    C9    S    
C3    C5    A    
C10   C13   S    
