data_mof_unit_7477.cif
_audit_creation_date              2012-12-10T18:03:59-0500
_audit_creation_method            fapswitch 2.2
_symmetry_space_group_name_H-M    P1
_symmetry_Int_Tables_number       1
_space_group_crystal_system       triclinic
_cell_length_a                    10.827363
_cell_length_b                    9.6008
_cell_length_c                    10.83335
_cell_angle_alpha                 89.5866
_cell_angle_beta                  92.201421
_cell_angle_gamma                 89.85153
_cell_volume                      1125.27626129

loop_
_atom_site_label
_atom_site_type_symbol
_atom_type_description
_atom_site_fract_x
_atom_site_fract_y
_atom_site_fract_z
_atom_type_partial_charge
C1    C     C_R   0.262325 0.500047 0.500402 0.833752
C2    C     C_R   0.737694 0.499850 0.500375 0.803566
C3    C     C_R   0.419218 0.075113 0.424356 0.377984
C4    C     C_R   0.580658 0.073006 0.576067 0.397659
C5    C     C_R   0.417025 0.927090 0.427106 -0.037267
C6    C     C_R   0.581084 0.924620 0.575374 -0.008869
C7    C     C_R   0.499897 0.500246 0.262379 0.859381
C8    C     C_R   0.503455 0.499713 0.737421 0.815978
C9    C     C_R   0.475538 0.619852 0.060510 -0.019555
C10   C     C_R   0.482769 0.621709 0.933560 0.061829
C11   C     C_R   0.507165 0.500494 0.129048 -0.039872
C12   C     C_R   0.513607 0.500958 0.870845 -0.115090
C13   C     C_R   0.552124 0.383415 0.067473 -0.145587
C14   C     C_R   0.554248 0.383168 0.938680 -0.117278
C15   C     C_3   0.369046 0.708471 0.915121 0.162061
C16   C     C_3   0.356712 0.700697 0.053996 0.153299
C17   C     C_R   0.063893 0.373808 0.492959 -0.114141
C18   C     C_R   0.936120 0.373698 0.492812 -0.131654
C19   C     C_R   0.871684 0.499781 0.500994 -0.028753
C20   C     C_R   0.128374 0.499987 0.501369 -0.026137
C21   C     C_R   0.936174 0.625893 0.509975 -0.139253
C22   C     C_R   0.063950 0.625922 0.510741 -0.128330
Cu1   Cu    Cu3+1 0.500000 0.640660 0.500000 0.996539
Cu2   Cu    Cu3+1 0.500000 0.359340 0.500000 1.065818
H1    H     H_    0.581748 0.290819 0.118226 0.180087
H2    H     H_    0.583598 0.289844 0.892633 0.223051
H3    H     H_    0.294407 0.656001 0.859564 0.154494
H4    H     H_    0.364237 0.802914 0.100871 0.176620
H5    H     H_    0.111791 0.275175 0.486202 0.194074
H6    H     H_    0.888115 0.275071 0.485756 0.185005
H7    H     H_    0.888264 0.724534 0.516659 0.162165
H8    H     H_    0.111917 0.724433 0.518898 0.168636
N1    N     N_R   0.500000 0.852070 0.500000 -0.246699
N2    N     N_R   0.500000 0.147940 0.500000 -0.222999
O1    O     O_R   0.319640 0.618740 0.499990 -0.594569
O2    O     O_R   0.680360 0.618740 0.500010 -0.609362
O3    O     O_R   0.319620 0.381170 0.499990 -0.540714
O4    O     O_R   0.680380 0.381170 0.500010 -0.549327
O5    O     O_R   0.499990 0.618810 0.319660 -0.592993
O6    O     O_R   0.500010 0.618810 0.680340 -0.568654
O7    O     O_R   0.499960 0.381240 0.319650 -0.541908
O8    O     O_R   0.500040 0.381240 0.680350 -0.534620
Cl1   Cl    Cl    0.404736 0.879441 0.861377 -0.575848
Cl2   Cl    Cl    0.226543 0.596845 0.093917 -0.548463
Cl3   Cl    Cl    0.315905 0.164034 0.320991 -0.565094
Cl4   Cl    Cl    0.685862 0.159452 0.677224 -0.608024
C23   C     C_1   0.319301 0.857486 0.358901 0.387880
N3    N     N_1   0.237980 0.804591 0.305420 -0.212524
C24   C     C_1   0.665410 0.850261 0.658537 0.454051
N4    N     N_1   0.733193 0.791607 0.725981 -0.250346

loop_
_geom_bond_atom_site_label_1
_geom_bond_atom_site_label_2
_ccdc_geom_bond_type
C16   H4    S    
Cu2   O4    S    
Cu1   Cu2   S    
C18   H6    S    
C17   H5    S    
C9    C10   A    
C16   Cl2   S    
C15   H3    S    
C23   N3    T    
C6    N1    A    
C1    O3    A    
C8    C12   S    
C17   C20   A    
Cu2   O3    S    
C12   C14   A    
C15   Cl1   S    
C4    Cl4   S    
C21   C22   A    
C14   H2    S    
C7    C11   S    
Cu2   O7    S    
C21   H7    S    
C13   H1    S    
C10   C12   A    
Cu1   O5    S    
C9    C11   A    
C19   C21   A    
C9    C16   S    
C8    O8    A    
C17   C18   A    
Cu1   O1    S    
C10   C15   S    
C7    O7    A    
C6    C24   S    
C4    N2    A    
C15   C16   S    
C5    C23   S    
C11   C13   A    
C22   H8    S    
Cu2   O8    S    
C1    O1    A    
C4    C6    A    
Cu1   O2    S    
C2    O2    A    
C24   N4    T    
C2    O4    A    
C18   C19   A    
C1    C20   S    
C7    O5    A    
C8    O6    A    
C3    N2    A    
Cu1   N1    S    
C2    C19   S    
C13   C14   A    
C3    Cl3   S    
Cu2   N2    S    
Cu1   O6    S    
C20   C22   A    
C3    C5    A    
C5    N1    A    
