data_mof_unit_57535.cif
_audit_creation_date              2012-12-11T15:07:41-0500
_audit_creation_method            fapswitch 2.2
_symmetry_space_group_name_H-M    P1
_symmetry_Int_Tables_number       1
_space_group_crystal_system       triclinic
_cell_length_a                    21.694456
_cell_length_b                    7.205361
_cell_length_c                    18.57018
_cell_angle_alpha                 90.050259
_cell_angle_beta                  95.774307
_cell_angle_gamma                 90.020514
_cell_volume                      2888.09290191

loop_
_atom_site_label
_atom_site_type_symbol
_atom_type_description
_atom_site_fract_x
_atom_site_fract_y
_atom_site_fract_z
_atom_type_partial_charge
O1    O     O_R   0.449650 0.506500 0.414480 -0.533687
O2    O     O_R   0.550350 0.006500 0.585520 -0.533121
O3    O     O_R   0.432010 0.173150 0.560250 -0.538393
O4    O     O_R   0.567990 0.673150 0.439750 -0.538440
C1    C     C_R   0.415594 0.344684 0.580315 0.684768
C2    C     C_R   0.584386 0.844640 0.419671 0.683994
O5    O     O_R   0.442320 0.176650 0.413480 -0.532837
O6    O     O_R   0.557680 0.676650 0.586520 -0.533117
O7    O     O_R   0.560730 0.008380 0.437700 -0.538398
O8    O     O_R   0.439270 0.508380 0.562300 -0.538307
C3    C     C_R   0.428599 0.344989 0.387574 0.676856
C4    C     C_R   0.571421 0.845382 0.612347 0.677091
O9    O     O_3   0.538840 0.339860 0.508120 -0.372614
O10   O     O_3   0.461160 0.839860 0.491880 -0.372798
V1    V     V_3+5 0.492800 0.064220 0.498490 1.422015
V2    V     V_3+5 0.507200 0.564220 0.501510 1.422203
C5    C     C_R   0.868323 0.002368 0.692271 -0.144893
C6    C     C_R   0.128244 0.427935 0.309689 -0.144905
H1    H     H_    0.953907 0.052044 0.756981 0.121128
H2    H     H_    0.040202 0.427577 0.246533 0.130073
H3    H     H_    0.789398 0.974216 0.574431 0.133705
H4    H     H_    0.209112 0.441055 0.426233 0.134441
H5    H     H_    0.887624 0.042579 0.642970 0.129739
H6    H     H_    0.107164 0.429747 0.360189 0.132172
C7    C     C_R   0.884638 0.942777 0.820993 -0.059648
C8    C     C_R   0.115192 0.438708 0.178876 -0.060518
C9    C     C_R   0.583528 0.850669 0.745357 -0.163567
C10   C     C_R   0.414013 0.298419 0.255905 -0.164399
C11   C     C_R   0.618056 0.878569 0.811672 -0.112971
C12   C     C_R   0.377022 0.273832 0.191048 -0.109492
C13   C     C_R   0.682041 0.902409 0.815384 -0.112353
C14   C     C_R   0.313492 0.306463 0.187036 -0.109929
C15   C     C_R   0.713936 0.889238 0.753061 0.089706
C16   C     C_R   0.285436 0.374836 0.246985 0.086905
C17   C     C_R   0.677476 0.878924 0.684404 0.065419
C18   C     C_R   0.322849 0.384512 0.315077 0.067138
C19   C     C_R   0.780129 0.906925 0.756187 0.044079
C20   C     C_R   0.220165 0.412642 0.243280 0.044591
C21   C     C_R   0.805877 0.951870 0.690922 0.112282
C22   C     C_R   0.192794 0.422383 0.309633 0.112094
C23   C     C_R   0.769257 0.946056 0.624413 -0.175118
C24   C     C_R   0.229915 0.427314 0.375805 -0.177652
C25   C     C_R   0.706607 0.902632 0.620905 -0.185713
C26   C     C_R   0.294055 0.416067 0.378337 -0.186356
C27   C     C_R   0.822270 0.882376 0.820398 0.061384
C28   C     C_R   0.180464 0.441620 0.177434 0.059977
C29   C     C_R   0.906328 0.006239 0.757120 -0.177685
C30   C     C_R   0.089984 0.427955 0.244991 -0.191284
C31   C     C_R   0.612088 0.854796 0.681167 -0.077391
C32   C     C_R   0.387756 0.349857 0.318719 -0.080098
H7    H     H_    0.533735 0.834540 0.743790 0.105477
H8    H     H_    0.463107 0.268316 0.257949 0.107612
H9    H     H_    0.705309 0.943149 0.866928 0.151507
H10   H     H_    0.286394 0.265060 0.137882 0.154897
H11   H     H_    0.594830 0.886739 0.860521 0.127768
H12   H     H_    0.397446 0.223151 0.143956 0.130012
H13   H     H_    0.680508 0.897413 0.568067 0.108453
H14   H     H_    0.320676 0.422461 0.430836 0.109700
C33   C     C_R   0.645073 0.712400 0.322885 -0.212056
C34   C     C_R   0.354856 0.212528 0.676988 -0.212106
C35   C     C_R   0.635058 0.856528 0.371530 -0.078406
C36   C     C_R   0.364902 0.356613 0.628455 -0.077860
C37   C     C_R   0.672808 0.015848 0.372780 -0.205145
C38   C     C_R   0.327136 0.515814 0.627286 -0.205092
C39   C     C_R   0.719770 0.032228 0.326270 0.064114
C40   C     C_R   0.280153 0.532140 0.673789 0.064170
C41   C     C_R   0.728682 0.889407 0.276666 0.078298
C42   C     C_R   0.271275 0.389421 0.723339 0.078638
C43   C     C_R   0.691017 0.728799 0.274899 0.117967
C44   C     C_R   0.308916 0.228889 0.724984 0.117392
C45   C     C_R   0.758574 0.188036 0.329757 -0.236676
C46   C     C_R   0.241255 0.687690 0.670313 -0.235888
C47   C     C_R   0.806780 0.204900 0.284728 -0.022644
C48   C     C_R   0.193081 0.704467 0.715408 -0.023020
C49   C     C_R   0.813690 0.066684 0.231242 0.021367
C50   C     C_R   0.186325 0.566538 0.768934 0.019990
C51   C     C_R   0.775119 0.906980 0.228728 0.063682
C52   C     C_R   0.224884 0.406982 0.771339 0.065072
C53   C     C_R   0.783035 0.763451 0.178507 0.120135
C54   C     C_R   0.216999 0.263585 0.821519 0.121828
C55   C     C_R   0.745164 0.605042 0.176987 -0.160558
C56   C     C_R   0.254801 0.105175 0.822854 -0.162236
C57   C     C_R   0.699718 0.587673 0.224851 -0.163579
C58   C     C_R   0.300195 0.087767 0.774917 -0.162651
C59   C     C_R   0.857168 0.083431 0.179603 -0.185017
C60   C     C_R   0.142936 0.583331 0.820652 -0.176795
C61   C     C_R   0.866029 0.939199 0.130561 -0.084383
C62   C     C_R   0.134036 0.439145 0.869569 -0.075022
C63   C     C_R   0.829002 0.779156 0.130970 -0.185190
C64   C     C_R   0.171108 0.279356 0.869173 -0.183589
H15   H     H_    0.616123 0.589458 0.321103 0.123314
H16   H     H_    0.383784 0.089641 0.678684 0.122638
H17   H     H_    0.666095 0.126803 0.410695 0.131564
H18   H     H_    0.333841 0.626673 0.589433 0.131298
H19   H     H_    0.752579 0.294538 0.369783 0.160115
H20   H     H_    0.247136 0.793963 0.630236 0.160298
H21   H     H_    0.884687 0.207678 0.176946 0.158140
H22   H     H_    0.115523 0.707619 0.823496 0.158122
H23   H     H_    0.835374 0.667147 0.093387 0.149789
H24   H     H_    0.164837 0.167690 0.906870 0.136254
H25   H     H_    0.751064 0.493508 0.139080 0.126675
H26   H     H_    0.248899 0.993625 0.860680 0.128305
H27   H     H_    0.671439 0.463431 0.222805 0.123102
H28   H     H_    0.328446 0.963516 0.776845 0.123946
O11   O     O_R   0.060820 0.290050 0.937800 -0.542613
O12   O     O_R   0.939180 0.790050 0.062200 -0.535396
O13   O     O_R   0.057690 0.616620 0.086540 -0.526898
O14   O     O_R   0.942310 0.116620 0.913460 -0.536229
C65   C     C_R   0.071928 0.448518 0.112119 0.730096
C66   C     C_R   0.927902 0.948528 0.887949 0.728511
O15   O     O_R   0.068010 0.619890 0.939770 -0.535346
O16   O     O_R   0.931990 0.119890 0.060230 -0.542406
O17   O     O_R   0.949640 0.787940 0.914460 -0.521941
O18   O     O_R   0.050360 0.287940 0.085540 -0.535592
C67   C     C_R   0.084434 0.451048 0.919195 0.725619
C68   C     C_R   0.915568 0.951091 0.080824 0.717988
O19   O     O_3   0.961210 0.453080 0.991940 -0.366699
O20   O     O_3   0.038790 0.953080 0.008060 -0.373914
V3    V     V_3+5 0.007200 0.728820 0.001500 1.491156
V4    V     V_3+5 0.992800 0.228820 0.998500 1.470159
C69   C     C_2   0.850815 0.362336 0.298927 0.755934
O21   O     O_2   0.832261 0.511277 0.319890 -0.556847
O22   O     O_R   0.914055 0.337822 0.293127 -0.674897
H29   H     H_    0.938952 0.454684 0.305272 0.290454
C70   C     C_2   0.148845 0.861324 0.701216 0.755156
O23   O     O_2   0.167134 0.010069 0.679835 -0.557646
O24   O     O_R   0.085696 0.836439 0.707615 -0.671952
H30   H     H_    0.060536 0.952812 0.695420 0.292259
I1    I     I_    0.801411 0.711036 0.909589 -0.456616
I2    I     I_    0.213405 0.546351 0.079840 -0.462141

loop_
_geom_bond_atom_site_label_1
_geom_bond_atom_site_label_2
_ccdc_geom_bond_type
C40   C42   A    
C37   C39   A    
C27   I1    S    
C50   C60   A    
O12   V3    S    
C9    C11   A    
C23   C25   A    
O14   V4    S    
O1    C3    A    
O2    C4    A    
C2    O7    A    
C4    C31   S    
C18   C32   A    
O22   H29   S    
C21   C23   A    
C55   H25   S    
O5    C3    A    
C5    H5    S    
C48   C50   A    
C63   H23   S    
C6    H6    S    
C2    C35   S    
O15   V3    S    
C20   C22   A    
C50   C52   A    
C53   C63   A    
C52   C54   A    
C48   C70   S    
C45   H19   S    
C34   C36   A    
C5    C21   A    
C64   H24   S    
C35   C37   A    
C6    C22   A    
O20   V3    S    
C36   C38   A    
O17   V3    S    
C10   C32   A    
C49   C59   A    
C40   C46   A    
C26   H14   S    
C39   C41   A    
C41   C51   A    
C17   C31   A    
C13   C15   A    
O11   V4    S    
C44   C58   A    
C7    C29   A    
C16   C18   A    
C8    C30   A    
C59   C61   A    
O6    V2    S    
O13   C65   A    
C24   C26   A    
C14   H10   S    
C55   C57   A    
C9    H7    S    
C51   C53   A    
C42   C52   A    
C33   C35   A    
C69   O22   S    
C46   C48   A    
O19   V4    S    
C53   C55   A    
C25   H13   S    
C11   H11   S    
C39   C45   A    
C12   H12   S    
C15   C19   A    
O12   C68   A    
C41   C43   A    
C38   C40   A    
O4    V2    S    
C43   C57   A    
C61   C68   S    
C66   O17   A    
C34   C44   A    
O6    C4    A    
C56   H26   S    
H1    C29   S    
O1    V2    S    
C33   H15   S    
C13   H9    S    
O2    V1    S    
C49   C51   A    
C8    C65   S    
C69   O21   D    
H2    C30   S    
C57   H27   S    
C7    C66   S    
C33   C43   A    
H3    C23   S    
C65   O18   A    
C54   C56   A    
C62   C64   A    
C56   C58   A    
C61   C63   A    
C70   O23   D    
C58   H28   S    
C18   C26   A    
O4    C2    A    
C47   C49   A    
C19   C27   A    
O24   H30   S    
C7    C27   A    
O16   C68   A    
C17   C25   A    
O16   V4    S    
C16   C20   A    
O11   C67   A    
C5    C29   A    
C22   C24   A    
O3    C1    A    
C6    C30   A    
C28   I2    S    
C37   H17   S    
C47   C69   S    
O13   V3    S    
C62   C67   S    
C10   C12   A    
O7    V1    S    
C38   H18   S    
C1    O8    A    
C19   C21   A    
C3    C32   S    
O8    V2    S    
C12   C14   A    
C10   H8    S    
H4    C24   S    
O5    V1    S    
C15   C17   A    
O14   C66   A    
C1    C36   S    
C60   C62   A    
C54   C64   A    
C60   H22   S    
C20   C28   A    
C59   H21   S    
C8    C28   A    
C46   H20   S    
C11   C13   A    
O9    V2    S    
C45   C47   A    
C70   O24   S    
C42   C44   A    
O10   V1    S    
O3    V1    S    
O15   C67   A    
C34   H16   S    
O18   V4    S    
C9    C31   A    
C14   C16   A    
