data_mof_unit_68112.cif
_audit_creation_date              2013-03-05T15:58:25-0500
_audit_creation_method            fapswitch 2.2
_symmetry_space_group_name_H-M    P1
_symmetry_Int_Tables_number       1
_space_group_crystal_system       triclinic
_cell_length_a                    7.478312
_cell_length_b                    14.385381
_cell_length_c                    16.699081
_cell_angle_alpha                 90.115424
_cell_angle_beta                  90.298084
_cell_angle_gamma                 90.042151
_cell_volume                      1796.4314131

loop_
_atom_site_label
_atom_site_type_symbol
_atom_site_description
_atom_site_fract_x
_atom_site_fract_y
_atom_site_fract_z
_atom_type_partial_charge
O1    O     O_R   0.388780 0.834790 0.412340 -0.566056
O2    O     O_R   0.111220 0.165210 0.912340 -0.556389
O3    O     O_R   0.888780 0.665210 0.587660 -0.564107
O4    O     O_R   0.611220 0.334790 0.087660 -0.561648
O5    O     O_R   0.059040 0.845930 0.587040 -0.559060
O6    O     O_R   0.440960 0.154070 0.087040 -0.619946
O7    O     O_R   0.559040 0.654070 0.412960 -0.584376
O8    O     O_R   0.940960 0.345930 0.912960 -0.620228
C1    C     C_R   0.231639 0.873162 0.609574 0.961664
C2    C     C_R   0.272011 0.129663 0.112810 0.981837
C3    C     C_R   0.730931 0.626925 0.390118 0.941992
C4    C     C_R   0.771493 0.370341 0.887378 0.992519
O9    O     O_R   0.059070 0.845930 0.412970 -0.579774
O10   O     O_R   0.440930 0.154070 0.912970 -0.608911
O11   O     O_R   0.559070 0.654070 0.587030 -0.610439
O12   O     O_R   0.940930 0.345930 0.087030 -0.605570
O13   O     O_R   0.888760 0.665210 0.412340 -0.576665
O14   O     O_R   0.611240 0.334790 0.912340 -0.578453
O15   O     O_R   0.388760 0.834790 0.587660 -0.582759
O16   O     O_R   0.111240 0.165210 0.087660 -0.576544
C5    C     C_R   0.227184 0.868133 0.385910 1.068970
C6    C     C_R   0.271310 0.131336 0.885628 1.111455
C7    C     C_R   0.727610 0.631810 0.614212 1.071546
C8    C     C_R   0.772024 0.368386 0.114421 1.120173
O17   O     O_3   0.222280 0.690700 0.500000 -0.264730
O18   O     O_3   0.277720 0.309300 0.000000 -0.289466
O19   O     O_3   0.722280 0.809300 0.500000 -0.247359
O20   O     O_3   0.777720 0.190700 0.000000 -0.289465
V1    V     V_3+5 0.947430 0.761000 0.500000 1.308587
V2    V     V_3+5 0.552570 0.239000 0.000000 1.244675
V3    V     V_3+5 0.447430 0.739000 0.500000 1.285321
V4    V     V_3+5 0.052570 0.261000 0.000000 1.247390
C9    C     C_3   0.924828 0.573813 0.736068 0.253482
C10   C     C_3   0.640718 0.390963 0.262069 0.258384
C11   C     C_3   0.422311 0.923343 0.264088 0.212865
C12   C     C_3   0.142006 0.108814 0.735976 0.220469
C13   C     C_3   0.916706 0.519548 0.820420 -0.036198
C14   C     C_3   0.652783 0.456128 0.341824 -0.090766
C15   C     C_3   0.415418 0.978890 0.180000 -0.043392
C16   C     C_3   0.164854 0.045738 0.654871 -0.105330
H1    H     H_    0.896312 0.356708 0.730165 0.229236
H2    H     H_    0.529726 0.612549 0.256220 0.228276
H3    H     H_    0.401312 0.139896 0.271429 0.231186
H4    H     H_    0.019187 0.896640 0.738085 0.218223
C17   C     C_3   0.725658 0.452584 0.658292 0.526954
C18   C     C_3   0.692103 0.539175 0.166401 0.536775
C19   C     C_3   0.225530 0.045937 0.341505 0.508562
C20   C     C_3   0.186012 0.960996 0.832053 0.540509
C21   C     C_3   0.589444 0.581619 0.751653 -0.247406
C22   C     C_3   0.951704 0.447299 0.231544 -0.274191
C23   C     C_3   0.087209 0.918885 0.248639 -0.240737
C24   C     C_3   0.451807 0.050072 0.771150 -0.278574
C25   C     C_3   0.739306 0.560892 0.686215 -0.412111
C26   C     C_3   0.760392 0.435614 0.189645 -0.418364
C27   C     C_3   0.238736 0.938293 0.313611 -0.344920
C28   C     C_3   0.258740 0.063881 0.810230 -0.399525
H5    H     H_    0.630437 0.645969 0.782494 0.210494
H6    H     H_    0.974405 0.379902 0.260570 0.236430
H7    H     H_    0.123940 0.853759 0.217895 0.206262
H8    H     H_    0.476677 0.117658 0.742831 0.237891
C29   C     C_3   0.757830 0.444922 0.818041 -0.219864
C30   C     C_3   0.753920 0.551011 0.322299 -0.226585
C31   C     C_3   0.258823 0.054649 0.182084 -0.189582
C32   C     C_3   0.255825 0.949147 0.677134 -0.188678
C33   C     C_3   0.765170 0.390805 0.735784 -0.640316
C34   C     C_3   0.671710 0.595861 0.246278 -0.575134
C35   C     C_3   0.268432 0.107884 0.264781 -0.634710
C36   C     C_3   0.162955 0.906479 0.751272 -0.592645
C37   C     C_3   0.575137 0.503448 0.817268 0.279438
C38   C     C_3   0.957906 0.525407 0.298538 0.290736
C39   C     C_3   0.075322 0.997285 0.181908 0.229406
C40   C     C_3   0.458494 0.971658 0.704429 0.291951
H9    H     H_    0.675605 0.329459 0.738929 0.231801
H10   H     H_    0.733319 0.664848 0.241331 0.252190
H11   H     H_    0.182855 0.170793 0.262242 0.227605
H12   H     H_    0.213263 0.835349 0.756934 0.259339
N1    N     N_3   0.076644 0.537233 0.689823 -0.204220
H13   H     H_    0.098172 0.568960 0.634961 0.198601
H14   H     H_    0.086416 0.465360 0.684940 0.160177
N2    N     N_3   0.452469 0.382995 0.240499 -0.168020
H15   H     H_    0.427813 0.333699 0.196086 0.154854
H16   H     H_    0.401207 0.447988 0.228331 0.125831
N3    N     N_3   0.576561 0.957865 0.311102 -0.208632
H17   H     H_    0.610715 0.921059 0.362426 0.216531
H18   H     H_    0.587611 0.029404 0.318731 0.175769
N4    N     N_3   0.951685 0.114182 0.754280 -0.185872
H19   H     H_    0.925685 0.161343 0.800160 0.159217
H20   H     H_    0.898826 0.049037 0.764945 0.119952
N5    N     N_3   0.420724 0.444600 0.799831 -0.206296
H21   H     H_    0.388584 0.400853 0.846931 0.182112
H22   H     H_    0.424962 0.406918 0.747739 0.193614
N6    N     N_3   0.049988 0.606962 0.263467 -0.167989
H23   H     H_    0.187401 0.594588 0.260590 0.159217
H24   H     H_    0.036083 0.667811 0.296270 0.159081
N7    N     N_3   0.922787 0.057787 0.198069 -0.218509
H25   H     H_    0.885557 0.097779 0.149060 0.185168
H26   H     H_    0.932314 0.099279 0.247860 0.206447
N8    N     N_3   0.544990 0.889015 0.740475 -0.164842
H27   H     H_    0.683319 0.899341 0.743534 0.167430
H28   H     H_    0.526782 0.828399 0.707626 0.150254
N9    N     N_R   0.550280 0.427796 0.622981 0.211320
O21   O     O_R   0.484794 0.479551 0.566653 -0.431513
O22   O     O_R   0.501870 0.340742 0.621412 -0.304356
N10   N     N_R   0.823070 0.583876 0.112654 0.242373
O23   O     O_R   0.859688 0.543904 0.045002 -0.418076
O24   O     O_R   0.872899 0.670044 0.121559 -0.294406
N11   N     N_R   0.047655 0.070710 0.374002 0.221399
O25   O     O_R   0.961712 0.013175 0.419600 -0.373548
O26   O     O_R   0.006341 0.158304 0.381355 -0.303586
N12   N     N_R   0.314268 0.914029 0.886052 0.241485
O27   O     O_R   0.346740 0.951317 0.955391 -0.418316
O28   O     O_R   0.362505 0.827901 0.875743 -0.291904
N13   N     N_R   0.968950 0.672144 0.752782 0.224626
O29   O     O_R   0.862204 0.740644 0.735507 -0.472736
O30   O     O_R   0.115147 0.690343 0.792111 -0.383627
N14   N     N_R   0.696317 0.294456 0.280738 0.216229
O31   O     O_R   0.801600 0.247655 0.234161 -0.502611
O32   O     O_R   0.614200 0.249129 0.336818 -0.336389
N15   N     N_R   0.458071 0.823646 0.247183 0.223598
O33   O     O_R   0.348807 0.757402 0.267237 -0.475251
O34   O     O_R   0.595480 0.801321 0.204137 -0.414426
N16   N     N_R   0.195042 0.206277 0.719928 0.216499
O35   O     O_R   0.305512 0.251734 0.765705 -0.497588
O36   O     O_R   0.116113 0.251585 0.662607 -0.349023
N17   N     N_3   0.890075 0.583731 0.889239 -0.117171
H29   H     H_    0.011229 0.609950 0.911331 0.250049
H30   H     H_    0.813455 0.642197 0.876700 0.202674
N18   N     N_3   0.747040 0.409312 0.408551 -0.120495
H31   H     H_    0.658269 0.369518 0.442553 0.249946
H32   H     H_    0.844423 0.363000 0.389669 0.241300
N19   N     N_3   0.386568 0.915716 0.110619 -0.116830
H33   H     H_    0.506790 0.889636 0.088021 0.246472
H34   H     H_    0.308882 0.857491 0.122785 0.212816
N20   N     N_3   0.274154 0.092847 0.593377 -0.106430
H35   H     H_    0.194650 0.127818 0.551492 0.233464
H36   H     H_    0.357584 0.144169 0.616099 0.248326
N21   N     N_3   0.090496 0.475336 0.833570 -0.185998
H37   H     H_    0.097509 0.409369 0.807951 0.153684
H38   H     H_    0.127208 0.471885 0.894091 0.196014
N22   N     N_3   0.470879 0.475121 0.371063 -0.124356
H39   H     H_    0.406806 0.527101 0.339053 0.147103
H40   H     H_    0.473379 0.497045 0.430191 0.241248
N23   N     N_3   0.589902 0.022450 0.167778 -0.206726
H41   H     H_    0.598100 0.088156 0.193780 0.156638
H42   H     H_    0.624862 0.026817 0.107275 0.189512
N24   N     N_3   0.993099 0.027178 0.615224 -0.142816
H43   H     H_    0.909124 0.987110 0.650215 0.175728
H44   H     H_    0.933233 0.090292 0.600190 0.253515
N25   N     N_R   0.855120 0.427346 0.595452 0.218406
O37   O     O_R   0.902246 0.487540 0.541794 -0.410468
O38   O     O_R   0.874227 0.339952 0.577204 -0.268615
N26   N     N_R   0.517822 0.546667 0.124093 0.233578
O39   O     O_R   0.432425 0.476162 0.094245 -0.402029
O40   O     O_R   0.456139 0.629170 0.107668 -0.255849
N27   N     N_R   0.353783 0.071219 0.405562 0.210409
O41   O     O_R   0.410684 0.010325 0.456944 -0.410173
O42   O     O_R   0.374975 0.158574 0.423675 -0.267894
N28   N     N_R   0.011523 0.954692 0.873181 0.235138
O43   O     O_R   0.928737 0.025844 0.902605 -0.404838
O44   O     O_R   0.945974 0.872681 0.888297 -0.263470
N29   N     N_3   0.411818 0.604682 0.721768 -0.148971
H45   H     H_    0.383633 0.565171 0.671935 0.194686
H46   H     H_    0.402267 0.675282 0.707627 0.172243
N30   N     N_3   0.106931 0.457406 0.178962 -0.191111
H47   H     H_    0.087465 0.495326 0.127221 0.245188
H48   H     H_    0.162895 0.393010 0.165450 0.174035
N31   N     N_3   0.911981 0.899047 0.282248 -0.155109
H49   H     H_    0.902904 0.828026 0.295027 0.155847
H50   H     H_    0.821578 0.904806 0.235382 0.210327
N32   N     N_3   0.605058 0.038401 0.825489 -0.183843
H51   H     H_    0.578968 0.005029 0.878891 0.243883
H52   H     H_    0.666021 0.102196 0.837207 0.178146
N33   N     N_R   0.535926 0.549020 0.894251 0.239402
O45   O     O_R   0.578232 0.508356 0.960558 -0.322082
O46   O     O_R   0.417663 0.615324 0.897294 -0.281972
N34   N     N_R   0.066330 0.491277 0.367916 0.224692
O47   O     O_R   0.122930 0.548444 0.422274 -0.324326
O48   O     O_R   0.137229 0.408519 0.368950 -0.377950
N35   N     N_R   0.036986 0.952058 0.104122 0.234829
O49   O     O_R   0.065435 0.996762 0.038418 -0.313675
O50   O     O_R   0.935193 0.878682 0.100029 -0.309555
N36   N     N_R   0.571495 0.004656 0.636946 0.220808
O51   O     O_R   0.630601 0.947301 0.583575 -0.318781
O52   O     O_R   0.637944 0.088258 0.635592 -0.432245

loop_
_geom_bond_atom_site_label_1
_geom_bond_atom_site_label_2
_geom_bond_distance
_ccdc_geom_bond_type
O17   V3    1.820998 S    
C20   N12   1.477822 S    
O1    C5    1.371640 A    
N9    O21   1.295180 A    
N27   O42   1.301313 A    
C1    C32   1.578923 S    
O13   V1    2.053889 S    
C23   N31   1.456484 S    
N7    H25   1.038288 S    
C12   N16   1.482114 S    
C3    C30   1.581779 S    
O15   V3    2.057571 S    
N18   H31   1.046645 S    
N10   O24   1.302110 A    
N29   H45   1.027657 S    
C21   H5    1.100978 S    
N31   H50   1.035017 S    
C40   N8    1.481241 S    
N33   O45   1.291349 A    
O7    C3    1.398434 A    
N21   H38   1.047170 S    
C22   C26   1.597945 S    
C15   N19   1.485831 S    
C24   C40   1.584910 S    
C32   C36   1.550225 S    
O9    V1    2.078490 S    
N30   H47   1.032467 S    
N22   H40   1.036001 S    
C18   C34   1.570154 S    
N25   O38   1.301149 A    
O4    C8    1.368235 A    
N4    H20   1.032980 S    
C39   N7    1.461241 S    
N32   H51   1.033034 S    
C10   N14   1.482794 S    
N23   H41   1.041006 S    
C34   H10   1.097276 S    
N23   H42   1.046939 S    
O1    V3    2.058242 S    
C33   H9    1.108989 S    
N14   O31   1.297372 A    
C30   C38   1.620709 S    
O2    V4    2.057540 S    
C18   N26   1.483355 S    
C39   N35   1.478257 S    
O3    V1    2.061054 S    
N36   O51   1.293103 A    
C24   H8    1.098176 S    
C10   N2    1.455702 S    
N12   O27   1.296850 A    
O3    C7    1.373214 A    
C1    O15   1.350500 A    
C2    C31   1.586973 S    
C2    O16   1.371092 A    
O2    C6    1.369406 A    
N11   O25   1.297973 A    
N26   O40   1.302853 A    
O14   V2    2.061086 S    
N5    H22   1.024683 S    
N24   H44   1.043143 S    
O11   C7    1.375646 A    
C19   C27   1.619373 S    
C17   C25   1.628404 S    
O12   C8    1.383865 A    
C13   N21   1.463095 S    
N28   O44   1.302867 A    
N11   O26   1.303320 A    
C37   N33   1.472809 S    
O10   V2    2.068953 S    
C37   N5    1.459092 S    
C19   C35   1.595933 S    
N10   O23   1.297207 A    
N29   H46   1.045580 S    
C23   C39   1.589280 S    
C7    C25   1.580537 S    
C13   N17   1.487012 S    
N16   O35   1.298101 A    
N15   O34   1.297311 A    
C9    C25   1.624631 S    
C31   C35   1.579025 S    
O7    V3    2.075795 S    
C30   C34   1.549701 S    
C22   N30   1.466483 S    
O8    V4    2.073158 S    
C16   N20   1.480748 S    
C12   C16   1.638462 S    
N22   H39   1.036312 S    
C17   N25   1.476441 S    
N2    H16   1.030954 S    
C24   N32   1.468029 S    
N31   H49   1.046361 S    
C5    C27   1.577861 S    
C11   N3    1.477085 S    
O18   V4    1.820997 S    
C10   C14   1.629191 S    
N20   H36   1.036362 S    
C12   N4    1.459353 S    
N1    H13   1.037624 S    
C20   N28   1.480545 S    
C11   C27   1.620599 S    
C18   N10   1.479467 S    
C19   N27   1.477718 S    
N13   O30   1.298704 A    
C22   H6    1.097738 S    
C11   C15   1.617637 S    
O5    C1    1.398101 A    
C12   C28   1.646273 S    
N24   H43   1.035692 S    
C38   N34   1.494595 S    
C13   C29   1.600981 S    
N3    H17   1.039177 S    
O8    C4    1.381145 A    
C18   C26   1.622424 S    
N6    H24   1.037246 S    
N1    H14   1.039630 S    
O9    C5    1.375747 A    
C36   H12   1.094563 S    
C20   C36   1.567684 S    
N17   H30   1.039096 S    
N33   O46   1.302317 A    
C17   N9    1.478303 S    
N34   O47   1.293026 A    
N3    H18   1.039885 S    
C31   C39   1.600741 S    
C10   C26   1.640042 S    
C19   N11   1.482690 S    
C17   C33   1.597715 S    
N17   H29   1.046281 S    
H4    C36   1.105278 S    
C23   H7    1.103021 S    
N16   O36   1.298713 A    
N19   H33   1.046374 S    
O5    V1    2.068977 S    
C15   C31   1.600766 S    
C9    C13   1.613219 S    
N13   O29   1.300536 A    
O16   V4    2.058273 S    
C29   C37   1.605354 S    
C20   C28   1.619308 S    
C3    O13   1.351952 A    
N36   O52   1.301216 A    
O6    V2    2.078516 S    
N4    H19   1.041490 S    
C21   N29   1.455345 S    
C38   N6    1.483022 S    
C15   N23   1.462539 S    
N2    H15   1.040761 S    
N19   H34   1.039966 S    
N18   H32   1.037245 S    
O6    C2    1.382171 A    
C14   N18   1.479056 S    
N15   O33   1.300351 A    
N7    H26   1.024704 S    
O11   V3    2.073130 S    
N20   H35   1.045617 S    
C16   N24   1.466065 S    
O12   V4    2.075767 S    
O19   V1    1.821942 S    
N21   H37   1.041628 S    
C9    N13   1.477976 S    
C16   C32   1.591403 S    
N9    O22   1.303502 A    
C6    C28   1.590417 S    
O10   C6    1.384631 A    
N30   H48   1.041587 S    
C22   C38   1.584476 S    
C40   N36   1.490246 S    
N25   O37   1.297245 A    
C4    C29   1.583059 S    
C9    N1    1.473296 S    
C11   N15   1.485874 S    
N28   O43   1.294006 A    
N32   H52   1.042135 S    
C21   C25   1.597174 S    
O20   V2    1.821943 S    
N6    H23   1.044383 S    
N14   O32   1.298890 A    
C23   C27   1.588930 S    
C32   C40   1.612826 S    
H1    C33   1.101220 S    
N8    H28   1.037748 S    
N12   O28   1.302025 A    
N35   O49   1.291404 A    
C29   C33   1.578738 S    
C35   H11   1.109527 S    
N26   O39   1.295628 A    
H3    C35   1.099925 S    
N8    H27   1.045943 S    
C4    O14   1.369919 A    
N27   O41   1.297856 A    
H2    C34   1.102115 S    
C14   N22   1.473262 S    
C21   C37   1.575619 S    
C14   C30   1.595072 S    
N5    H21   1.037394 S    
C8    C26   1.586568 S    
O4    V2    2.053856 S    
C24   C28   1.599893 S    
N34   O48   1.303696 A    
N35   O50   1.302413 A    
