data_mof_unit_31092.cif
_audit_creation_date              2012-12-10T17:37:20-0500
_audit_creation_method            fapswitch 2.2
_symmetry_space_group_name_H-M    P1
_symmetry_Int_Tables_number       1
_space_group_crystal_system       triclinic
_cell_length_a                    12.331891
_cell_length_b                    13.165306
_cell_length_c                    15.841079
_cell_angle_alpha                 78.004444
_cell_angle_beta                  101.078765
_cell_angle_gamma                 116.497165
_cell_volume                      2236.86209796

loop_
_atom_site_label
_atom_site_type_symbol
_atom_type_description
_atom_site_fract_x
_atom_site_fract_y
_atom_site_fract_z
_atom_type_partial_charge
C1    C     C_R   0.854878 0.286602 0.506966 0.763768
C2    C     C_3   0.999570 0.501491 0.917049 0.195342
C3    C     C_3   0.112476 0.571206 0.032212 -0.156911
C4    C     C_3   0.001546 0.500764 0.082835 0.193791
C5    C     C_3   0.029837 0.608210 0.958143 -0.159017
C6    C     C_3   0.918911 0.537784 0.010341 -0.158077
C7    C     C_1   0.998952 0.501229 0.825193 -0.079846
C8    C     C_1   0.001778 0.500016 0.174768 -0.083028
C9    C     C_R   0.274183 0.023099 0.388709 -0.205140
C10   C     C_R   0.228040 0.834721 0.470221 -0.053839
C11   C     C_R   0.815823 0.084617 0.559836 -0.189522
C12   C     C_R   0.999539 0.500004 0.659953 0.814792
C13   C     C_R   0.737421 0.969530 0.575553 -0.148199
C14   C     C_R   0.613935 0.932127 0.546296 -0.174933
C15   C     C_R   0.566494 0.009444 0.497207 0.079534
C16   C     C_R   0.649438 0.124276 0.472503 0.082729
C17   C     C_R   0.439663 0.976344 0.471057 0.077174
C18   C     C_R   0.399074 0.054496 0.414469 0.173063
C19   C     C_R   0.483602 0.162099 0.382577 -0.244046
C20   C     C_R   0.606951 0.195773 0.409821 -0.199222
C21   C     C_R   0.351513 0.868072 0.500186 -0.243612
C22   C     C_R   0.188978 0.913445 0.416210 -0.191977
C23   C     C_R   0.145073 0.713453 0.487476 0.803991
C24   C     C_R   0.772881 0.163616 0.510455 -0.100253
C25   C     C_R   0.341037 0.320796 0.631884 -0.307624
C26   C     C_R   0.759222 0.644488 0.381843 0.580639
C27   C     C_R   0.656819 0.667477 0.351580 -0.420695
C28   C     C_R   0.548243 0.603296 0.388161 0.411894
C29   C     C_R   0.545893 0.526463 0.466131 -0.131840
C30   C     C_R   0.650830 0.502512 0.493843 0.141974
C31   C     C_R   0.443513 0.470111 0.516159 -0.013748
C32   C     C_R   0.441943 0.381433 0.584859 0.175269
C33   C     C_R   0.542005 0.355278 0.607596 -0.273723
C34   C     C_R   0.000211 0.499563 0.340097 0.819884
C35   C     C_R   0.645274 0.416745 0.564901 -0.118126
C36   C     C_R   0.343616 0.499767 0.503401 0.014010
C37   C     C_R   0.242792 0.349705 0.612186 0.073003
C38   C     C_3   0.971313 0.394102 0.041723 -0.166023
C39   C     C_3   0.888657 0.431089 0.967698 -0.154433
C40   C     C_1   0.998964 0.500687 0.749608 -0.181416
C41   C     C_1   0.001244 0.499493 0.250430 -0.202340
C42   C     C_3   0.082192 0.464524 0.989538 -0.162011
Cu1   Cu    Cu3+1 0.098270 0.475420 0.519690 0.936221
Cu2   Cu    Cu3+1 0.901730 0.524580 0.480310 0.961200
H1    H     H_    0.796778 0.373652 0.939839 0.126834
H2    H     H_    0.376308 0.806972 0.545973 0.147235
H3    H     H_    0.909997 0.112142 0.588199 0.150816
H4    H     H_    0.558877 0.841669 0.561627 0.130884
H5    H     H_    0.771927 0.909232 0.613068 0.141799
H6    H     H_    0.668186 0.277507 0.378951 0.172229
H7    H     H_    0.163838 0.302270 0.647385 0.122484
H8    H     H_    0.542041 0.288563 0.660898 0.143924
H9    H     H_    0.338318 0.251666 0.683639 0.135580
H10   H     H_    0.341819 0.572906 0.459126 0.192642
H11   H     H_    0.947578 0.306293 0.077465 0.129637
H12   H     H_    0.658961 0.733456 0.297495 0.167356
H13   H     H_    0.718716 0.393353 0.589885 0.201422
H14   H     H_    0.851998 0.567930 0.020383 0.123713
H15   H     H_    0.053764 0.696070 0.922464 0.127534
H16   H     H_    0.204338 0.628567 0.060134 0.135072
H17   H     H_    0.149005 0.434365 0.979369 0.133228
H18   H     H_    0.093517 0.889083 0.392771 0.195305
H19   H     H_    0.454304 0.220680 0.336218 0.138319
H20   H     H_    0.242747 0.082460 0.345544 0.132832
N1    N     N_R   0.246280 0.438200 0.549540 -0.192999
N2    N     N_R   0.754330 0.561180 0.450980 -0.235251
O1    O     O_R   0.972510 0.318130 0.524770 -0.582829
O2    O     O_R   0.806530 0.359650 0.491510 -0.609237
O3    O     O_R   0.082970 0.479240 0.637550 -0.575170
O4    O     O_R   0.916990 0.520750 0.604290 -0.594163
O5    O     O_R   0.193470 0.640350 0.508490 -0.594805
O6    O     O_R   0.027490 0.681870 0.475230 -0.525951
O7    O     O_R   0.083010 0.479250 0.395710 -0.584000
O8    O     O_R   0.917030 0.520760 0.362450 -0.556484
O9    O     O_3   0.868761 0.710991 0.346944 -0.550541
C43   C     C_3   0.854061 0.713250 0.255815 0.054240
H21   H     H_    0.803328 0.764463 0.221813 0.122460
H22   H     H_    0.806095 0.624901 0.237898 0.145726
C44   C     C_3   0.979185 0.770881 0.223358 -0.774428
H23   H     H_    0.038717 0.729899 0.260356 0.251130
H24   H     H_    0.969648 0.763814 0.153394 0.195852
H25   H     H_    0.023101 0.862996 0.231606 0.229519
O10   O     O_3   0.446126 0.616771 0.344178 -0.623079
C45   C     C_3   0.370034 0.520747 0.300575 0.060193
H26   H     H_    0.274634 0.510094 0.296274 0.179828
H27   H     H_    0.371264 0.438499 0.336020 0.130716
C46   C     C_3   0.402921 0.541066 0.208222 -0.354079
H28   H     H_    0.393950 0.619355 0.172008 0.221837
H29   H     H_    0.498825 0.554117 0.210564 0.206420
C47   C     C_3   0.319673 0.439121 0.160248 -0.942873
H30   H     H_    0.332014 0.361208 0.193236 0.252475
H31   H     H_    0.342686 0.457616 0.092672 0.252936
H32   H     H_    0.222767 0.422629 0.158239 0.265037

loop_
_geom_bond_atom_site_label_1
_geom_bond_atom_site_label_2
_ccdc_geom_bond_type
Cu1   O7    S    
C12   O3    A    
C3    C42   S    
C9    H20   S    
C6    H14   S    
Cu2   N2    S    
C19   C20   A    
C45   C46   S    
C4    C8    S    
C27   H12   S    
C10   C22   A    
C33   H8    S    
C26   C27   A    
C30   C35   A    
C43   H22   S    
C28   C29   A    
C45   H27   S    
C38   C42   S    
C5    C6    S    
C37   H7    S    
C9    C22   A    
C15   C16   A    
C11   C24   A    
C1    O2    A    
C18   C19   A    
O9    C43   S    
C2    C7    S    
C25   C37   A    
C11   H3    S    
C45   H26   S    
C38   H11   S    
C31   C32   A    
C19   H19   S    
C37   N1    A    
C20   H6    S    
C7    C40   T    
C43   C44   S    
Cu2   O4    S    
C16   C20   A    
C39   H1    S    
C3    H16   S    
C25   C32   A    
C16   C24   A    
C13   C14   A    
C28   O10   S    
C34   C41   S    
C2    C39   S    
C17   C18   A    
C10   C21   A    
C5    H15   S    
C26   N2    A    
C23   O5    A    
C8    C41   T    
C4    C6    S    
C44   H24   S    
C36   N1    A    
C14   H4    S    
C17   C21   A    
C12   C40   S    
Cu1   Cu2   S    
C29   C30   A    
C22   H18   S    
C47   H31   S    
O10   C45   S    
C14   C15   A    
Cu1   N1    S    
C26   O9    S    
C43   H21   S    
Cu2   O8    S    
C42   H17   S    
C30   N2    A    
C34   O8    A    
C13   H5    S    
C4    C38   S    
C46   H29   S    
Cu2   O2    S    
C2    C5    S    
C3    C4    S    
C47   H32   S    
C21   H2    S    
C15   C17   A    
C12   O4    A    
Cu1   O5    S    
C31   C36   A    
C23   O6    A    
C25   H9    S    
C3    C5    S    
C44   H25   S    
C1    O1    A    
C10   C23   S    
C35   H13   S    
C32   C33   A    
C29   C31   A    
C1    C24   S    
C11   C13   A    
C47   H30   S    
C38   C39   S    
C2    C42   S    
C33   C35   A    
Cu2   O6    S    
C36   H10   S    
C34   O7    A    
C44   H23   S    
C9    C18   A    
C46   H28   S    
Cu1   O1    S    
C46   C47   S    
C27   C28   A    
C6    C39   S    
Cu1   O3    S    
