data_mof_unit_47724.cif
_audit_creation_date              2012-10-26T19:29:39-0400
_audit_creation_method            fapswitch 2.2
_symmetry_space_group_name_H-M    P1
_symmetry_Int_Tables_number       1
_space_group_crystal_system       triclinic
_cell_length_a                    15.890754
_cell_length_b                    14.682306
_cell_length_c                    10.630858
_cell_angle_alpha                 90.169764
_cell_angle_beta                  90.138317
_cell_angle_gamma                 89.779921
_cell_volume                      2480.28010137

loop_
_atom_site_label
_atom_site_type_symbol
_atom_type_description
_atom_site_fract_x
_atom_site_fract_y
_atom_site_fract_z
_atom_type_partial_charge
C1    C     C_R   0.339930 0.500316 0.499446 0.549218
C2    C     C_3   0.952808 0.485471 0.374631 -0.227463
C3    C     C_3   0.049960 0.488642 0.376550 -0.251496
C4    C     C_1   0.824987 0.499067 0.505497 -0.097616
C5    C     C_1   0.175515 0.502894 0.506296 -0.092039
C6    C     C_R   0.499758 0.499933 0.258603 0.551446
C7    C     C_1   0.250744 0.501599 0.502090 -0.056345
C8    C     C_3   0.568665 0.054866 0.595547 -0.131980
C9    C     C_3   0.564865 0.946428 0.606110 -0.129546
C10   C     C_3   0.506960 0.052106 0.377131 0.125990
C11   C     C_3   0.516859 0.946224 0.381287 0.152079
C12   C     C_3   0.499432 0.499856 0.121989 0.047366
C13   C     C_3   0.493180 0.092425 0.512529 0.004600
C14   C     C_3   0.493824 0.907496 0.514766 0.023250
C15   C     C_3   0.402010 0.944899 0.555830 0.266126
C16   C     C_3   0.405815 0.056705 0.568033 0.310894
C17   C     C_1   0.499048 0.804604 0.507822 0.079730
C18   C     C_1   0.498124 0.195489 0.505737 0.105415
C19   C     C_R   0.660072 0.499792 0.500261 0.549372
C20   C     C_R   0.499390 0.499937 0.741077 0.551239
C21   C     C_3   0.511681 0.584991 0.040997 -0.111281
C22   C     C_3   0.424738 0.468814 0.041493 -0.129437
C23   C     C_3   0.047560 0.597361 0.560278 -0.060821
C24   C     C_3   0.436931 0.553948 0.958234 -0.124179
C25   C     C_3   0.498973 0.499300 0.877619 0.044457
C26   C     C_3   0.573628 0.530016 0.958169 -0.131575
C27   C     C_3   0.486706 0.414029 0.958464 -0.113117
C28   C     C_3   0.561347 0.445016 0.041366 -0.125164
C29   C     C_3   0.328486 0.107742 0.505280 -0.164848
C30   C     C_3   0.248512 0.109386 0.588027 -0.276608
C31   C     C_3   0.170129 0.132941 0.511163 -0.502592
C32   C     C_3   0.329817 0.912260 0.462712 -0.195922
C33   C     C_3   0.315648 0.808680 0.446879 -0.273495
C34   C     C_3   0.051293 0.420254 0.592499 -0.065603
C35   C     C_3   0.228840 0.788226 0.391500 -0.470651
C36   C     C_3   0.585445 0.109590 0.721204 -0.238719
C37   C     C_3   0.679659 0.126559 0.743684 -0.320491
C38   C     C_3   0.695496 0.171519 0.871163 -0.453799
C39   C     C_3   0.568029 0.908643 0.743814 -0.263253
C40   C     C_3   0.587899 0.806411 0.756431 -0.289059
C41   C     C_3   0.622320 0.784191 0.887109 -0.460526
C42   C     C_3   0.089937 0.640032 0.680326 -0.262703
C43   C     C_3   0.042902 0.630152 0.806395 -0.304524
C44   C     C_3   0.101179 0.648012 0.918130 -0.456809
C45   C     C_3   0.952155 0.422628 0.598099 -0.083271
C46   C     C_3   0.094502 0.409195 0.724050 -0.278496
C47   C     C_3   0.164079 0.335893 0.724966 -0.317783
C48   C     C_3   0.213944 0.337589 0.847931 -0.446364
C49   C     C_3   0.914865 0.326858 0.565626 -0.268780
C50   C     C_3   0.926472 0.257337 0.671944 -0.311509
C51   C     C_3   0.902530 0.161644 0.628452 -0.461220
C52   C     C_3   0.910341 0.678168 0.488027 -0.271783
C53   C     C_3   0.924220 0.769129 0.556776 -0.305441
C54   C     C_3   0.875724 0.846464 0.493427 -0.459071
C55   C     C_3   0.948426 0.595153 0.560588 -0.073231
C56   C     C_1   0.749544 0.499199 0.502770 -0.056318
C57   C     C_3   0.083549 0.502925 0.513087 0.061682
C58   C     C_3   0.917432 0.500329 0.509006 0.056074
Cu1   Cu    Cu3+1 0.499910 0.589920 0.499840 0.929478
Cu2   Cu    Cu3+1 0.499910 0.410080 0.499840 0.958868
H1    H     H_    0.386080 0.598428 0.920916 0.109279
H2    H     H_    0.635086 0.552924 0.920763 0.095561
H3    H     H_    0.476472 0.344019 0.921852 0.127684
H4    H     H_    0.612201 0.400459 0.078488 0.106027
H5    H     H_    0.923146 0.599871 0.657283 0.123625
H6    H     H_    0.931298 0.440218 0.695092 0.113311
H7    H     H_    0.069540 0.358385 0.537794 0.136517
H8    H     H_    0.066683 0.645612 0.484833 0.117645
H9    H     H_    0.071782 0.544573 0.314202 0.107608
H10   H     H_    0.075318 0.424170 0.335901 0.108186
H11   H     H_    0.452430 0.141321 0.268601 0.314648
H12   H     H_    0.928066 0.537979 0.309024 0.110317
H13   H     H_    0.500141 0.847596 0.259972 0.309883
H14   H     H_    0.431484 0.042736 0.750610 0.362289
H15   H     H_    0.395215 0.845074 0.680836 0.318348
H16   H     H_    0.177020 0.201083 0.467279 0.150472
H17   H     H_    0.159790 0.081021 0.436566 0.150185
H18   H     H_    0.114177 0.134074 0.573478 0.138597
H19   H     H_    0.238607 0.043443 0.636261 0.200123
H20   H     H_    0.256163 0.161557 0.663056 0.195125
H21   H     H_    0.343396 0.180409 0.488968 0.151168
H22   H     H_    0.312984 0.081794 0.410609 0.147557
H23   H     H_    0.931684 0.418941 0.336014 0.110700
H24   H     H_    0.178541 0.811302 0.456791 0.138771
H25   H     H_    0.220923 0.822921 0.299489 0.156861
H26   H     H_    0.222149 0.713637 0.376953 0.149523
H27   H     H_    0.362617 0.780046 0.380582 0.202048
H28   H     H_    0.320405 0.772505 0.537978 0.178757
H29   H     H_    0.269419 0.939196 0.498301 0.141609
H30   H     H_    0.337571 0.941197 0.367658 0.207995
H31   H     H_    0.661488 0.237653 0.877281 0.155851
H32   H     H_    0.674154 0.126330 0.948297 0.151887
H33   H     H_    0.763901 0.184238 0.883015 0.138345
H34   H     H_    0.625973 0.922088 0.566699 0.098758
H35   H     H_    0.715391 0.061453 0.738862 0.153793
H36   H     H_    0.703295 0.172540 0.669037 0.161088
H37   H     H_    0.554518 0.177306 0.720083 0.187060
H38   H     H_    0.558604 0.076668 0.805262 0.146896
H39   H     H_    0.635724 0.710328 0.893270 0.144241
H40   H     H_    0.681939 0.821386 0.904886 0.141854
H41   H     H_    0.575585 0.802864 0.960432 0.159217
H42   H     H_    0.529578 0.766209 0.743320 0.191661
H43   H     H_    0.635320 0.785018 0.685426 0.169004
H44   H     H_    0.620557 0.943644 0.792532 0.152738
H45   H     H_    0.625538 0.068778 0.537409 0.094471
H46   H     H_    0.510118 0.924068 0.797148 0.182728
H47   H     H_    0.152741 0.596728 0.920639 0.143277
H48   H     H_    0.128697 0.717271 0.911572 0.159402
H49   H     H_    0.064940 0.643197 0.007039 0.133811
H50   H     H_    0.990717 0.680624 0.810561 0.146280
H51   H     H_    0.015260 0.561441 0.816731 0.149244
H52   H     H_    0.155346 0.614451 0.690271 0.152708
H53   H     H_    0.098128 0.714278 0.664630 0.124822
H54   H     H_    0.246126 0.404149 0.859683 0.149273
H55   H     H_    0.171436 0.326105 0.929095 0.147010
H56   H     H_    0.567172 0.079703 0.338921 0.079485
H57   H     H_    0.262434 0.282937 0.846538 0.161090
H58   H     H_    0.135655 0.267579 0.713530 0.150279
H59   H     H_    0.208427 0.346510 0.645920 0.180463
H60   H     H_    0.124192 0.473246 0.753838 0.174264
H61   H     H_    0.047777 0.391391 0.797439 0.128092
H62   H     H_    0.838563 0.161438 0.586596 0.145024
H63   H     H_    0.947993 0.136797 0.556817 0.144667
H64   H     H_    0.903796 0.114371 0.709781 0.139607
H65   H     H_    0.992663 0.255102 0.703743 0.164316
H66   H     H_    0.886498 0.277274 0.753235 0.152412
H67   H     H_    0.584931 0.931411 0.363550 0.057462
H68   H     H_    0.846230 0.331545 0.547377 0.159083
H69   H     H_    0.943998 0.299889 0.478084 0.139004
H70   H     H_    0.895993 0.853796 0.394051 0.147941
H71   H     H_    0.806983 0.833038 0.496229 0.145859
H72   H     H_    0.888235 0.911417 0.543796 0.136532
H73   H     H_    0.902683 0.763795 0.655828 0.153243
H74   H     H_    0.992004 0.786740 0.556271 0.155295
H75   H     H_    0.937761 0.682744 0.392215 0.135720
H76   H     H_    0.841414 0.669479 0.476524 0.162005
H77   H     H_    0.521862 0.654965 0.077673 0.118873
H78   H     H_    0.363881 0.443754 0.078729 0.103812
N1    N     N_1   0.501390 0.724970 0.502570 -0.228953
N2    N     N_1   0.501390 0.275030 0.502570 -0.207028
O1    O     O_R   0.379360 0.575970 0.499860 -0.499740
O2    O     O_3   0.470590 0.904837 0.283604 -0.671315
O3    O     O_3   0.402040 0.085729 0.695069 -0.704808
O4    O     O_3   0.379364 0.910130 0.674880 -0.729824
O5    O     O_R   0.379360 0.424030 0.499860 -0.492033
O6    O     O_R   0.499910 0.575920 0.316720 -0.500821
O7    O     O_R   0.499910 0.424080 0.316720 -0.498959
O8    O     O_R   0.620490 0.575900 0.499870 -0.492241
O9    O     O_R   0.620490 0.424100 0.499870 -0.492400
O10   O     O_R   0.499950 0.575950 0.683010 -0.505337
O11   O     O_R   0.499950 0.424050 0.683010 -0.496547
O12   O     O_3   0.442002 0.077368 0.294102 -0.682716

loop_
_geom_bond_atom_site_label_1
_geom_bond_atom_site_label_2
_ccdc_geom_bond_type
C19   C56   S    
C39   H46   S    
H14   O3    S    
C8    C13   S    
C12   C22   S    
C51   H63   S    
C1    O5    A    
C21   H77   S    
C21   C26   S    
C8    H45   S    
C15   C32   S    
C53   C54   S    
C54   H71   S    
C29   C30   S    
C23   C42   S    
C13   C18   S    
C12   C28   S    
C36   C37   S    
C3    H9    S    
C33   H28   S    
C6    C12   S    
C30   C31   S    
C6    O6    A    
C35   H26   S    
Cu1   O10   S    
C20   C25   S    
C15   C16   S    
C38   H32   S    
C9    C39   S    
C37   H35   S    
C8    C36   S    
C42   H52   S    
C10   O12   S    
C47   H58   S    
C32   H30   S    
C47   C48   S    
C41   H41   S    
C8    C9    S    
C34   C57   S    
C41   H39   S    
C46   H61   S    
C36   H37   S    
C34   C46   S    
C43   H50   S    
C45   C49   S    
C50   H65   S    
C52   C55   S    
C30   H20   S    
Cu1   O8    S    
C47   H59   S    
Cu1   Cu2   S    
C4    C56   T    
C51   H64   S    
C14   C17   S    
C2    H23   S    
C43   H51   S    
C2    H12   S    
C55   H5    S    
C31   H17   S    
H13   O2    S    
C44   H48   S    
C54   H70   S    
C45   C58   S    
C39   H44   S    
C16   O3    S    
C53   H73   S    
C24   C25   S    
H15   O4    S    
C39   C40   S    
C5    C7    T    
C9    C14   S    
C25   C26   S    
C49   H69   S    
C38   H31   S    
C37   H36   S    
Cu2   O11   S    
C23   H8    S    
C11   H67   S    
C43   C44   S    
C29   H21   S    
C37   C38   S    
C42   H53   S    
H11   O12   S    
Cu1   N1    S    
C3    H10   S    
C50   C51   S    
C41   H40   S    
C46   H60   S    
C17   N1    T    
C34   C45   S    
C18   N2    T    
Cu1   O1    S    
C19   O9    A    
C27   H3    S    
Cu2   N2    S    
C24   H1    S    
C50   H66   S    
C30   H19   S    
C3    C57   S    
C40   C41   S    
Cu2   O7    S    
C22   C27   S    
C48   H55   S    
C32   H29   S    
C52   H76   S    
C22   C24   S    
C21   C24   S    
Cu2   O5    S    
C28   H4    S    
C45   H6    S    
C10   H56   S    
C52   C53   S    
C31   H18   S    
C48   H54   S    
C44   H47   S    
C51   H62   S    
C23   C57   S    
C49   H68   S    
C46   C47   S    
C1    C7    S    
C53   H74   S    
C10   C13   S    
C34   H7    S    
C35   H24   S    
C2    C58   S    
C23   C55   S    
C48   H57   S    
C25   C27   S    
C54   H72   S    
C22   H78   S    
C26   C28   S    
C19   O8    A    
C20   O11   A    
C5    C57   S    
C32   C33   S    
C2    C3    S    
C33   H27   S    
C29   H22   S    
C44   H49   S    
C40   H43   S    
C6    O7    A    
C35   H25   S    
C33   C35   S    
C31   H16   S    
C55   C58   S    
C12   C21   S    
C38   H33   S    
C11   C14   S    
C20   O10   A    
Cu2   O9    S    
C26   H2    S    
C11   O2    S    
C1    O1    A    
C10   C11   S    
C40   H42   S    
C15   O4    S    
Cu1   O6    S    
C16   C29   S    
C49   C50   S    
C42   C43   S    
C13   C16   S    
C4    C58   S    
C27   C28   S    
C52   H75   S    
C14   C15   S    
C36   H38   S    
C9    H34   S    
