data_mof_unit_53054.cif
_audit_creation_date              2012-12-11T16:53:26-0500
_audit_creation_method            fapswitch 2.2
_symmetry_space_group_name_H-M    P1
_symmetry_Int_Tables_number       1
_space_group_crystal_system       triclinic
_cell_length_a                    14.869229
_cell_length_b                    14.74047
_cell_length_c                    17.266617
_cell_angle_alpha                 109.024204
_cell_angle_beta                  106.814993
_cell_angle_gamma                 108.03489
_cell_volume                      3064.78845957

loop_
_atom_site_label
_atom_site_type_symbol
_atom_type_description
_atom_site_fract_x
_atom_site_fract_y
_atom_site_fract_z
_atom_type_partial_charge
C1    C     C_R   0.087181 0.282941 0.072136 -0.144065
C2    C     C_R   0.064571 0.492599 0.256466 -0.161869
C3    C     C_R   0.226223 0.799841 0.187634 -0.132071
C4    C     C_R   0.932774 0.515062 0.747092 -0.145746
C5    C     C_R   0.698168 0.407290 0.997144 -0.132967
C6    C     C_R   0.244294 0.806195 0.273433 0.057326
C7    C     C_R   0.637366 0.435005 0.940589 0.092280
C8    C     C_R   0.972082 0.446236 0.261050 0.063630
C9    C     C_R   0.995958 0.817549 0.969715 0.057293
C10   C     C_R   0.399099 0.472693 0.882661 0.164785
C11   C     C_R   0.348094 0.417834 0.921804 -0.016882
C12   C     C_R   0.023228 0.571949 0.744561 0.092487
C13   C     C_R   0.367910 0.332953 0.928778 -0.254098
C14   C     C_R   0.454280 0.321121 0.916992 0.306024
C15   C     C_R   0.524121 0.401320 0.905666 -0.021907
C16   C     C_R   0.720279 0.213539 0.822207 -0.135424
C17   C     C_R   0.486154 0.464987 0.875220 0.114457
C18   C     C_3   0.539588 0.580959 0.897983 -0.501204
C19   C     C_3   0.444096 0.589414 0.905944 -0.508918
C20   C     C_R   0.965879 0.451858 0.342481 0.131968
C21   C     C_R   0.026493 0.575310 0.663833 0.080091
C22   C     C_R   0.090027 0.658569 0.579492 -0.275053
C23   C     C_R   0.665079 0.216145 0.743415 0.061201
C24   C     C_R   0.089023 0.667906 0.662051 0.315308
C25   C     C_R   0.964731 0.477427 0.585547 -0.350012
C26   C     C_R   0.963295 0.469162 0.504176 0.197324
C27   C     C_R   0.027567 0.559984 0.501248 0.134595
C28   C     C_R   0.253375 0.529655 0.946185 -0.142966
C29   C     C_R   0.028393 0.550374 0.419824 -0.262741
C30   C     C_R   0.899770 0.362429 0.343993 -0.194640
C31   C     C_R   0.899087 0.370887 0.425819 -0.204464
C32   C     C_R   0.555897 0.142931 0.675873 0.128380
C33   C     C_R   0.286121 0.902821 0.359344 0.139669
C34   C     C_R   0.285314 0.456632 0.961794 0.093512
C35   C     C_R   0.391043 0.094884 0.447425 -0.232101
C36   C     C_R   0.324764 0.005066 0.363754 -0.183970
C37   C     C_R   0.300918 0.893460 0.440008 -0.282170
C38   C     C_R   0.373560 0.981281 0.523131 0.186600
C39   C     C_R   0.422308 0.081788 0.526095 0.194224
C40   C     C_R   0.728204 0.309605 0.746080 -0.126046
C41   C     C_R   0.510239 0.163558 0.604159 -0.279336
C42   C     C_R   0.500624 0.046885 0.676438 -0.169725
C43   C     C_R   0.408193 0.967006 0.600825 -0.222932
C44   C     C_R   0.079530 0.119207 0.145414 0.142863
C45   C     C_R   0.221108 0.703523 0.264108 -0.124091
C46   C     C_R   0.994621 0.103324 0.071334 0.038415
C47   C     C_R   0.900962 0.007656 0.031772 -0.208483
C48   C     C_R   0.889328 0.939954 0.073724 -0.186099
C49   C     C_R   0.971076 0.965779 0.154880 0.028919
C50   C     C_R   0.067920 0.051188 0.185608 0.157140
C51   C     C_3   0.138088 0.140489 0.279032 -0.479185
C52   C     C_R   0.252810 0.435919 0.025046 -0.130188
C53   C     C_3   0.150726 0.215525 0.235769 -0.521777
C54   C     C_R   0.107194 0.600622 0.822866 -0.155500
C55   C     C_R   0.913866 0.197957 0.993288 -0.120672
C56   C     C_R   0.703132 0.497738 0.916649 -0.148616
C57   C     C_R   0.999625 0.186941 0.040479 0.061400
C58   C     C_3   0.469538 0.225638 0.919051 -1.046287
C59   C     C_3   0.151968 0.776548 0.744007 -1.052021
C60   C     C_R   0.889332 0.411295 0.179964 -0.133293
C61   C     C_R   0.082991 0.803825 0.009944 -0.139273
C62   C     C_R   0.910344 0.719619 0.935973 -0.115110
H1    H     H_    0.165146 0.308940 0.122163 0.098183
H2    H     H_    0.610966 0.629484 0.964074 0.200943
H3    H     H_    0.852729 0.487296 0.699638 0.097307
H4    H     H_    0.549588 0.591853 0.839743 0.187410
H5    H     H_    0.461141 0.642584 0.976471 0.199842
H6    H     H_    0.399461 0.605201 0.852173 0.188948
H7    H     H_    0.077387 0.619497 0.416250 0.124349
H8    H     H_    0.851249 0.286622 0.282886 0.124449
H9    H     H_    0.138218 0.728125 0.576051 0.142774
H10   H     H_    0.849289 0.301269 0.428079 0.126780
H11   H     H_    0.918259 0.406239 0.588157 0.146715
H12   H     H_    0.679604 0.519546 0.862759 0.100783
H13   H     H_    0.548350 0.238631 0.603696 0.114854
H14   H     H_    0.689644 0.159948 0.848484 0.084880
H15   H     H_    0.531721 0.030085 0.732132 0.115279
H16   H     H_    0.426268 0.172310 0.449242 0.126175
H17   H     H_    0.370186 0.890653 0.599872 0.125395
H18   H     H_    0.310763 0.015507 0.302939 0.113065
H19   H     H_    0.266365 0.816304 0.438464 0.113603
H20   H     H_    0.834435 0.988242 0.971853 0.126431
H21   H     H_    0.814922 0.870716 0.045984 0.130136
H22   H     H_    0.096063 0.152986 0.322391 0.200170
H23   H     H_    0.806579 0.365613 0.159102 0.093815
H24   H     H_    0.211654 0.135083 0.310282 0.192078
H25   H     H_    0.115864 0.271500 0.253950 0.204947
H26   H     H_    0.261520 0.560474 0.898915 0.110107
H27   H     H_    0.231868 0.253635 0.242908 0.186972
H28   H     H_    0.707190 0.346016 0.703177 0.083700
H29   H     H_    0.264802 0.382175 0.052425 0.096528
H30   H     H_    0.188548 0.653417 0.845234 0.106327
H31   H     H_    0.832248 0.146715 0.971635 0.088120
H32   H     H_    0.229191 0.678450 0.316587 0.091265
H33   H     H_    0.525917 0.213346 0.891428 0.250859
H34   H     H_    0.163548 0.859886 0.033757 0.092671
H35   H     H_    0.496575 0.235357 0.989572 0.246513
H36   H     H_    0.393810 0.151990 0.875199 0.260458
H37   H     H_    0.132213 0.779288 0.801626 0.254554
H38   H     H_    0.236997 0.798936 0.766346 0.251045
H39   H     H_    0.135508 0.837402 0.726072 0.259368
H40   H     H_    0.830021 0.697360 0.893158 0.090215
H41   H     H_    0.142979 0.517633 0.305358 0.096802
H42   H     H_    0.237850 0.865024 0.170252 0.092348
H43   H     H_    0.672158 0.351406 0.022726 0.112708
H44   H     H_    0.321309 0.280775 0.948821 0.146522
N1    N     N_R   0.055640 0.348550 0.045600 -0.038007
N2    N     N_R   0.811290 0.303400 0.871650 -0.037775
N3    N     N_R   0.205180 0.552990 0.997660 -0.043408
N4    N     N_R   0.814810 0.361830 0.823710 -0.038814
N5    N     N_R   0.201660 0.494570 0.045600 -0.042076
N6    N     N_R   0.068420 0.560530 0.871650 -0.038182
N7    N     N_R   0.948050 0.295860 0.997660 -0.039385
N8    N     N_R   0.185190 0.638170 0.176290 -0.041256
N9    N     N_R   0.798340 0.505430 0.954400 -0.039486
N10   N     N_R   0.931580 0.439470 0.128350 -0.037416
N11   N     N_R   0.051950 0.704140 0.002340 -0.037875
N12   N     N_R   0.944360 0.651450 0.954400 -0.039874
N13   N     N_R   0.039170 0.492150 0.176290 -0.034702
N14   N     N_R   0.188710 0.696600 0.128350 -0.040985
N15   N     N_R   0.794820 0.447010 0.002340 -0.041611
N16   N     N_R   0.960830 0.507850 0.823710 -0.037265
Ni1   Ni    Ni4+2 0.119330 0.493420 0.109950 0.210829
Ni2   Ni    Ni4+2 0.880670 0.506580 0.890050 0.205684
Ni3   Ni    Ni4+2 0.872590 0.372590 0.000000 0.207142
Ni4   Ni    Ni4+2 0.127410 0.627410 0.000000 0.210079

loop_
_geom_bond_atom_site_label_1
_geom_bond_atom_site_label_2
_ccdc_geom_bond_type
C3    H42   S    
N9    N15   A    
C6    C45   A    
C27   C29   A    
C59   H37   S    
C35   C36   A    
C58   H36   S    
N1    Ni1   S    
C55   H31   S    
C3    C6    A    
C61   H34   S    
C39   C41   A    
C20   C30   A    
C54   H30   S    
C26   C27   A    
C8    C20   S    
C9    C61   A    
N3    N5    A    
C30   C31   A    
N14   Ni4   S    
N7    Ni3   S    
C10   C17   A    
C43   H17   S    
C23   C40   A    
C5    N15   A    
C33   C36   A    
C18   C19   S    
C47   H20   S    
N1    N7    A    
N4    Ni2   S    
C45   N8    A    
C28   H26   S    
C32   C41   A    
C19   H5    S    
N2    Ni3   S    
C4    C12   A    
N11   Ni4   S    
N6    Ni4   S    
C7    C15   S    
C28   C34   A    
C26   C31   A    
C13   C14   A    
C59   H38   S    
C37   H19   S    
C58   H35   S    
C7    C56   A    
C48   H21   S    
C45   H32   S    
C1    H1    S    
C51   H24   S    
C30   H8    S    
C44   C46   A    
C50   C51   S    
C29   H7    S    
C20   C29   A    
C38   C39   A    
C14   C58   S    
C56   H12   S    
C54   N6    A    
C9    C62   A    
C59   H39   S    
C36   H18   S    
C5    C7    A    
C5    H43   S    
C55   N7    A    
C52   N5    A    
C25   C26   A    
N5    Ni1   S    
C12   C21   S    
C33   C37   A    
C51   C53   S    
C35   C39   A    
C58   H33   S    
N15   Ni3   S    
C37   C38   A    
C1    C57   A    
C41   H13   S    
C47   C48   A    
C10   C19   S    
C60   H23   S    
C17   C18   S    
C44   C53   S    
C4    N16   A    
C19   H6    S    
C53   H25   S    
N12   Ni2   S    
C1    N1    A    
N8    Ni1   S    
C48   C49   A    
C16   C23   A    
C22   C27   A    
C55   C57   A    
C46   C57   S    
C53   H27   S    
C22   C24   A    
C60   N10   A    
C42   C43   A    
N16   Ni2   S    
C22   H9    S    
C44   C50   A    
C3    N14   A    
C15   C17   A    
C21   C25   A    
C46   C47   A    
C31   H10   S    
N9    Ni2   S    
C16   H14   S    
C11   C34   S    
C2    C8    A    
C13   H44   S    
C40   N4    A    
C2    N13   A    
C6    C33   S    
N13   Ni1   S    
C28   N3    A    
C18   H4    S    
N6    N16   A    
C35   H16   S    
C34   C52   A    
N10   N13   A    
N10   Ni3   S    
C23   C32   S    
C38   C43   A    
C61   N11   A    
N11   N12   A    
C8    C60   A    
C11   C13   A    
C18   H2    S    
C4    H3    S    
C2    H41   S    
C24   C59   S    
C56   N9    A    
N2    N4    A    
C25   H11   S    
N8    N14   A    
C62   N12   A    
C10   C11   A    
C16   N2    A    
N3    Ni4   S    
C42   H15   S    
C49   C50   A    
C21   C24   A    
C32   C42   A    
C14   C15   A    
C52   H29   S    
C40   H28   S    
C51   H22   S    
C12   C54   A    
C62   H40   S    
