data_mof_unit_66592.cif
_audit_creation_date              2012-12-11T14:28:17-0500
_audit_creation_method            fapswitch 2.2
_symmetry_space_group_name_H-M    P1
_symmetry_Int_Tables_number       1
_space_group_crystal_system       triclinic
_cell_length_a                    11.570624
_cell_length_b                    19.516291
_cell_length_c                    18.564788
_cell_angle_alpha                 89.887108
_cell_angle_beta                  90.139477
_cell_angle_gamma                 89.894879
_cell_volume                      4192.19229662

loop_
_atom_site_label
_atom_site_type_symbol
_atom_type_description
_atom_site_fract_x
_atom_site_fract_y
_atom_site_fract_z
_atom_type_partial_charge
C1    C     C_R   0.318152 0.961758 0.644798 0.518794
C2    C     C_R   0.317300 0.957669 0.857862 0.521882
C3    C     C_R   0.318332 0.038207 0.355233 0.511806
C4    C     C_R   0.317954 0.030875 0.149265 0.524140
C5    C     C_R   0.818167 0.461733 0.644775 0.516463
C6    C     C_R   0.819266 0.460936 0.855620 0.521404
C7    C     C_R   0.818320 0.538178 0.355209 0.517312
C8    C     C_R   0.819384 0.539063 0.144421 0.520972
C9    C     C_3   0.206560 0.723788 0.449766 0.259952
C10   C     C_3   0.119828 0.685996 0.012531 0.267535
C11   C     C_3   0.206043 0.276638 0.550423 0.260260
C12   C     C_3   0.125492 0.305470 0.986370 0.250631
C13   C     C_3   0.706656 0.223818 0.449704 0.259878
C14   C     C_3   0.622110 0.190384 0.015187 0.261158
C15   C     C_3   0.706067 0.776619 0.550428 0.260303
C16   C     C_3   0.626476 0.806823 0.986294 0.260366
C17   C     C_3   0.099896 0.752843 0.414894 0.042597
C18   C     C_3   0.018886 0.717850 0.056248 0.010719
C19   C     C_3   0.099849 0.247216 0.585104 0.041268
C20   C     C_3   0.021776 0.276160 0.943537 0.004217
C21   C     C_3   0.599920 0.252843 0.414880 0.042717
C22   C     C_3   0.518542 0.221152 0.056725 0.017325
C23   C     C_3   0.599884 0.747197 0.585119 0.041340
C24   C     C_3   0.522970 0.778139 0.942523 0.015577
C25   C     C_R   0.320259 0.015992 0.428400 -0.004570
C26   C     C_R   0.317685 0.991593 0.083007 -0.034095
C27   C     C_R   0.320047 0.984013 0.571733 -0.005866
C28   C     C_R   0.317037 0.972181 0.934550 -0.025472
C29   C     C_R   0.820209 0.515873 0.428332 -0.006330
C30   C     C_R   0.827259 0.519318 0.070742 -0.014907
C31   C     C_R   0.820108 0.483903 0.571668 -0.005251
C32   C     C_R   0.826713 0.481478 0.929125 -0.016767
C33   C     C_R   0.529940 0.987649 0.427200 -0.125671
C34   C     C_R   0.528986 0.985915 0.081483 -0.121051
C35   C     C_R   0.529690 0.012627 0.573770 -0.125643
C36   C     C_R   0.524083 0.000947 0.934650 -0.123007
C37   C     C_R   0.029815 0.487407 0.426988 -0.126163
C38   C     C_R   0.040308 0.496914 0.074120 -0.121136
C39   C     C_R   0.029847 0.512364 0.573559 -0.125339
C40   C     C_R   0.039411 0.501418 0.925933 -0.119576
C41   C     C_R   0.636483 0.994438 0.463247 0.310515
C42   C     C_R   0.632492 0.996747 0.044989 0.359020
C43   C     C_R   0.636318 0.006050 0.538099 0.309014
C44   C     C_R   0.630831 0.997434 0.969456 0.359498
C45   C     C_R   0.136408 0.494252 0.462919 0.309673
C46   C     C_R   0.146118 0.497454 0.037414 0.355368
C47   C     C_R   0.136425 0.505831 0.537781 0.309493
C48   C     C_R   0.145135 0.494971 0.961886 0.359816
C49   C     C_R   0.425254 0.000147 0.537473 -0.066584
C50   C     C_R   0.420872 0.986626 0.970845 -0.058591
C51   C     C_R   0.425383 0.999961 0.463102 -0.066646
C52   C     C_R   0.422429 0.985522 0.045629 -0.063879
C53   C     C_R   0.925322 0.499932 0.537342 -0.066099
C54   C     C_R   0.933753 0.496772 0.962771 -0.060074
C55   C     C_R   0.925335 0.499747 0.462969 -0.067133
C56   C     C_R   0.934155 0.503172 0.037331 -0.057659
C57   C     C_R   0.215020 0.982601 0.531656 0.053003
C58   C     C_R   0.212153 0.964252 0.974154 -0.001551
C59   C     C_R   0.215080 0.017266 0.468107 0.054526
C60   C     C_R   0.210084 0.981288 0.046541 0.028527
C61   C     C_R   0.715065 0.482509 0.531620 0.053261
C62   C     C_R   0.724364 0.481067 0.970010 -0.015921
C63   C     C_R   0.715046 0.517172 0.468070 0.054012
C64   C     C_R   0.725000 0.520885 0.029592 -0.017968
C65   C     C_R   0.107587 0.954440 0.554180 -0.003354
C66   C     C_R   0.104232 0.944470 0.944038 -0.048870
C67   C     C_R   0.107713 0.045602 0.445289 -0.003016
C68   C     C_R   0.097616 0.988040 0.078499 -0.000292
C69   C     C_R   0.607702 0.454318 0.554172 -0.003223
C70   C     C_R   0.619134 0.448904 0.951694 -0.047042
C71   C     C_R   0.607608 0.545487 0.445285 -0.002922
C72   C     C_R   0.620658 0.553887 0.048134 -0.051065
C73   C     C_R   0.004312 0.978998 0.528571 -0.063762
C74   C     C_R   0.004426 0.973959 0.967688 -0.087454
C75   C     C_R   0.004468 0.020940 0.470127 -0.064602
C76   C     C_R   0.002289 0.998336 0.036508 -0.066622
C77   C     C_R   0.504389 0.478898 0.528682 -0.063781
C78   C     C_R   0.515969 0.475646 0.975340 -0.056284
C79   C     C_R   0.504396 0.520854 0.470251 -0.064107
C80   C     C_R   0.516682 0.527366 0.025944 -0.055478
C81   C     C_R   0.179789 0.771497 0.634580 0.536466
C82   C     C_R   0.129959 0.756138 0.851978 0.528541
C83   C     C_R   0.179695 0.228579 0.365467 0.533476
C84   C     C_R   0.127620 0.244479 0.149670 0.531316
C85   C     C_R   0.679818 0.271501 0.634577 0.535565
C86   C     C_R   0.630024 0.256103 0.852000 0.530631
C87   C     C_R   0.679702 0.728572 0.365467 0.536505
C88   C     C_R   0.628657 0.743802 0.148482 0.520421
C89   C     C_R   0.549118 0.766971 0.651992 0.533258
C90   C     C_R   0.500146 0.787608 0.863271 0.551964
C91   C     C_R   0.549317 0.233065 0.347921 0.533154
C92   C     C_R   0.498675 0.212090 0.136656 0.558745
C93   C     C_R   0.049103 0.266978 0.651982 0.533482
C94   C     C_R   0.001028 0.286793 0.863674 0.552564
C95   C     C_R   0.049340 0.733077 0.347910 0.534211
C96   C     C_R   0.997158 0.710901 0.136742 0.552993
C97   C     C_3   0.125376 0.820988 0.448186 0.239993
C98   C     C_3   0.052307 0.788552 0.024908 0.257226
C99   C     C_3   0.126362 0.179155 0.551861 0.239153
C100  C     C_3   0.044718 0.205300 0.979770 0.264167
C101  C     C_3   0.625361 0.320988 0.448175 0.239625
C102  C     C_3   0.547445 0.291939 0.023270 0.245088
C103  C     C_3   0.626404 0.679132 0.551881 0.239413
C104  C     C_3   0.547056 0.706711 0.975575 0.249566
C105  C     C_3   0.233128 0.793200 0.487645 -0.186294
C106  C     C_3   0.153252 0.756844 0.984982 -0.119825
C107  C     C_3   0.233620 0.207315 0.512634 -0.185149
C108  C     C_3   0.150180 0.234277 0.018225 -0.132857
C109  C     C_3   0.733173 0.293234 0.487593 -0.186505
C110  C     C_3   0.652495 0.261413 0.985621 -0.147865
C111  C     C_3   0.733652 0.707294 0.512643 -0.185092
C112  C     C_3   0.652487 0.734919 0.015533 -0.150846
C113  C     C_3   0.153256 0.770820 0.552921 -0.053171
C114  C     C_3   0.075028 0.743882 0.920576 -0.012590
C115  C     C_3   0.153286 0.229385 0.447130 -0.052542
C116  C     C_3   0.073359 0.255253 0.080789 0.002013
C117  C     C_3   0.653355 0.270821 0.552896 -0.053267
C118  C     C_3   0.576450 0.244252 0.921051 -0.009152
C119  C     C_3   0.653305 0.729355 0.447138 -0.052924
C120  C     C_3   0.574611 0.753221 0.078759 -0.016608
C121  C     C_3   0.047619 0.800536 0.511024 0.282188
C122  C     C_3   0.974407 0.777009 0.957994 0.271650
C123  C     C_3   0.048186 0.199355 0.488857 0.282590
C124  C     C_3   0.969024 0.225070 0.045015 0.289816
C125  C     C_3   0.547666 0.300499 0.511027 0.282045
C126  C     C_3   0.472483 0.275679 0.956215 0.277756
C127  C     C_3   0.548213 0.699318 0.488877 0.282752
C128  C     C_3   0.470434 0.723678 0.041139 0.285645
C129  C     C_3   0.026485 0.730216 0.478232 -0.153418
C130  C     C_3   0.936981 0.706371 0.989517 -0.224068
C131  C     C_3   0.026097 0.269605 0.521560 -0.153048
C132  C     C_3   0.940817 0.295292 0.008443 -0.233243
C133  C     C_3   0.526583 0.230178 0.478234 -0.153240
C134  C     C_3   0.439161 0.205311 0.989830 -0.221347
C135  C     C_3   0.526123 0.769572 0.521573 -0.152916
C136  C     C_3   0.441658 0.794685 0.007411 -0.215006
C137  C     C_3   0.133271 0.700134 0.515219 -0.154272
C138  C     C_3   0.039327 0.674177 0.948311 -0.176094
C139  C     C_3   0.132309 0.300012 0.484756 -0.154297
C140  C     C_3   0.045944 0.324541 0.048656 -0.173317
C141  C     C_3   0.633426 0.200131 0.515182 -0.154079
C142  C     C_3   0.544533 0.174539 0.950725 -0.170512
C143  C     C_3   0.632323 0.799983 0.484761 -0.154571
C144  C     C_3   0.546254 0.823182 0.049016 -0.164715
Cr1   Cr    Cr6+3 0.488160 0.884660 0.750000 0.950284
Cr2   Cr    Cr6+3 0.488160 0.115340 0.250000 0.954315
Cr3   Cr    Cr6+3 0.988160 0.384660 0.750000 0.951533
Cr4   Cr    Cr6+3 0.988160 0.615340 0.250000 0.951102
Cr5   Cr    Cr6+3 0.173480 0.883120 0.750000 0.963629
Cr6   Cr    Cr6+3 0.173480 0.116880 0.250000 0.982466
Cr7   Cr    Cr6+3 0.673480 0.383120 0.750000 0.971947
Cr8   Cr    Cr6+3 0.673480 0.616880 0.250000 0.959973
Cr9   Cr    Cr6+3 0.333410 0.727260 0.750000 0.985775
Cr10  Cr    Cr6+3 0.333410 0.272740 0.250000 0.984081
Cr11  Cr    Cr6+3 0.833410 0.227260 0.750000 0.985904
Cr12  Cr    Cr6+3 0.833410 0.772740 0.250000 0.981042
H1    H     H_    0.303266 0.830990 0.483719 0.099305
H2    H     H_    0.235953 0.779653 0.973795 0.092729
H3    H     H_    0.304718 0.170061 0.516968 0.099595
H4    H     H_    0.227514 0.206071 0.033747 0.094970
H5    H     H_    0.803306 0.331025 0.483611 0.099510
H6    H     H_    0.733215 0.285929 0.972403 0.084112
H7    H     H_    0.804742 0.670034 0.516994 0.099619
H8    H     H_    0.728596 0.706946 0.033114 0.083489
H9    H     H_    0.924798 0.962538 0.552281 0.211920
H10   H     H_    0.928101 0.968809 0.936230 0.200070
H11   H     H_    0.925255 0.037760 0.446030 0.211994
H12   H     H_    0.925467 0.015511 0.061114 0.195934
H13   H     H_    0.424970 0.462386 0.552452 0.212026
H14   H     H_    0.438506 0.456421 0.952322 0.211870
H15   H     H_    0.425080 0.537639 0.446241 0.211736
H16   H     H_    0.439761 0.547098 0.049741 0.209858
H17   H     H_    0.948159 0.701546 0.466037 0.103389
H18   H     H_    0.864970 0.671021 0.980948 0.093323
H19   H     H_    0.947254 0.297882 0.533451 0.103191
H20   H     H_    0.872677 0.334627 0.010258 0.095992
H21   H     H_    0.448277 0.201469 0.466088 0.103389
H22   H     H_    0.366751 0.169826 0.982480 0.091786
H23   H     H_    0.447283 0.797852 0.533452 0.103195
H24   H     H_    0.372831 0.833611 0.007916 0.099599
H25   H     H_    0.131435 0.649546 0.542267 0.138040
H26   H     H_    0.030169 0.630636 0.911039 0.103204
H27   H     H_    0.129611 0.350579 0.457679 0.136417
H28   H     H_    0.041570 0.369537 0.084053 0.104261
H29   H     H_    0.631615 0.149553 0.542243 0.138400
H30   H     H_    0.540694 0.129978 0.914627 0.101715
H31   H     H_    0.629596 0.850559 0.457693 0.135868
H32   H     H_    0.542264 0.863520 0.089594 0.104871
H33   H     H_    0.528174 0.971241 0.371807 0.123292
H34   H     H_    0.531638 0.972078 0.137758 0.107732
H35   H     H_    0.527970 0.029019 0.629182 0.125843
H36   H     H_    0.522389 0.019342 0.880170 0.115345
H37   H     H_    0.028009 0.470991 0.371592 0.124769
H38   H     H_    0.042027 0.484870 0.130519 0.119787
H39   H     H_    0.028201 0.528748 0.628969 0.125336
H40   H     H_    0.040930 0.515431 0.869989 0.117101
H41   H     H_    0.099560 0.088135 0.409397 0.199514
H42   H     H_    0.076720 0.982167 0.134836 0.142578
H43   H     H_    0.099361 0.912101 0.590291 0.198765
H44   H     H_    0.092064 0.907810 0.902602 0.215768
H45   H     H_    0.599342 0.587989 0.409352 0.199556
H46   H     H_    0.617840 0.598967 0.080816 0.193828
H47   H     H_    0.599591 0.411946 0.590241 0.198645
H48   H     H_    0.614803 0.403750 0.918967 0.199081
O1    O     O_R   0.575450 0.828820 0.667950 -0.503427
O2    O     O_R   0.575450 0.828820 0.832050 -0.542569
O3    O     O_R   0.575450 0.171180 0.332050 -0.502750
O4    O     O_R   0.575450 0.171180 0.167950 -0.531566
O5    O     O_R   0.075450 0.328820 0.667950 -0.503435
O6    O     O_R   0.075450 0.328820 0.832050 -0.535344
O7    O     O_R   0.075450 0.671180 0.332050 -0.502058
O8    O     O_R   0.075450 0.671180 0.167950 -0.551655
O9    O     O_R   0.416860 0.942890 0.674680 -0.518232
O10   O     O_R   0.416860 0.942890 0.825320 -0.531286
O11   O     O_R   0.416860 0.057110 0.325320 -0.523167
O12   O     O_R   0.416860 0.057110 0.174680 -0.527302
O13   O     O_R   0.916860 0.442890 0.674680 -0.519789
O14   O     O_R   0.916860 0.442890 0.825320 -0.532575
O15   O     O_R   0.916860 0.557110 0.325320 -0.518594
O16   O     O_R   0.916860 0.557110 0.174680 -0.532509
O17   O     O_R   0.213790 0.953680 0.668330 -0.561346
O18   O     O_R   0.213790 0.953680 0.831670 -0.561070
O19   O     O_R   0.213790 0.046320 0.331670 -0.568243
O20   O     O_R   0.213790 0.046320 0.168330 -0.540837
O21   O     O_R   0.713790 0.453680 0.668330 -0.562219
O22   O     O_R   0.713790 0.453680 0.831670 -0.549271
O23   O     O_R   0.713790 0.546320 0.331670 -0.562622
O24   O     O_R   0.713790 0.546320 0.168330 -0.549490
O25   O     O_R   0.121360 0.817890 0.672660 -0.520336
O26   O     O_R   0.121360 0.817890 0.827340 -0.513565
O27   O     O_R   0.121360 0.182110 0.327340 -0.523364
O28   O     O_R   0.121360 0.182110 0.172660 -0.469556
O29   O     O_R   0.621360 0.317890 0.672660 -0.520375
O30   O     O_R   0.621360 0.317890 0.827340 -0.503531
O31   O     O_R   0.621360 0.682110 0.327340 -0.522840
O32   O     O_R   0.621360 0.682110 0.172660 -0.521458
O33   O     O_R   0.206850 0.711370 0.665820 -0.535988
O34   O     O_R   0.206850 0.711370 0.834180 -0.560296
O35   O     O_R   0.206850 0.288630 0.334180 -0.538570
O36   O     O_R   0.206850 0.288630 0.165820 -0.567535
O37   O     O_R   0.706850 0.211370 0.665820 -0.536008
O38   O     O_R   0.706850 0.211370 0.834180 -0.556110
O39   O     O_R   0.706850 0.788630 0.334180 -0.537992
O40   O     O_R   0.706850 0.788630 0.165820 -0.558380
O41   O     O_R   0.457710 0.733190 0.672630 -0.533088
O42   O     O_R   0.457710 0.733190 0.827370 -0.493798
O43   O     O_R   0.457710 0.266810 0.327370 -0.533545
O44   O     O_R   0.457710 0.266810 0.172630 -0.500088
O45   O     O_R   0.957710 0.233190 0.672630 -0.532963
O46   O     O_R   0.957710 0.233190 0.827370 -0.500492
O47   O     O_R   0.957710 0.766810 0.327370 -0.533294
O48   O     O_R   0.957710 0.766810 0.172630 -0.491197
O49   O     O_3   0.331690 0.831680 0.750000 -0.303783
O50   O     O_3   0.331690 0.168320 0.250000 -0.302997
O51   O     O_3   0.831690 0.331680 0.750000 -0.303451
O52   O     O_3   0.831690 0.668320 0.250000 -0.302451
O53   O     O_3   0.122141 0.883716 0.410014 -0.584163
C145  C     C_3   0.192382 0.880320 0.348096 -0.127594
H49   H     H_    0.168413 0.837976 0.311667 0.091800
H50   H     H_    0.285398 0.877850 0.362794 0.096031
H51   H     H_    0.177313 0.926663 0.315388 0.172353
O54   O     O_3   0.060443 0.847135 0.068743 -0.575669
C146  C     C_3   0.156345 0.840873 0.116312 -0.102360
H52   H     H_    0.237149 0.855124 0.088873 0.102912
H53   H     H_    0.168887 0.789292 0.139083 0.130035
H54   H     H_    0.143862 0.875123 0.163144 0.116911
O55   O     O_3   0.124221 0.116387 0.589957 -0.584982
C147  C     C_3   0.194465 0.120080 0.652058 -0.124660
H55   H     H_    0.169631 0.162268 0.688460 0.094797
H56   H     H_    0.287419 0.123008 0.637608 0.095666
H57   H     H_    0.180398 0.073667 0.684712 0.178198
O56   O     O_3   0.035085 0.140581 0.946392 -0.577766
C148  C     C_3   0.131439 0.127734 0.902370 -0.109496
H58   H     H_    0.208741 0.116473 0.935696 0.112068
H59   H     H_    0.148182 0.170187 0.864050 0.110834
H60   H     H_    0.113331 0.081602 0.869536 0.161150
O57   O     O_3   0.622067 0.383743 0.410058 -0.584941
C149  C     C_3   0.691892 0.380311 0.347967 -0.125325
H61   H     H_    0.667031 0.338287 0.311364 0.093513
H62   H     H_    0.784974 0.377343 0.362414 0.095413
H63   H     H_    0.677233 0.426855 0.315532 0.177816
O58   O     O_3   0.539142 0.354511 0.061060 -0.587310
C150  C     C_3   0.635758 0.364855 0.105962 -0.112389
H64   H     H_    0.716591 0.368129 0.074447 0.096315
H65   H     H_    0.642607 0.325216 0.148439 0.125515
H66   H     H_    0.624734 0.414568 0.133899 0.164372
O59   O     O_3   0.624277 0.616363 0.589981 -0.584485
C151  C     C_3   0.694504 0.620061 0.652092 -0.125245
H67   H     H_    0.669749 0.662294 0.688459 0.093206
H68   H     H_    0.787465 0.622922 0.637646 0.095659
H69   H     H_    0.680351 0.573680 0.684785 0.177072
O60   O     O_3   0.537459 0.645095 0.936254 -0.581213
C152  C     C_3   0.634680 0.635223 0.891849 -0.107625
H70   H     H_    0.713348 0.626050 0.924329 0.100571
H71   H     H_    0.648545 0.678447 0.854147 0.119374
H72   H     H_    0.620008 0.588841 0.858693 0.161393
O61   O     O_3   0.955185 0.842377 0.530253 -0.567872
C153  C     C_3   0.885805 0.856847 0.468555 -0.036971
H73   H     H_    0.855691 0.810027 0.441136 0.139530
H74   H     H_    0.927361 0.890637 0.428802 0.185705
H75   H     H_    0.810108 0.886099 0.486516 0.213578
O62   O     O_3   0.911920 0.826263 0.918114 -0.553844
C154  C     C_3   0.850788 0.794250 0.861441 -0.054710
H76   H     H_    0.788207 0.756469 0.882604 0.128869
H77   H     H_    0.908612 0.769001 0.822063 0.080587
H78   H     H_    0.802109 0.834049 0.831407 0.168489
O63   O     O_3   0.956038 0.157420 0.469570 -0.568332
C155  C     C_3   0.887136 0.142754 0.531188 -0.035958
H79   H     H_    0.856650 0.189475 0.558685 0.139305
H80   H     H_    0.929311 0.108960 0.570904 0.186358
H81   H     H_    0.811608 0.113441 0.513059 0.214748
O64   O     O_3   0.902789 0.179555 0.086951 -0.523854
C156  C     C_3   0.843960 0.215804 0.141317 -0.058234
H82   H     H_    0.780149 0.251080 0.117153 0.122472
H83   H     H_    0.902990 0.244583 0.177359 0.067469
H84   H     H_    0.797411 0.178422 0.175525 0.172896
O65   O     O_3   0.455198 0.342304 0.530277 -0.568118
C157  C     C_3   0.385813 0.356805 0.468588 -0.036480
H85   H     H_    0.355688 0.309994 0.441157 0.139601
H86   H     H_    0.427354 0.390603 0.428840 0.186287
H87   H     H_    0.310147 0.386086 0.486558 0.213804
O66   O     O_3   0.408013 0.322570 0.914455 -0.539617
C158  C     C_3   0.348301 0.287514 0.859279 -0.051970
H88   H     H_    0.284613 0.251420 0.882279 0.126361
H89   H     H_    0.407030 0.259646 0.822374 0.075284
H90   H     H_    0.301067 0.325604 0.826090 0.164593
O67   O     O_3   0.456057 0.657362 0.469640 -0.568326
C159  C     C_3   0.387153 0.642755 0.531277 -0.036090
H91   H     H_    0.356679 0.689501 0.558732 0.139367
H92   H     H_    0.429320 0.608974 0.571011 0.186181
H93   H     H_    0.311584 0.613462 0.513186 0.214423
O68   O     O_3   0.398646 0.677091 0.077631 -0.543915
C160  C     C_3   0.362984 0.703476 0.144787 -0.094918
H94   H     H_    0.365453 0.760382 0.148718 0.060490
H95   H     H_    0.414703 0.680371 0.188745 0.127302
H96   H     H_    0.274146 0.686769 0.154637 0.191584
O69   O     O_3   0.275786 0.681360 0.405939 -0.513270
C161  C     C_3   0.335525 0.720527 0.353973 -0.054506
H97   H     H_    0.385318 0.763129 0.378709 0.123542
H98   H     H_    0.276497 0.739843 0.311530 0.068231
H99   H     H_    0.398039 0.686422 0.326613 0.168033
O70   O     O_3   0.205394 0.636958 0.026876 -0.517559
C162  C     C_3   0.273625 0.629898 0.963352 0.033330
H100  H     H_    0.318642 0.677507 0.948225 0.167021
H101  H     H_    0.223324 0.612818 0.916249 0.124031
H102  H     H_    0.340112 0.591386 0.970870 0.218667
O71   O     O_3   0.274991 0.319350 0.594212 -0.514986
C163  C     C_3   0.335276 0.280469 0.646475 -0.052682
H103  H     H_    0.386310 0.238275 0.621893 0.125175
H104  H     H_    0.276398 0.260561 0.688436 0.068793
H105  H     H_    0.396638 0.314903 0.674458 0.171263
O72   O     O_3   0.213348 0.351982 0.970086 -0.512822
C164  C     C_3   0.281602 0.360056 0.033399 0.037722
H106  H     H_    0.321758 0.311710 0.051326 0.150293
H107  H     H_    0.233122 0.380508 0.079471 0.139113
H108  H     H_    0.350043 0.396643 0.024044 0.229722
O73   O     O_3   0.775890 0.181446 0.405794 -0.512902
C165  C     C_3   0.835512 0.220691 0.353826 -0.051862
H109  H     H_    0.886256 0.262811 0.378720 0.123761
H110  H     H_    0.776208 0.240744 0.311933 0.066770
H111  H     H_    0.897049 0.186495 0.325685 0.172210
O74   O     O_3   0.705563 0.141801 0.034832 -0.509454
C166  C     C_3   0.778619 0.131270 0.974382 0.044184
H112  H     H_    0.821187 0.178753 0.956474 0.152918
H113  H     H_    0.732166 0.112944 0.926474 0.135074
H114  H     H_    0.845431 0.093393 0.988196 0.235239
O75   O     O_3   0.775022 0.819344 0.594197 -0.515147
C167  C     C_3   0.835276 0.780491 0.646499 -0.053041
H115  H     H_    0.886194 0.738221 0.621967 0.124948
H116  H     H_    0.776405 0.760704 0.688533 0.069533
H117  H     H_    0.896751 0.814921 0.674389 0.170762
O76   O     O_3   0.712088 0.854989 0.970361 -0.515134
C168  C     C_3   0.781572 0.863332 0.033064 0.029822
H118  H     H_    0.822831 0.815117 0.050642 0.150729
H119  H     H_    0.733441 0.883123 0.079566 0.139008
H120  H     H_    0.849834 0.900097 0.022286 0.214070
O77   O     O_3   0.742854 0.987955 0.429030 -0.605448
C169  C     C_3   0.739355 0.001152 0.354190 -0.146701
H121  H     H_    0.690000 0.048604 0.341289 0.175110
H122  H     H_    0.704770 0.956106 0.324750 0.105396
H123  H     H_    0.828927 0.009069 0.334790 0.122764
O78   O     O_3   0.738178 0.005219 0.079527 -0.584869
C170  C     C_3   0.732870 0.014433 0.154949 -0.131868
H124  H     H_    0.818975 0.031294 0.174324 0.126174
H125  H     H_    0.713322 0.965199 0.182433 0.075444
H126  H     H_    0.670393 0.055009 0.170138 0.182472
O79   O     O_3   0.742350 0.013262 0.572821 -0.606147
C171  C     C_3   0.739657 0.996332 0.646851 -0.141155
H127  H     H_    0.691103 0.948192 0.657224 0.179529
H128  H     H_    0.704522 0.039688 0.678752 0.104750
H129  H     H_    0.829534 0.987757 0.665762 0.124839
O80   O     O_3   0.735969 0.993919 0.933078 -0.583707
C172  C     C_3   0.727230 0.985811 0.857439 -0.132029
H130  H     H_    0.813990 0.974313 0.835308 0.116740
H131  H     H_    0.697646 0.034000 0.831258 0.078810
H132  H     H_    0.670758 0.942233 0.842814 0.186434
O81   O     O_3   0.242618 0.487679 0.428524 -0.606101
C173  C     C_3   0.239075 0.502164 0.353929 -0.143856
H133  H     H_    0.189682 0.549800 0.341912 0.177624
H134  H     H_    0.204477 0.457646 0.323615 0.106107
H135  H     H_    0.328633 0.510435 0.334664 0.123237
O82   O     O_3   0.253808 0.501159 0.071466 -0.582066
C174  C     C_3   0.250281 0.514893 0.146118 -0.127993
H136  H     H_    0.339303 0.526051 0.164939 0.129940
H137  H     H_    0.220214 0.469230 0.176540 0.076691
H138  H     H_    0.197006 0.560741 0.158257 0.179661
O83   O     O_3   0.242580 0.512973 0.572372 -0.605916
C175  C     C_3   0.239920 0.496787 0.646579 -0.142693
H139  H     H_    0.191373 0.448745 0.657477 0.178315
H140  H     H_    0.204822 0.540474 0.677991 0.105068
H141  H     H_    0.329800 0.488399 0.665576 0.124565
O84   O     O_3   0.251227 0.487969 0.926983 -0.578253
C176  C     C_3   0.245535 0.479293 0.851533 -0.126985
H142  H     H_    0.332825 0.465238 0.831845 0.134963
H143  H     H_    0.220964 0.527930 0.824327 0.070755
H144  H     H_    0.186565 0.437120 0.836271 0.179352

loop_
_geom_bond_atom_site_label_1
_geom_bond_atom_site_label_2
_ccdc_geom_bond_type
C104  O60   S    
C6    C32   S    
O73   C165  S    
C7    C29   S    
C119  C143  S    
Cr6   O19   S    
C120  C144  S    
C110  C118  S    
O69   C161  S    
C154  H77   S    
C46   O82   S    
C160  H94   S    
C130  H18   S    
O58   C150  S    
C176  H142  S    
C85   O29   A    
Cr5   O26   S    
C16   C144  S    
Cr4   O8    S    
Cr10  O50   S    
C57   C59   A    
C58   C60   A    
C148  H60   S    
C87   O31   A    
O76   C168  S    
C62   C70   A    
C165  H111  S    
C33   H33   S    
C61   C63   A    
C62   C64   A    
C65   H43   S    
C165  H109  S    
C89   O1    A    
O56   C148  S    
C49   C51   A    
C34   C42   A    
C50   C52   A    
C23   C89   S    
C155  H81   S    
C97   C105  S    
C176  H143  S    
C81   O25   A    
Cr2   O50   S    
C41   C43   A    
C129  H17   S    
C42   C44   A    
Cr11  O45   S    
C142  H30   S    
C21   C133  S    
C167  H115  S    
C164  H107  S    
C54   C56   A    
C77   C79   A    
C70   H48   S    
C112  H8    S    
C46   C48   A    
C115  C123  S    
C158  H88   S    
C151  H69   S    
C27   C57   A    
C168  H120  S    
C121  C129  S    
Cr8   O52   S    
C19   C99   S    
O70   C162  S    
C29   C55   A    
Cr7   O30   S    
C30   C56   A    
C100  C124  S    
C37   H37   S    
Cr3   O13   S    
C154  H76   S    
C104  C128  S    
C14   O74   S    
C86   O38   A    
O72   C164  S    
C12   C20   S    
Cr12  O48   S    
C13   C21   S    
C140  H28   S    
C85   C117  S    
C103  O59   S    
Cr7   O21   S    
C175  H140  S    
C2    O10   A    
C113  C137  S    
C36   C44   A    
C132  C140  S    
C153  H73   S    
C80   H16   S    
C37   C45   A    
C170  H124  S    
C130  C138  S    
C36   C50   A    
C39   C47   A    
C160  H96   S    
C146  H53   S    
C20   C94   S    
C157  H87   S    
C174  H137  S    
C122  O62   S    
C133  C141  S    
C127  C135  S    
Cr2   O3    S    
C24   C90   S    
Cr8   O32   S    
C28   C58   A    
C172  H130  S    
C126  O66   S    
C98   C106  S    
C61   C69   A    
C168  H119  S    
C48   O84   S    
C32   C62   A    
C4    O20   A    
C7    O23   A    
C10   C18   S    
Cr3   O51   S    
C163  H103  S    
C5    O21   A    
C76   H12   S    
C138  H26   S    
Cr4   O15   S    
Cr6   O50   S    
Cr1   O10   S    
Cr11  O38   S    
C129  C137  S    
C126  C134  S    
C10   C138  S    
C169  H121  S    
C115  C139  S    
C3    O11   A    
C167  H117  S    
C66   H44   S    
C14   C142  S    
C4    O12   A    
C69   C77   A    
C71   C79   A    
C8    O24   A    
Cr12  O47   S    
Cr6   O28   S    
C74   C76   A    
C8    O16   A    
C1    O17   A    
O84   C176  S    
C47   O83   S    
C78   C80   A    
C156  H83   S    
C137  H25   S    
O74   C166  S    
Cr5   O49   S    
C66   C74   A    
Cr10  O36   S    
C78   H14   S    
O64   C156  S    
C124  C132  S    
C111  C119  S    
O53   C145  S    
C157  H86   S    
Cr12  O40   S    
C59   C67   A    
C89   O41   A    
C171  H127  S    
C35   C49   A    
C101  C125  S    
C175  H141  S    
Cr3   O6    S    
C103  C127  S    
C24   C136  S    
C135  C143  S    
C84   C116  S    
C90   O2    A    
O57   C149  S    
C150  H66   S    
C84   O28   A    
C94   O46   A    
C155  H80   S    
C172  H132  S    
C23   C103  S    
C100  C108  S    
C83   C115  S    
C34   H34   S    
O68   C160  S    
C73   H9    S    
C104  C112  S    
C12   O72   S    
C163  H105  S    
C9    O69   S    
C158  H89   S    
C151  H68   S    
C87   C119  S    
C152  H70   S    
Cr8   O23   S    
C98   O54   S    
C121  O61   S    
C147  H55   S    
C165  H110  S    
C92   O44   A    
C15   C143  S    
C94   O6    A    
C40   C54   A    
C162  H101  S    
C166  H114  S    
C173  H134  S    
C10   C106  S    
C67   C75   A    
Cr5   O18   S    
C72   H46   S    
O82   C174  S    
C41   O77   S    
C14   C110  S    
C3    O19   A    
C36   H36   S    
Cr6   O20   S    
C159  H91   S    
C102  C126  S    
C91   O3    A    
O55   C147  S    
Cr4   O52   S    
O54   C146  S    
C68   C76   A    
C161  H99   S    
C161  H98   S    
Cr5   O25   S    
C14   C22   S    
C145  H49   S    
C170  H126  S    
Cr9   O49   S    
C72   C80   A    
O81   C173  S    
C11   C107  S    
C83   O27   A    
C171  H129  S    
C148  H59   S    
C81   O33   A    
C114  C138  S    
C38   C46   A    
C131  C139  S    
C37   C55   A    
C15   O75   S    
C38   C56   A    
Cr10  O43   S    
C150  H64   S    
C22   C92   S    
C149  H61   S    
C25   C59   A    
C17   C97   S    
C27   C49   A    
C119  C127  S    
C29   C63   A    
O78   C170  S    
C96   O8    A    
C30   C64   A    
C73   C75   A    
C31   C61   A    
C167  H116  S    
C164  H106  S    
C109  C117  S    
C146  H52   S    
C112  C120  S    
C11   C19   S    
C86   O30   A    
Cr9   O34   S    
C101  O57   S    
C20   C132  S    
C152  H72   S    
C128  C136  S    
C40   H40   S    
C150  H65   S    
C101  C109  S    
Cr7   O29   S    
C2    O18   A    
C103  C111  S    
C132  H20   S    
Cr7   O51   S    
C79   H15   S    
C11   C139  S    
C125  O65   S    
C6    O14   A    
C9    C137  S    
C105  H1    S    
C174  H136  S    
C149  H63   S    
Cr9   O41   S    
C35   H35   S    
C166  H112  S    
C12   C140  S    
C17   C95   S    
C13   C141  S    
C88   C120  S    
C21   C91   S    
Cr2   O11   S    
C19   C93   S    
C43   O79   S    
O66   C158  S    
C82   O26   A    
Cr1   O49   S    
C153  H74   S    
C159  H93   S    
C32   C54   A    
C154  H78   S    
C160  H95   S    
C110  H6    S    
C91   O43   A    
C42   O78   S    
O63   C155  S    
C11   O71   S    
C3    C25   S    
C174  H138  S    
Cr2   O4    S    
Cr4   O7    S    
C95   O47   A    
O71   C163  S    
C2    C28   S    
Cr1   O1    S    
C38   H38   S    
C153  H75   S    
C127  O67   S    
C117  C141  S    
C134  C142  S    
O59   C151  S    
C20   C100  S    
C163  H104  S    
C86   C118  S    
C134  H22   S    
Cr4   O16   S    
C63   C71   A    
Cr1   O9    S    
Cr11  O37   S    
C22   C134  S    
C176  H144  S    
C1    O9    A    
C102  C110  S    
C96   O48   A    
C169  H122  S    
C74   H10   S    
C164  H108  S    
C16   C112  S    
C12   C108  S    
C100  O56   S    
C105  C113  S    
C116  C124  S    
C123  C131  S    
C57   C65   A    
O80   C172  S    
C67   H41   S    
C88   O40   A    
C4    C26   S    
C120  C128  S    
C33   C51   A    
C99   C107  S    
C34   C52   A    
C23   C135  S    
C8    C30   S    
C108  C116  S    
C169  H123  S    
C95   O7    A    
O67   C159  S    
C136  C144  S    
Cr3   O14   S    
C133  H21   S    
C156  H82   S    
C39   C53   A    
C39   H39   S    
C6    O22   A    
C131  H19   S    
C124  O64   S    
Cr6   O27   S    
C135  H23   S    
Cr7   O22   S    
C175  H139  S    
C60   C68   A    
C171  H128  S    
C128  O68   S    
C13   O73   S    
C81   C113  S    
Cr3   O5    S    
C9    C105  S    
C146  H54   S    
C162  H100  S    
C70   C78   A    
C18   C96   S    
O61   C153  S    
C102  O58   S    
O75   C167  S    
C97   O53   S    
Cr8   O31   S    
C172  H131  S    
C99   O55   S    
C106  C114  S    
C5    O13   A    
O60   C152  S    
C82   O34   A    
C65   C73   A    
C68   H42   S    
C45   C47   A    
C40   C48   A    
C10   O70   S    
C139  H27   S    
Cr8   O24   S    
Cr11  O51   S    
C58   C66   A    
C97   C121  S    
O83   C175  S    
C7    O15   A    
C15   C23   S    
C13   C109  S    
C16   C24   S    
Cr9   O42   S    
C166  H113  S    
C173  H135  S    
C84   O36   A    
Cr5   O17   S    
C85   O37   A    
Cr1   O2    S    
Cr11  O46   S    
C93   O45   A    
C53   C55   A    
C19   C131  S    
C88   O32   A    
C83   O35   A    
C17   C129  S    
C15   C111  S    
C111  H7    S    
C33   C41   A    
C82   C114  S    
C159  H92   S    
C90   O42   A    
C28   C50   A    
C156  H84   S    
C106  H2    S    
Cr10  O35   S    
C24   C104  S    
C44   O80   S    
C145  H50   S    
C170  H125  S    
C157  H85   S    
C92   O4    A    
Cr12  O39   S    
C26   C52   A    
C87   O39   A    
C147  H57   S    
C148  H58   S    
C113  C121  S    
C31   C53   A    
C107  C115  S    
O77   C169  S    
C98   C122  S    
C9    C17   S    
Cr10  O44   S    
C69   H47   S    
C93   O5    A    
C149  H62   S    
C145  H51   S    
C141  H29   S    
C123  O63   S    
C35   C43   A    
C155  H79   S    
C99   C123  S    
C144  H32   S    
C125  C133  S    
C71   H45   S    
O62   C154  S    
C143  H31   S    
C147  H56   S    
C118  C142  S    
C107  H3    S    
C108  H4    S    
C118  C126  S    
C136  H24   S    
C25   C51   A    
C22   C102  S    
Cr9   O33   S    
C158  H90   S    
C151  H67   S    
C21   C101  S    
C152  H71   S    
C109  H5    S    
C168  H118  S    
C45   O81   S    
C26   C60   A    
C16   O76   S    
C64   C72   A    
O65   C157  S    
C18   C130  S    
C114  C122  S    
Cr12  O52   S    
C77   H13   S    
C161  H97   S    
C162  H102  S    
C1    C27   S    
C173  H133  S    
C75   H11   S    
C18   C98   S    
C116  C140  S    
C117  C125  S    
C122  C130  S    
Cr2   O12   S    
O79   C171  S    
C5    C31   S    
