data_mof_unit_19921.cif
_audit_creation_date              2012-12-10T17:15:09-0500
_audit_creation_method            fapswitch 2.2
_symmetry_space_group_name_H-M    P1
_symmetry_Int_Tables_number       1
_space_group_crystal_system       triclinic
_cell_length_a                    10.091579
_cell_length_b                    10.827963
_cell_length_c                    12.908507
_cell_angle_alpha                 92.072185
_cell_angle_beta                  92.243848
_cell_angle_gamma                 96.309107
_cell_volume                      1399.74777509

loop_
_atom_site_label
_atom_site_type_symbol
_atom_type_description
_atom_site_fract_x
_atom_site_fract_y
_atom_site_fract_z
_atom_type_partial_charge
C1    C     C_R   0.443522 0.267455 0.491213 0.785655
C2    C     C_R   0.675154 0.476500 0.042897 0.221087
C3    C     C_R   0.336999 0.521039 0.850362 -0.275127
C4    C     C_R   0.663000 0.478958 0.149638 -0.275124
C5    C     C_R   0.572371 0.495015 0.872530 -0.279996
C6    C     C_R   0.427628 0.504981 0.127470 -0.279994
C7    C     C_R   0.562446 0.492583 0.978615 0.099816
C8    C     C_R   0.437553 0.507414 0.021385 0.099817
C9    C     C_2   0.411364 0.134708 0.471707 0.264920
C10   C     C_2   0.588637 0.865300 0.528269 0.264970
C11   C     C_2   0.485878 0.059713 0.524190 0.123493
C12   C     C_R   0.556478 0.732546 0.508787 0.785619
C13   C     C_2   0.514092 0.940276 0.475792 0.123508
C14   C     C_3   0.186143 0.669189 0.029475 -0.817373
C15   C     C_3   0.813858 0.330808 0.970527 -0.817353
C16   C     C_3   0.546049 0.877423 0.294658 -0.805985
C17   C     C_3   0.453825 0.122480 0.705323 -0.806027
C18   C     C_3   0.666713 0.852831 0.698506 0.135599
C19   C     C_3   0.750046 0.927795 0.784665 -0.818236
C20   C     C_3   0.333449 0.147160 0.301435 0.135543
C21   C     C_3   0.250027 0.072277 0.215278 -0.817967
C22   C     C_2   0.071128 0.490203 0.508319 -0.123367
C23   C     C_2   0.928872 0.509796 0.491681 -0.123398
C24   C     C_R   0.475039 0.504276 0.698567 0.880472
C25   C     C_R   0.524961 0.495723 0.301433 0.880428
C26   C     C_R   0.539637 0.492945 0.191221 -0.110280
C27   C     C_R   0.460362 0.507052 0.808778 -0.110260
C28   C     C_R   0.324845 0.523497 0.957102 0.221092
H1    H     H_    0.332018 0.512986 0.160842 0.204513
H2    H     H_    0.188511 0.727510 0.960304 0.245600
H3    H     H_    0.267741 0.706817 0.086028 0.248778
H4    H     H_    0.089525 0.674072 0.066862 0.236992
H5    H     H_    0.881373 0.498330 0.046721 0.228674
H6    H     H_    0.811491 0.272487 0.039700 0.245592
H7    H     H_    0.910476 0.325927 0.933139 0.236994
H8    H     H_    0.732258 0.293178 0.913975 0.248780
H9    H     H_    0.367171 0.844363 0.373353 0.268845
H10   H     H_    0.591102 0.790204 0.308612 0.227227
H11   H     H_    0.626118 0.956135 0.291592 0.248532
H12   H     H_    0.667981 0.487009 0.839158 0.204504
H13   H     H_    0.490553 0.866714 0.218332 0.238387
H14   H     H_    0.632724 0.155642 0.626683 0.268851
H15   H     H_    0.408722 0.209672 0.691364 0.227211
H16   H     H_    0.509289 0.133207 0.781659 0.238386
H17   H     H_    0.373796 0.043730 0.708365 0.248570
H18   H     H_    0.700963 0.758811 0.693964 0.163448
H19   H     H_    0.560171 0.845035 0.719885 0.129911
H20   H     H_    0.719155 0.022832 0.792567 0.257413
H21   H     H_    0.736066 0.881288 0.859369 0.204663
H22   H     H_    0.857351 0.934760 0.766902 0.256922
H23   H     H_    0.749473 0.468301 0.199628 0.165706
H24   H     H_    0.439997 0.154782 0.280079 0.129968
H25   H     H_    0.299376 0.241258 0.305945 0.163352
H26   H     H_    0.142696 0.065557 0.232989 0.256854
H27   H     H_    0.264196 0.118709 0.140549 0.204624
H28   H     H_    0.280689 0.977131 0.207453 0.257400
H29   H     H_    0.250526 0.531697 0.800372 0.165702
H30   H     H_    0.900493 0.575829 0.435871 0.165470
H31   H     H_    0.099507 0.424171 0.564128 0.165465
H32   H     H_    0.867333 0.387518 0.595011 0.165006
H33   H     H_    0.132667 0.612483 0.404989 0.164995
H34   H     H_    0.118627 0.501669 0.953279 0.228673
N1    N     N_2   0.162330 0.550370 0.457540 -0.195622
N2    N     N_2   0.837670 0.449630 0.542460 -0.195626
N3    N     N_2   0.199456 0.541380 0.998943 -0.322938
N4    N     N_2   0.800544 0.458617 0.001057 -0.322943
N5    N     N_2   0.455375 0.902375 0.375065 -0.283111
N6    N     N_2   0.544548 0.097588 0.624937 -0.283096
O1    O     O_R   0.567930 0.307680 0.508550 -0.624525
O2    O     O_3   0.314825 0.086909 0.396161 -0.606749
O3    O     O_R   0.432070 0.692320 0.491450 -0.624496
O4    O     O_R   0.351090 0.340020 0.481290 -0.600353
O5    O     O_R   0.648910 0.659980 0.518710 -0.600419
O6    O     O_R   0.590490 0.486480 0.665020 -0.622596
O7    O     O_R   0.409510 0.513520 0.334980 -0.622579
O8    O     O_R   0.373660 0.518820 0.637760 -0.615396
O9    O     O_R   0.626340 0.481180 0.362240 -0.615386
O10   O     O_3   0.685197 0.913131 0.603789 -0.606777
Zn1   Zn    Zn3+2 0.644780 0.478400 0.518200 0.934516
Zn2   Zn    Zn3+2 0.355220 0.521600 0.481800 0.934550

loop_
_geom_bond_atom_site_label_1
_geom_bond_atom_site_label_2
_ccdc_geom_bond_type
C23   H30   S    
C2    C7    A    
C24   C27   S    
C14   H3    S    
C18   H19   S    
C10   O10   S    
C7    C8    A    
C25   O9    A    
C3    C28   A    
C17   H17   S    
C21   H26   S    
C18   C19   S    
H33   N1    S    
C22   N1    D    
C5    C27   A    
O7    Zn2   S    
C15   H6    S    
C12   O5    A    
H14   N6    S    
C20   O2    S    
C14   H2    S    
C18   H18   S    
C15   H7    S    
O3    Zn2   S    
H5    N4    S    
N1    Zn2   S    
O9    Zn1   S    
C1    O4    A    
C4    H23   S    
C1    C9    S    
C9    O2    S    
C22   H31   S    
C5    C7    A    
C19   H20   S    
C24   O8    A    
C6    C8    A    
C25   C26   S    
C15   N4    S    
C1    O1    A    
C25   O7    A    
C2    C4    A    
C17   H15   S    
C19   H21   S    
C18   O10   S    
O5    Zn1   S    
C16   N5    S    
C9    C11   D    
C10   C12   S    
C3    H29   S    
C23   N2    D    
C12   O3    A    
O6    Zn1   S    
C8    C28   A    
N2    Zn1   S    
O1    Zn1   S    
C15   H8    S    
C11   N6    S    
C21   H27   S    
C13   N5    S    
C17   N6    S    
H34   N3    S    
O8    Zn2   S    
C14   H4    S    
C20   H25   S    
C2    N4    S    
C10   C13   D    
C21   H28   S    
C4    C26   A    
H32   N2    S    
C3    C27   A    
C28   N3    S    
C17   H16   S    
O4    Zn2   S    
C11   C13   S    
C19   H22   S    
C24   O6    A    
C6    C26   A    
H9    N5    S    
C14   N3    S    
C16   H11   S    
C6    H1    S    
C20   C21   S    
C20   H24   S    
C5    H12   S    
C22   C23   S    
C16   H13   S    
C16   H10   S    
