data_mof_unit_56564.cif
_audit_creation_date              2012-12-10T17:19:21-0500
_audit_creation_method            fapswitch 2.2
_symmetry_space_group_name_H-M    P1
_symmetry_Int_Tables_number       1
_space_group_crystal_system       triclinic
_cell_length_a                    18.283921
_cell_length_b                    18.284281
_cell_length_c                    34.476197
_cell_angle_alpha                 90.003672
_cell_angle_beta                  90.041639
_cell_angle_gamma                 89.983216
_cell_volume                      11525.6769491

loop_
_atom_site_label
_atom_site_type_symbol
_atom_type_description
_atom_site_fract_x
_atom_site_fract_y
_atom_site_fract_z
_atom_type_partial_charge
C1    C     C_R   0.529039 0.130565 0.520426 0.328203
C2    C     C_R   0.972135 0.631647 0.979677 0.376538
C3    C     C_R   0.564975 0.981751 0.959229 -0.021118
C4    C     C_R   0.986299 0.566225 0.040766 -0.037577
C5    C     C_R   0.005315 0.433239 0.959262 -0.025699
C6    C     C_R   0.564598 0.980578 0.040823 -0.022065
C7    C     C_R   0.435567 0.017453 0.959192 -0.039409
C8    C     C_R   0.999948 0.499657 0.644082 0.798735
C9    C     C_R   0.000031 0.499986 0.355905 0.800376
C10   C     C_R   0.499952 0.000032 0.644083 0.796182
C11   C     C_R   0.500003 0.000049 0.355912 0.795775
C12   C     C_R   0.500013 0.999894 0.144101 0.794409
C13   C     C_R   0.372747 0.040773 0.020174 0.383141
C14   C     C_R   0.500043 0.999862 0.855896 0.799492
C15   C     C_R   0.999556 0.500016 0.144095 0.798909
C16   C     C_R   0.999815 0.499998 0.855912 0.798134
C17   C     C_R   0.860177 0.639801 0.750004 0.788264
C18   C     C_R   0.139816 0.360168 0.250009 0.785243
C19   C     C_R   0.360185 0.860172 0.749991 0.782709
C20   C     C_R   0.639810 0.139810 0.250016 0.787520
C21   C     C_R   0.139802 0.360191 0.750005 0.789409
C22   C     C_R   0.860184 0.639817 0.249992 0.786149
C23   C     C_R   0.639832 0.139826 0.750006 0.785864
C24   C     C_R   0.629293 0.963819 0.979687 0.330315
C25   C     C_R   0.360172 0.860197 0.250012 0.788058
C26   C     C_R   0.860205 0.360175 0.250010 0.788939
C27   C     C_R   0.139821 0.639824 0.750001 0.785864
C28   C     C_R   0.360172 0.139820 0.249992 0.783855
C29   C     C_R   0.639810 0.860184 0.750014 0.788984
C30   C     C_R   0.139806 0.639827 0.250026 0.789010
C31   C     C_R   0.860167 0.360177 0.749994 0.783779
C32   C     C_R   0.639824 0.860189 0.250007 0.783911
C33   C     C_R   0.360199 0.139809 0.749997 0.788221
C34   C     C_R   0.285905 0.606495 0.775083 -0.142262
C35   C     C_R   0.976152 0.632226 0.020343 0.355841
C36   C     C_R   0.734348 0.373374 0.200869 -0.142400
C37   C     C_R   0.373823 0.265931 0.798859 -0.143025
C38   C     C_R   0.606825 0.714565 0.224210 -0.142562
C39   C     C_R   0.714137 0.393551 0.775021 -0.143458
C40   C     C_R   0.265314 0.626813 0.200722 -0.146295
C41   C     C_R   0.626458 0.734211 0.798994 -0.143571
C42   C     C_R   0.393072 0.285435 0.224171 -0.144958
C43   C     C_R   0.285396 0.393128 0.224206 -0.144810
C44   C     C_R   0.734279 0.626386 0.798989 -0.149959
C45   C     C_R   0.373088 0.734622 0.200701 -0.143624
C46   C     C_R   0.013327 0.366944 0.979705 0.336129
C47   C     C_R   0.606498 0.285899 0.775037 -0.143446
C48   C     C_R   0.714493 0.606864 0.224218 -0.141461
C49   C     C_R   0.265994 0.373746 0.798866 -0.142954
C50   C     C_R   0.626529 0.265607 0.200886 -0.142353
C51   C     C_R   0.393550 0.714141 0.775083 -0.141465
C52   C     C_R   0.765350 0.126924 0.299422 -0.146934
C53   C     C_R   0.214213 0.893404 0.724712 -0.146423
C54   C     C_R   0.893219 0.785472 0.275738 -0.140138
C55   C     C_R   0.126151 0.234039 0.701167 -0.143935
C56   C     C_R   0.235149 0.872742 0.299710 -0.147684
C57   C     C_R   0.628258 0.960351 0.020420 0.336192
C58   C     C_R   0.785872 0.106456 0.724986 -0.142243
C59   C     C_R   0.106859 0.214492 0.275735 -0.140429
C60   C     C_R   0.873674 0.765909 0.701150 -0.141836
C61   C     C_R   0.765905 0.873782 0.701193 -0.141661
C62   C     C_R   0.214553 0.106816 0.275730 -0.140677
C63   C     C_R   0.893495 0.214123 0.724948 -0.144293
C64   C     C_R   0.127297 0.765006 0.299675 -0.148071
C65   C     C_R   0.234005 0.126247 0.701140 -0.146103
C66   C     C_R   0.785545 0.893167 0.275743 -0.139017
C67   C     C_R   0.106540 0.785780 0.724753 -0.144024
C68   C     C_R   0.371354 0.035690 0.979569 0.354098
C69   C     C_R   0.873200 0.234662 0.299381 -0.147387
C70   C     C_R   0.356715 0.589671 0.787059 -0.143382
C71   C     C_R   0.673557 0.380084 0.176718 -0.148737
C72   C     C_R   0.380698 0.326832 0.822895 -0.148432
C73   C     C_R   0.590170 0.643957 0.211871 -0.143158
C74   C     C_R   0.643351 0.410393 0.786974 -0.143672
C75   C     C_R   0.325946 0.620185 0.176499 -0.153145
C76   C     C_R   0.619711 0.673371 0.823076 -0.149783
C77   C     C_R   0.409673 0.356042 0.211825 -0.144098
C78   C     C_R   0.355975 0.409748 0.211842 -0.144111
C79   C     C_R   0.322198 0.732388 0.762108 0.071306
C80   C     C_R   0.673476 0.619610 0.823076 -0.156448
C81   C     C_R   0.379685 0.673940 0.176489 -0.151312
C82   C     C_R   0.589671 0.356709 0.786979 -0.144001
C83   C     C_R   0.643861 0.590245 0.211880 -0.142386
C84   C     C_R   0.326935 0.380592 0.822898 -0.148213
C85   C     C_R   0.619799 0.326349 0.176726 -0.150512
C86   C     C_R   0.410395 0.643355 0.787062 -0.142670
C87   C     C_R   0.826004 0.120350 0.323680 -0.154265
C88   C     C_R   0.143439 0.910196 0.712666 -0.145633
C89   C     C_R   0.909876 0.856076 0.288086 -0.141400
C90   C     C_R   0.687962 0.257413 0.225567 0.075365
C91   C     C_R   0.119275 0.173135 0.677132 -0.148018
C92   C     C_R   0.174729 0.879164 0.324097 -0.157267
C93   C     C_R   0.856662 0.089619 0.713037 -0.143273
C94   C     C_R   0.090251 0.143876 0.288069 -0.141478
C95   C     C_R   0.880511 0.826835 0.677138 -0.147083
C96   C     C_R   0.826779 0.880626 0.677162 -0.146095
C97   C     C_R   0.143963 0.090177 0.288072 -0.142597
C98   C     C_R   0.910331 0.143311 0.713017 -0.143971
C99   C     C_R   0.120941 0.825455 0.324071 -0.155686
C100  C     C_R   0.173055 0.119391 0.677116 -0.152027
C101  C     C_R   0.257616 0.312182 0.774318 0.074541
C102  C     C_R   0.856178 0.909787 0.288084 -0.140921
C103  C     C_R   0.089745 0.856528 0.712688 -0.144561
C104  C     C_R   0.879783 0.174067 0.323657 -0.154383
C105  C     C_R   0.491576 0.002037 0.520383 -0.061690
C106  C     C_R   0.491954 0.002017 0.479618 -0.062639
C107  C     C_R   0.000060 0.498635 0.520327 -0.058545
C108  C     C_R   0.000155 0.499370 0.479626 -0.062228
C109  C     C_R   0.995509 0.499742 0.020368 -0.066573
C110  C     C_R   0.995256 0.499662 0.979631 -0.062938
C111  C     C_R   0.500381 0.000077 0.020372 -0.064632
C112  C     C_R   0.449676 0.874913 0.479526 0.375639
C113  C     C_R   0.732572 0.678023 0.237511 0.072333
C114  C     C_R   0.500331 0.999807 0.979620 -0.067264
C115  C     C_3   0.486242 0.238651 0.543430 0.125567
C116  C     C_3   0.507417 0.308961 0.564139 -0.793795
C117  C     C_3   0.358041 0.815329 0.447676 0.098172
C118  C     C_3   0.338521 0.745646 0.426001 -0.814151
C119  C     C_3   0.784251 0.421270 0.550368 0.092727
C120  C     C_3   0.702886 0.413712 0.558599 -0.776407
C121  C     C_3   0.221794 0.560869 0.445131 0.070607
C122  C     C_3   0.275298 0.548563 0.411970 -0.771119
C123  C     C_3   0.359824 0.814471 0.553623 0.122174
C124  C     C_R   0.677833 0.267626 0.762097 0.071076
C125  C     C_3   0.326109 0.738477 0.552531 -0.820519
C126  C     C_3   0.631090 0.193722 0.458078 0.136433
C127  C     C_3   0.654841 0.263467 0.437693 -0.837172
C128  C     C_3   0.222107 0.559738 0.555067 0.074139
C129  C     C_3   0.275134 0.547242 0.588459 -0.773651
C130  C     C_3   0.776165 0.438726 0.445964 0.076040
C131  C     C_3   0.724393 0.450937 0.411990 -0.778996
C132  C     C_3   0.098313 0.287699 0.045730 0.107179
C133  C     C_3   0.106501 0.221784 0.072272 -0.801892
C134  C     C_3   0.886408 0.702971 0.948966 0.107031
C135  C     C_R   0.311835 0.742715 0.225469 0.074778
C136  C     C_3   0.844520 0.751091 0.977435 -0.785950
C137  C     C_3   0.314924 0.136830 0.049936 0.096614
C138  C     C_3   0.280884 0.185289 0.018751 -0.796994
C139  C     C_3   0.738002 0.006236 0.957187 0.120229
C140  C     C_3   0.807423 0.985231 0.935621 -0.805426
C141  C     C_3   0.031566 0.735002 0.042829 0.116036
C142  C     C_3   0.019289 0.805968 0.064880 -0.797343
C143  C     C_3   0.954906 0.266944 0.955989 0.121595
C144  C     C_3   0.965038 0.195823 0.933758 -0.803365
C145  C     C_3   0.695346 0.864702 0.042861 0.107841
C146  C     C_R   0.742516 0.687880 0.774387 0.075562
C147  C     C_3   0.764761 0.843538 0.064462 -0.787406
C148  C     C_3   0.262771 0.992011 0.957584 0.117574
C149  C     C_3   0.193347 0.011791 0.935649 -0.790614
C150  C     C_R   0.267377 0.321973 0.237508 0.071658
C151  C     C_R   0.321946 0.267395 0.237491 0.071496
C152  C     C_R   0.687922 0.742486 0.774394 0.074875
C153  C     C_R   0.257257 0.688116 0.225482 0.074716
C154  C     C_R   0.732388 0.322195 0.762085 0.071162
C155  C     C_R   0.678001 0.732601 0.237514 0.072354
C156  C     C_R   0.865911 0.496454 0.520126 0.372870
C157  C     C_R   0.312224 0.257588 0.774312 0.074684
C158  C     C_R   0.742566 0.311988 0.225557 0.074472
C159  C     C_R   0.267631 0.677828 0.762114 0.071081
C160  C     C_R   0.811897 0.242729 0.274600 0.074640
C161  C     C_R   0.177861 0.767561 0.737782 0.071274
C162  C     C_R   0.767462 0.822007 0.262452 0.072333
C163  C     C_R   0.242380 0.187811 0.725689 0.075273
C164  C     C_R   0.188365 0.757094 0.274763 0.074280
C165  C     C_R   0.822163 0.232388 0.737892 0.071050
C166  C     C_R   0.232579 0.177981 0.262441 0.072093
C167  C     C_R   0.134449 0.498688 0.479721 0.368763
C168  C     C_R   0.757569 0.812194 0.725719 0.074599
C169  C     C_R   0.812147 0.757574 0.725701 0.075110
C170  C     C_R   0.178005 0.232554 0.262450 0.071481
C171  C     C_R   0.767611 0.177816 0.737911 0.071322
C172  C     C_R   0.242965 0.811674 0.274767 0.075123
C173  C     C_R   0.187766 0.242398 0.725701 0.074440
C174  C     C_R   0.822035 0.767430 0.262445 0.072136
C175  C     C_R   0.232435 0.822114 0.737764 0.071293
C176  C     C_R   0.757283 0.188161 0.274616 0.074884
C177  C     C_R   0.304090 0.804048 0.749960 -0.157648
C178  C     C_R   0.450236 0.874596 0.520275 0.378657
C179  C     C_R   0.695885 0.195954 0.250052 -0.150545
C180  C     C_R   0.195904 0.304072 0.750012 -0.150849
C181  C     C_R   0.804084 0.695938 0.249980 -0.155382
C182  C     C_R   0.695943 0.195931 0.750013 -0.158040
C183  C     C_R   0.304094 0.804064 0.250045 -0.151794
C184  C     C_R   0.804076 0.695909 0.750013 -0.150306
C185  C     C_R   0.195920 0.304058 0.250002 -0.156916
C186  C     C_R   0.304051 0.195912 0.249973 -0.156513
C187  C     C_R   0.695939 0.804099 0.750036 -0.150292
C188  C     C_R   0.195954 0.695893 0.250066 -0.152626
C189  C     C_R   0.533182 0.129389 0.479759 0.337780
C190  C     C_R   0.804055 0.304078 0.749982 -0.158058
C191  C     C_R   0.695938 0.804081 0.250000 -0.155065
C192  C     C_R   0.304095 0.195925 0.749993 -0.150554
C193  C     C_R   0.804079 0.304081 0.250028 -0.151336
C194  C     C_R   0.195938 0.695929 0.749987 -0.158250
C195  C     C_R   0.479353 0.936759 0.581291 -0.191390
C196  C     C_R   0.514821 0.064560 0.418707 -0.183446
C197  C     C_R   0.065903 0.494231 0.581341 -0.189403
C198  C     C_R   0.934098 0.504404 0.418653 -0.184239
C199  C     C_R   0.512897 0.064950 0.581346 -0.185063
C200  C     C_R   0.134355 0.498241 0.520445 0.367257
C201  C     C_R   0.478658 0.937092 0.418629 -0.187396
C202  C     C_R   0.933705 0.501475 0.581212 -0.193853
C203  C     C_R   0.066132 0.495230 0.418695 -0.189540
C204  C     C_R   0.987729 0.565575 0.081343 -0.186889
C205  C     C_R   0.006799 0.434212 0.918719 -0.187083
C206  C     C_R   0.563880 0.981318 0.081406 -0.184351
C207  C     C_R   0.436190 0.016832 0.918633 -0.185467
C208  C     C_R   0.005929 0.434275 0.081326 -0.186947
C209  C     C_R   0.987326 0.565382 0.918648 -0.198799
C210  C     C_R   0.436604 0.018512 0.081303 -0.200206
C211  C     C_R   0.865967 0.499507 0.479460 0.373931
C212  C     C_R   0.564166 0.982109 0.918641 -0.188051
C213  C     C_R   0.497844 0.000402 0.601589 -0.073531
C214  C     C_R   0.498238 0.000419 0.398398 -0.077218
C215  C     C_R   0.999821 0.498494 0.601572 -0.076140
C216  C     C_R   0.000100 0.499943 0.398392 -0.079696
C217  C     C_R   0.997819 0.500009 0.101619 -0.081900
C218  C     C_R   0.998296 0.499929 0.898401 -0.074952
C219  C     C_R   0.500147 0.999834 0.101627 -0.073070
C220  C     C_R   0.500149 0.999569 0.898364 -0.080064
C221  C     C_R   0.511086 0.066267 0.540808 -0.021601
C222  C     C_R   0.015742 0.367372 0.020400 0.339328
C223  C     C_R   0.473142 0.937658 0.459150 -0.049766
C224  C     C_R   0.932792 0.498623 0.540665 -0.047072
C225  C     C_R   0.067344 0.498001 0.459264 -0.042008
C226  C     C_R   0.473354 0.937405 0.540784 -0.050838
C227  C     C_R   0.513144 0.065788 0.459267 -0.022896
C228  C     C_R   0.067187 0.497173 0.540785 -0.040776
C229  C     C_R   0.933012 0.501320 0.459174 -0.043825
C230  C     C_R   0.005584 0.433404 0.040778 -0.025422
C231  C     C_R   0.984843 0.565967 0.959207 -0.046844
C232  C     C_R   0.436202 0.019906 0.040728 -0.047443
H1    H     H_    0.245887 0.563036 0.776409 0.129365
H2    H     H_    0.774688 0.583156 0.799968 0.109673
H3    H     H_    0.325196 0.520638 0.422868 0.266712
H4    H     H_    0.323784 0.852247 0.536844 0.087432
H5    H     H_    0.360158 0.833245 0.584237 0.140085
H6    H     H_    0.359811 0.700157 0.569998 0.268171
H7    H     H_    0.269889 0.740134 0.564670 0.190115
H8    H     H_    0.323491 0.718279 0.522194 0.251356
H9    H     H_    0.652203 0.146174 0.441242 0.123148
H10   H     H_    0.656109 0.193443 0.487559 0.170168
H11   H     H_    0.635292 0.311920 0.454140 0.262344
H12   H     H_    0.715456 0.265434 0.435895 0.194768
H13   H     H_    0.416310 0.775013 0.199718 0.110457
H14   H     H_    0.631839 0.265111 0.407879 0.264765
H15   H     H_    0.175628 0.593234 0.566166 0.117220
H16   H     H_    0.250691 0.591719 0.532411 0.148624
H17   H     H_    0.324956 0.518884 0.577812 0.263216
H18   H     H_    0.291127 0.600421 0.601444 0.205543
H19   H     H_    0.248929 0.513279 0.611245 0.254940
H20   H     H_    0.745595 0.409543 0.469009 0.161822
H21   H     H_    0.821791 0.403027 0.435782 0.114059
H22   H     H_    0.752612 0.481575 0.388568 0.256695
H23   H     H_    0.705924 0.397563 0.400213 0.210994
H24   H     H_    0.563044 0.245876 0.776371 0.128992
H25   H     H_    0.675854 0.482577 0.421659 0.268566
H26   H     H_    0.126684 0.334854 0.059691 0.119662
H27   H     H_    0.125235 0.275211 0.017541 0.179799
H28   H     H_    0.082898 0.172496 0.058202 0.263895
H29   H     H_    0.165195 0.211857 0.078452 0.203227
H30   H     H_    0.077766 0.231953 0.100133 0.262366
H31   H     H_    0.857705 0.649424 0.945597 0.112363
H32   H     H_    0.884733 0.729800 0.920081 0.167708
H33   H     H_    0.873968 0.803517 0.982000 0.267338
H34   H     H_    0.789193 0.763058 0.965738 0.206669
H35   H     H_    0.754543 0.563401 0.222921 0.127977
H36   H     H_    0.838278 0.722570 0.005638 0.264943
H37   H     H_    0.371833 0.155537 0.056211 0.116030
H38   H     H_    0.283576 0.144573 0.077188 0.160219
H39   H     H_    0.225602 0.164800 0.010974 0.277461
H40   H     H_    0.275988 0.242179 0.029722 0.185082
H41   H     H_    0.315893 0.185905 0.992479 0.268763
H42   H     H_    0.753858 0.026579 0.986467 0.178642
H43   H     H_    0.710505 0.051060 0.940823 0.126695
H44   H     H_    0.793638 0.965768 0.905984 0.259508
H45   H     H_    0.844083 0.033444 0.933307 0.202791
H46   H     H_    0.225588 0.416976 0.799849 0.111373
H47   H     H_    0.836457 0.941020 0.951496 0.258729
H48   H     H_    0.053079 0.748882 0.013521 0.175738
H49   H     H_    0.073124 0.702087 0.058809 0.124241
H50   H     H_    0.998927 0.793971 0.094553 0.259379
H51   H     H_    0.071516 0.836672 0.067109 0.207986
H52   H     H_    0.978451 0.840280 0.049422 0.257241
H53   H     H_    0.915882 0.302007 0.939498 0.123739
H54   H     H_    0.931012 0.253651 0.984854 0.176719
H55   H     H_    0.003041 0.159190 0.949734 0.260367
H56   H     H_    0.911498 0.167848 0.930419 0.197670
H57   H     H_    0.583289 0.225232 0.199917 0.110065
H58   H     H_    0.987850 0.207286 0.904533 0.260922
H59   H     H_    0.697300 0.839136 0.013550 0.173963
H60   H     H_    0.647625 0.842521 0.059149 0.122666
H61   H     H_    0.764149 0.867332 0.094103 0.258788
H62   H     H_    0.768449 0.783073 0.066781 0.208730
H63   H     H_    0.813473 0.864094 0.048612 0.262959
H64   H     H_    0.246925 0.972805 0.987069 0.173115
H65   H     H_    0.290550 0.946672 0.941774 0.124853
H66   H     H_    0.207177 0.030158 0.905833 0.259515
H67   H     H_    0.156966 0.963294 0.933785 0.205477
H68   H     H_    0.437011 0.754162 0.776407 0.129180
H69   H     H_    0.163985 0.056451 0.950974 0.260194
H70   H     H_    0.724929 0.083733 0.300423 0.110626
H71   H     H_    0.254250 0.936846 0.723373 0.128328
H72   H     H_    0.936673 0.745408 0.277039 0.128349
H73   H     H_    0.774745 0.416590 0.199884 0.111392
H74   H     H_    0.082903 0.274430 0.700198 0.110600
H75   H     H_    0.275578 0.915929 0.300711 0.110187
H76   H     H_    0.745860 0.062988 0.723674 0.129168
H77   H     H_    0.063401 0.254546 0.277034 0.128526
H78   H     H_    0.916889 0.725487 0.700156 0.110935
H79   H     H_    0.725525 0.917041 0.700235 0.111731
H80   H     H_    0.254617 0.063363 0.277026 0.128521
H81   H     H_    0.936942 0.254152 0.723605 0.129037
H82   H     H_    0.084065 0.724626 0.300647 0.111474
H83   H     H_    0.274421 0.083026 0.700150 0.109557
H84   H     H_    0.417061 0.225528 0.799835 0.110757
H85   H     H_    0.745493 0.936627 0.277045 0.128297
H86   H     H_    0.063074 0.745762 0.723447 0.128661
H87   H     H_    0.916439 0.275039 0.300349 0.111088
H88   H     H_    0.034943 0.869654 0.703078 0.135157
H89   H     H_    0.926783 0.168830 0.342565 0.127348
H90   H     H_    0.167606 0.072223 0.658361 0.124740
H91   H     H_    0.869178 0.964463 0.297928 0.135862
H92   H     H_    0.965144 0.130154 0.703476 0.135731
H93   H     H_    0.074100 0.830590 0.343062 0.127763
H94   H     H_    0.832208 0.927824 0.658434 0.128630
H95   H     H_    0.563373 0.754629 0.222905 0.127509
H96   H     H_    0.131012 0.035496 0.297918 0.136131
H97   H     H_    0.035586 0.130889 0.297906 0.135945
H98   H     H_    0.927656 0.832260 0.658387 0.127024
H99   H     H_    0.169666 0.926006 0.343110 0.125941
H100  H     H_    0.869817 0.034786 0.703511 0.135253
H101  H     H_    0.964571 0.869037 0.297937 0.136024
H102  H     H_    0.072063 0.167693 0.658393 0.126991
H103  H     H_    0.831241 0.073403 0.342606 0.127307
H104  H     H_    0.130311 0.964975 0.703039 0.135724
H105  H     H_    0.572712 0.331677 0.157887 0.124888
H106  H     H_    0.754157 0.437012 0.776342 0.129017
H107  H     H_    0.465224 0.630215 0.796630 0.136056
H108  H     H_    0.630847 0.535569 0.202052 0.135036
H109  H     H_    0.332391 0.427767 0.841647 0.127492
H110  H     H_    0.426662 0.668667 0.157604 0.125181
H111  H     H_    0.534859 0.369867 0.796521 0.135623
H112  H     H_    0.368941 0.464422 0.202001 0.135564
H113  H     H_    0.668119 0.572480 0.841858 0.125463
H114  H     H_    0.572605 0.667987 0.841859 0.126608
H115  H     H_    0.464325 0.369028 0.201975 0.135201
H116  H     H_    0.630211 0.465222 0.796516 0.136497
H117  H     H_    0.224936 0.583576 0.199756 0.110283
H118  H     H_    0.331192 0.573172 0.157621 0.124778
H119  H     H_    0.427901 0.332263 0.841642 0.126962
H120  H     H_    0.535478 0.630980 0.202032 0.135328
H121  H     H_    0.369877 0.534858 0.796620 0.135509
H122  H     H_    0.668211 0.427135 0.157874 0.126683
H123  H     H_    0.469356 0.886928 0.597324 0.188502
H124  H     H_    0.530225 0.113242 0.402764 0.199902
H125  H     H_    0.116457 0.489826 0.597475 0.197415
H126  H     H_    0.883439 0.508842 0.402603 0.198618
H127  H     H_    0.527590 0.113831 0.597321 0.199273
H128  H     H_    0.583231 0.774621 0.799977 0.110271
H129  H     H_    0.466754 0.887624 0.402544 0.197030
H130  H     H_    0.882926 0.506037 0.597153 0.196066
H131  H     H_    0.116664 0.490227 0.402624 0.197911
H132  H     H_    0.980730 0.616113 0.097324 0.200759
H133  H     H_    0.015071 0.383790 0.902804 0.202156
H134  H     H_    0.612721 0.966689 0.097450 0.199838
H135  H     H_    0.387073 0.030690 0.902632 0.200474
H136  H     H_    0.013308 0.383777 0.097291 0.201834
H137  H     H_    0.980512 0.615896 0.902642 0.190806
H138  H     H_    0.387606 0.032620 0.097289 0.189239
H139  H     H_    0.436521 0.245371 0.222860 0.127527
H140  H     H_    0.613220 0.968204 0.902636 0.199274
H141  H     H_    0.442680 0.211065 0.560643 0.130574
H142  H     H_    0.464162 0.253400 0.514324 0.180431
H143  H     H_    0.549524 0.338591 0.547075 0.257568
H144  H     H_    0.458620 0.344616 0.567362 0.216072
H145  H     H_    0.529652 0.296294 0.593369 0.256604
H146  H     H_    0.348729 0.862465 0.427858 0.122360
H147  H     H_    0.320367 0.820516 0.472748 0.130552
H148  H     H_    0.346499 0.697572 0.445235 0.257932
H149  H     H_    0.280425 0.747660 0.416627 0.198446
H150  H     H_    0.245339 0.436588 0.222921 0.127950
H151  H     H_    0.373838 0.739715 0.399991 0.265837
H152  H     H_    0.814628 0.406713 0.577189 0.143255
H153  H     H_    0.799068 0.380854 0.527456 0.098382
H154  H     H_    0.670823 0.427050 0.532155 0.254558
H155  H     H_    0.690390 0.356684 0.567480 0.209780
H156  H     H_    0.686678 0.451407 0.582349 0.265119
H157  H     H_    0.249770 0.593455 0.467799 0.139775
H158  H     H_    0.175115 0.593787 0.433770 0.119128
H159  H     H_    0.249594 0.514260 0.389145 0.256138
H160  H     H_    0.291098 0.601739 0.398944 0.209498
O1    O     O_3   0.000000 0.500000 0.750000 -0.484781
O2    O     O_R   0.060740 0.500000 0.337440 -0.647403
O3    O     O_R   0.500000 0.939260 0.662560 -0.641862
O4    O     O_R   0.500000 0.060740 0.337440 -0.642660
O5    O     O_R   0.560740 1.000000 0.162560 -0.642607
O6    O     O_R   0.439260 1.000000 0.837440 -0.644443
O7    O     O_R   1.000000 0.560740 0.162560 -0.645811
O8    O     O_R   1.000000 0.439260 0.837440 -0.645736
O9    O     O_R   0.439260 1.000000 0.162560 -0.644394
O10   O     O_R   0.560740 1.000000 0.837440 -0.645529
O11   O     O_R   1.000000 0.439260 0.162560 -0.644717
O12   O     O_3   0.000000 0.500000 0.250000 -0.484650
O13   O     O_R   1.000000 0.560740 0.837440 -0.645215
O14   O     O_R   0.853850 0.585450 0.727070 -0.633483
O15   O     O_R   0.146150 0.414550 0.272930 -0.636835
O16   O     O_R   0.414550 0.853850 0.727070 -0.640198
O17   O     O_R   0.585450 0.146150 0.272930 -0.638636
O18   O     O_R   0.146150 0.414550 0.727070 -0.637925
O19   O     O_R   0.853850 0.585450 0.272930 -0.636959
O20   O     O_R   0.585450 0.146150 0.727070 -0.637873
O21   O     O_R   0.414550 0.853850 0.272930 -0.638715
O22   O     O_R   0.853850 0.414550 0.272930 -0.639759
O23   O     O_3   0.500000 0.000000 0.750000 -0.485766
O24   O     O_R   0.146150 0.585450 0.727070 -0.640903
O25   O     O_R   0.414550 0.146150 0.272930 -0.634093
O26   O     O_R   0.585450 0.853850 0.727070 -0.632411
O27   O     O_R   0.146150 0.585450 0.272930 -0.639159
O28   O     O_R   0.853850 0.414550 0.727070 -0.638793
O29   O     O_R   0.585450 0.853850 0.272930 -0.633989
O30   O     O_R   0.414550 0.146150 0.727070 -0.637985
O31   O     O_R   0.353850 0.085450 0.227070 -0.641616
O32   O     O_R   0.646150 0.914550 0.772930 -0.639377
O33   O     O_R   0.914550 0.353850 0.227070 -0.634323
O34   O     O_3   0.500000 1.000000 0.250000 -0.487022
O35   O     O_R   0.085450 0.646150 0.772930 -0.636124
O36   O     O_R   0.646150 0.914550 0.227070 -0.640151
O37   O     O_R   0.353850 0.085450 0.772930 -0.636640
O38   O     O_R   0.085450 0.646150 0.227070 -0.637271
O39   O     O_R   0.914550 0.353850 0.772930 -0.639678
O40   O     O_R   0.353850 0.914550 0.772930 -0.637837
O41   O     O_R   0.646150 0.085450 0.227070 -0.634050
O42   O     O_R   0.914550 0.646150 0.772930 -0.640757
O43   O     O_R   0.085450 0.353850 0.227070 -0.640787
O44   O     O_R   0.646150 0.085450 0.772930 -0.639575
O45   O     O_R   0.060740 0.500000 0.662560 -0.648024
O46   O     O_R   0.353850 0.914550 0.227070 -0.635324
O47   O     O_R   0.085450 0.353850 0.772930 -0.636085
O48   O     O_R   0.914550 0.646150 0.227070 -0.638754
O49   O     O_3   0.548539 0.193463 0.540198 -0.613271
O50   O     O_3   0.431714 0.811209 0.459993 -0.561881
O51   O     O_3   0.799490 0.494341 0.539381 -0.570423
O52   O     O_3   0.200505 0.492149 0.460319 -0.568218
O53   O     O_3   0.432440 0.810456 0.539454 -0.567265
O54   O     O_3   0.553965 0.191997 0.460106 -0.600527
O55   O     O_3   0.200275 0.491135 0.539961 -0.570564
O56   O     O_R   0.939260 0.500000 0.337440 -0.647096
O57   O     O_3   0.800093 0.507407 0.459974 -0.564875
O58   O     O_3   0.023162 0.301988 0.040201 -0.603025
O59   O     O_3   0.960739 0.696965 0.960203 -0.616199
O60   O     O_3   0.309873 0.062034 0.039532 -0.612561
O61   O     O_3   0.692177 0.944340 0.959906 -0.612077
O62   O     O_3   0.964609 0.696954 0.040195 -0.603448
O63   O     O_3   0.023394 0.301787 0.960003 -0.604910
O64   O     O_3   0.691408 0.941665 0.040243 -0.604708
O65   O     O_3   0.308256 0.054231 0.959700 -0.598475
O66   O     O_R   0.500000 0.060740 0.662560 -0.645769
O67   O     O_R   0.500000 0.939260 0.337440 -0.641758
O68   O     O_R   0.939260 0.500000 0.662560 -0.644607
Zn1   Zn    Zn3+2 0.000000 0.586740 0.782740 0.959919
Zn2   Zn    Zn3+2 0.500000 0.913260 0.717260 0.964569
Zn3   Zn    Zn3+2 0.913260 0.500000 0.282740 0.958981
Zn4   Zn    Zn3+2 0.086740 0.500000 0.717260 0.956819
Zn5   Zn    Zn3+2 0.500000 0.913260 0.282740 0.964407
Zn6   Zn    Zn3+2 0.500000 0.086740 0.717260 0.960239
Zn7   Zn    Zn3+2 0.086740 0.500000 0.282740 0.958046
Zn8   Zn    Zn3+2 0.913260 0.500000 0.717260 0.963051
Zn9   Zn    Zn3+2 0.000000 0.413260 0.217260 0.961678
Zn10  Zn    Zn3+2 0.413260 1.000000 0.782740 0.960645
Zn11  Zn    Zn3+2 0.586740 1.000000 0.217260 0.962886
Zn12  Zn    Zn3+2 0.000000 0.413260 0.782740 0.960317
Zn13  Zn    Zn3+2 0.000000 0.586740 0.217260 0.960420
Zn14  Zn    Zn3+2 0.586740 1.000000 0.782740 0.959419
Zn15  Zn    Zn3+2 0.413260 1.000000 0.217260 0.959148
Zn16  Zn    Zn3+2 0.500000 0.086740 0.282740 0.963983

loop_
_geom_bond_atom_site_label_1
_geom_bond_atom_site_label_2
_ccdc_geom_bond_type
C12   O9    A    
C159  C194  A    
C126  C127  S    
C197  H125  S    
C83   H108  S    
C203  C225  A    
C64   C164  A    
C198  C216  A    
C150  C185  A    
C175  C177  A    
C11   O67   A    
O23   Zn6   S    
O15   Zn7   S    
C15   O7    A    
C24   O61   S    
C22   C181  S    
C60   H78   S    
C131  H23   S    
C61   H79   S    
C10   O3    A    
C149  H66   S    
O42   Zn1   S    
C208  C217  A    
C69   C160  A    
C1    C221  A    
C209  C231  A    
C39   C74   A    
C78   H112  S    
C31   O28   A    
C55   C173  A    
C142  H52   S    
C7    C68   A    
C29   O26   A    
C50   C90   A    
C176  C179  A    
C39   H106  S    
C211  O57   S    
C167  C200  A    
C139  H42   S    
C203  H131  S    
C163  C192  A    
C91   C100  A    
C36   C71   A    
C67   H86   S    
C168  C187  A    
C144  H55   S    
C96   H94   S    
C14   C220  S    
C46   O63   S    
C189  C227  A    
C113  C155  A    
C152  C187  A    
C167  O52   S    
C51   H68   S    
O34   Zn16  S    
C189  O54   S    
C129  H17   S    
C158  C193  A    
C208  H136  S    
C39   C154  A    
O20   Zn6   S    
C42   H139  S    
O45   Zn4   S    
C65   C100  A    
C23   C182  S    
O12   Zn7   S    
O13   Zn1   S    
C59   H77   S    
C137  H37   S    
O1    Zn1   S    
C212  C220  A    
C94   C97   A    
C164  C188  A    
C36   H73   S    
C75   H118  S    
C76   H114  S    
C17   O42   A    
C124  C182  A    
C109  C230  A    
O9    Zn15  S    
C119  C120  S    
C165  C190  A    
C72   C84   A    
C120  H154  S    
C168  C169  A    
C149  H69   S    
C206  C219  A    
C138  H40   S    
O23   Zn2   S    
C112  C178  A    
O47   Zn12  S    
C103  H88   S    
C28   O31   A    
C166  C186  A    
C45   C81   A    
C26   O33   A    
C115  H141  S    
C46   C222  A    
C139  C140  S    
C10   C213  S    
C121  H158  S    
C63   C98   A    
C9    O56   A    
C33   O37   A    
C5    C46   A    
C48   H35   S    
C61   C168  A    
C69   H87   S    
C130  C131  S    
C137  O60   S    
C47   H24   S    
C23   O20   A    
C142  H50   S    
C95   H98   S    
C205  H133  S    
C17   C184  S    
O29   Zn5   S    
O34   Zn5   S    
C30   O27   A    
C170  C185  A    
C148  O65   S    
C58   C171  A    
C201  C214  A    
C11   C214  S    
C123  H4    S    
C60   C95   A    
C145  O64   S    
C141  O62   S    
C199  H127  S    
C106  C227  A    
O32   Zn14  S    
C27   O24   A    
C32   O29   A    
C73   C83   A    
C125  H6    S    
C18   O15   A    
C85   H105  S    
C41   C76   A    
C165  C171  A    
C151  C186  A    
C132  O58   S    
C4    C109  A    
C129  H19   S    
C134  H31   S    
C6    C111  A    
C200  O55   S    
O44   Zn14  S    
C135  C183  A    
C128  C129  S    
C19   O16   A    
C61   C96   A    
C67   C103  A    
C133  H29   S    
C31   C190  S    
C23   O44   A    
C60   C169  A    
C49   C84   A    
C134  O59   S    
C18   O43   A    
C25   O21   A    
C5    C110  A    
C62   H80   S    
C115  C116  S    
C27   O35   A    
O2    Zn7   S    
C86   H107  S    
C43   H150  S    
C136  H34   S    
C37   C157  A    
O17   Zn16  S    
C120  H156  S    
C64   C99   A    
C113  C181  A    
C33   O30   A    
C24   C57   A    
C126  H10   S    
C107  C108  A    
C79   C177  A    
C16   C218  S    
O36   Zn11  S    
C19   C177  S    
O37   Zn10  S    
C128  O55   S    
C34   C159  A    
C99   H93   S    
C117  H147  S    
O23   Zn10  S    
C156  C211  A    
C15   O11   A    
C139  H43   S    
C3    C24   A    
C38   C155  A    
C66   H85   S    
C20   C179  S    
C65   C163  A    
C122  H159  S    
C45   C135  A    
C127  H11   S    
C7    C207  A    
O38   Zn13  S    
C93   H100  S    
O27   Zn7   S    
O34   Zn11  S    
C73   H120  S    
C144  H58   S    
C210  C219  A    
C35   O62   S    
C63   H81   S    
O14   Zn8   S    
C169  C184  A    
C145  H60   S    
C28   C186  S    
C62   C97   A    
C196  C214  A    
C106  C223  A    
O68   Zn8   S    
C212  H140  S    
C127  H14   S    
C31   O39   A    
C68   O65   S    
C50   H57   S    
C42   C151  A    
C125  H8    S    
C43   C150  A    
C143  H54   S    
C62   C166  A    
C166  C170  A    
C112  O50   S    
C40   C153  A    
C164  C172  A    
C201  C223  A    
C27   C194  S    
C163  C173  A    
C53   C175  A    
C2    O59   S    
C34   C70   A    
C19   O40   A    
C16   O8    A    
C199  C213  A    
C72   H119  S    
C76   C80   A    
C56   H75   S    
C21   O18   A    
C41   H128  S    
C16   O13   A    
C80   H113  S    
C147  H62   S    
C123  O53   S    
O33   Zn9   S    
C18   C185  S    
C201  H129  S    
C48   C83   A    
C146  C184  A    
C136  H36   S    
O39   Zn12  S    
C101  C180  A    
C117  C118  S    
C13   C232  A    
C172  C183  A    
C105  C221  A    
C148  H65   S    
C71   H122  S    
C51   C79   A    
C4    C35   A    
C110  C231  A    
O10   Zn14  S    
C197  C228  A    
C8    O68   A    
C222  C230  A    
C42   C77   A    
C210  C232  A    
C150  C151  A    
C34   H1    S    
C56   C172  A    
C92   C99   A    
C160  C193  A    
C123  H5    S    
C13   C68   A    
C1    C189  A    
C2    C35   A    
C11   O4    A    
C198  H126  S    
C100  H90   S    
C144  H56   S    
C9    O2    A    
O41   Zn11  S    
O5    Zn11  S    
C198  C229  A    
C118  H148  S    
C77   C78   A    
C43   C78   A    
C10   O66   A    
C207  C220  A    
O22   Zn3   S    
C7    C114  A    
O16   Zn2   S    
C58   C93   A    
O66   Zn6   S    
C107  C224  A    
O19   Zn3   S    
C57   O64   S    
C79   C159  A    
C123  C125  S    
C108  C225  A    
C66   C162  A    
C200  C228  A    
C156  O51   S    
C209  H137  S    
C21   O47   A    
C38   H95   S    
C77   H115  S    
C55   C91   A    
C50   C85   A    
O4    Zn16  S    
C59   C94   A    
C1    O49   S    
C202  C215  A    
C15   C217  S    
C143  O63   S    
O12   Zn13  S    
C14   O10   A    
C116  H143  S    
C115  H142  S    
C122  H3    S    
C154  C190  A    
C196  C227  A    
C101  C157  A    
O12   Zn9   S    
C128  H15   S    
C6    C57   A    
C74   C82   A    
C51   C86   A    
O31   Zn15  S    
C162  C191  A    
C145  C147  S    
C26   O22   A    
C138  H39   S    
C37   H84   S    
C127  H12   S    
C138  H41   S    
C202  C224  A    
C203  C216  A    
C44   C80   A    
C91   H102  S    
C53   H71   S    
C45   H13   S    
O8    Zn12  S    
O1    Zn8   S    
C173  C180  A    
C121  H157  S    
C222  O58   S    
C3    C114  A    
C29   C187  S    
C30   C188  S    
C8    O45   A    
O3    Zn2   S    
C52   H70   S    
C142  H51   S    
O24   Zn4   S    
C67   C161  A    
C195  H123  S    
C40   H117  S    
O23   Zn14  S    
C196  H124  S    
C204  H132  S    
C141  H49   S    
C121  C122  S    
C143  H53   S    
C117  O50   S    
C112  C223  A    
C82   H111  S    
O34   Zn15  S    
C74   H116  S    
C126  O54   S    
C129  H18   S    
C134  H32   S    
C211  C229  A    
C140  H45   S    
C64   H82   S    
C141  H48   S    
C132  H26   S    
C137  H38   S    
C153  C188  A    
C130  H20   S    
C105  C106  A    
C81   H110  S    
C40   C75   A    
C156  C224  A    
C102  H91   S    
C143  C144  S    
C32   O36   A    
C157  C192  A    
C206  H134  S    
C149  H67   S    
C109  C110  A    
O30   Zn6   S    
C87   H103  S    
C47   C124  A    
C92   H99   S    
C147  H63   S    
O28   Zn8   S    
C54   C174  A    
C28   O25   A    
C111  C114  A    
C195  C213  A    
C4    C204  A    
C116  H145  S    
C87   C104  A    
C130  H21   S    
C32   C191  S    
C37   C72   A    
C178  O53   S    
O67   Zn5   S    
C26   C193  S    
C48   C113  A    
O1    Zn4   S    
C117  H146  S    
O21   Zn5   S    
C124  C154  A    
C89   C102  A    
C66   C102  A    
C171  C182  A    
C95   C96   A    
C207  H135  S    
C8    C215  S    
C131  H22   S    
C41   C152  A    
C122  H160  S    
C33   C192  S    
C209  C218  A    
C161  C175  A    
C167  C225  A    
C118  H151  S    
C25   O46   A    
C47   C82   A    
C58   H76   S    
C145  H59   S    
O12   Zn3   S    
C131  H25   S    
C21   C180  S    
C132  C133  S    
C44   C146  A    
C20   O41   A    
C199  C221  A    
O35   Zn1   S    
C59   C170  A    
C12   C219  S    
C197  C215  A    
C36   C158  A    
C130  O57   S    
C98   H92   S    
O46   Zn15  S    
C71   C85   A    
O26   Zn2   S    
C111  C232  A    
C160  C176  A    
C140  H47   S    
C174  C181  A    
C119  H153  S    
C132  H27   S    
C108  C229  A    
C133  H28   S    
C9    C216  S    
C133  H30   S    
C148  H64   S    
C119  O51   S    
C205  C218  A    
C6    C206  A    
C128  H16   S    
C148  C149  S    
O6    Zn10  S    
C54   C89   A    
C54   H72   S    
C75   C81   A    
C134  C136  S    
C147  H61   S    
C30   O38   A    
C89   H101  S    
C136  H33   S    
C90   C158  A    
C104  H89   S    
C14   O6    A    
C44   H2    S    
O7    Zn13  S    
C120  H155  S    
C17   O14   A    
C63   C165  A    
C107  C228  A    
O43   Zn9   S    
C126  H9    S    
C139  O61   S    
C105  C226  A    
C97   H96   S    
C155  C191  A    
C2    C231  A    
C88   H104  S    
C146  C152  A    
C29   O32   A    
O48   Zn13  S    
O1    Zn12  S    
O40   Zn10  S    
C70   C86   A    
C88   C103  A    
C12   O5    A    
C210  H138  S    
C69   C104  A    
C3    C212  A    
C90   C179  A    
C22   O48   A    
C195  C226  A    
C52   C87   A    
C65   H83   S    
O11   Zn9   S    
C13   O60   S    
C125  H7    S    
C162  C174  A    
C118  H149  S    
C202  H130  S    
C137  C138  S    
C135  C153  A    
C70   H121  S    
C204  C217  A    
C140  H44   S    
C141  C142  S    
C49   H46   S    
C115  O49   S    
O56   Zn3   S    
C161  C194  A    
C53   C88   A    
C22   O19   A    
C55   H74   S    
C178  C226  A    
C20   O17   A    
C5    C205  A    
C116  H144  S    
C56   C92   A    
C84   H109  S    
O25   Zn16  S    
C94   H97   S    
C52   C176  A    
C119  H152  S    
C93   C98   A    
O18   Zn4   S    
C25   C183  S    
C49   C101  A    
C208  C230  A    
C121  O52   S    
C38   C73   A    
