data_mof_unit_35293.cif
_audit_creation_date              2012-12-10T20:27:52-0500
_audit_creation_method            fapswitch 2.2
_symmetry_space_group_name_H-M    P1
_symmetry_Int_Tables_number       1
_space_group_crystal_system       triclinic
_cell_length_a                    12.902397
_cell_length_b                    10.596272
_cell_length_c                    9.850879
_cell_angle_alpha                 88.72848
_cell_angle_beta                  97.285915
_cell_angle_gamma                 90.654548
_cell_volume                      1335.5319532

loop_
_atom_site_label
_atom_site_type_symbol
_atom_type_description
_atom_site_fract_x
_atom_site_fract_y
_atom_site_fract_z
_atom_type_partial_charge
C1    C     C_R   0.513320 0.260628 0.503486 0.876845
C2    C     C_R   0.550807 0.938385 0.383478 -0.330595
C3    C     C_R   0.528783 0.872203 0.501217 -0.191465
C4    C     C_R   0.297985 0.502344 0.472816 0.950502
C5    C     C_R   0.543184 0.932717 0.625467 0.097320
C6    C     C_3   0.483609 0.924525 0.744641 -0.442058
C7    C     C_3   0.510425 0.063317 0.763695 0.304538
C8    C     C_R   0.411492 0.469976 0.057093 0.214119
C9    C     C_R   0.580606 0.552297 0.085109 -0.302576
C10   C     C_R   0.581402 0.554287 0.938461 0.510114
C11   C     C_R   0.410937 0.471798 0.915170 0.059524
C12   C     C_R   0.028943 0.505050 0.563264 0.111145
C13   C     C_3   0.344975 0.355653 0.900261 -0.601333
C14   C     C_3   0.346312 0.352606 0.055332 0.287558
C15   C     C_R   0.504039 0.740802 0.499190 0.918626
C16   C     C_R   0.701874 0.501182 0.526625 0.868044
C17   C     C_R   0.813928 0.504744 0.541618 -0.061442
C18   C     C_R   0.185643 0.509515 0.455684 -0.285415
C19   C     C_R   0.019626 0.531145 0.314764 0.505891
C20   C     C_R   0.127589 0.526200 0.325944 0.523217
C21   C     C_R   0.135942 0.501734 0.573389 -0.364627
C22   C     C_3   0.624825 0.195621 0.901261 0.154270
C23   C     C_R   0.970107 0.519340 0.433013 -0.051200
C24   C     C_3   0.726340 0.185539 0.999550 -0.331882
C25   C     C_3   0.770177 0.314121 0.044089 -0.894846
C26   C     C_3   0.746687 0.659681 0.956555 0.041028
C27   C     C_3   0.727803 0.792348 0.007603 -0.372605
C28   C     C_3   0.816815 0.832922 0.115245 -0.867029
C29   C     C_3   0.339570 0.139881 0.115768 0.162353
C30   C     C_3   0.283888 0.128524 0.244165 -0.378263
C31   C     C_3   0.228316 0.001192 0.252185 -0.933530
C32   C     C_R   0.862803 0.520239 0.423526 -0.195856
C33   C     C_R   0.872251 0.491513 0.670666 -0.197866
C34   C     C_R   0.980092 0.492411 0.681697 -0.144775
C35   C     C_R   0.559824 0.059983 0.632876 -0.025687
C36   C     C_R   0.546975 0.130857 0.509886 -0.311547
C37   C     C_R   0.561262 0.068963 0.387884 0.646727
F1    F     F_    0.963881 0.546336 0.188994 -0.688353
F2    F     F_    0.174569 0.539566 0.210686 -0.662108
F3    F     F_    0.574657 0.133536 0.270850 -0.643711
H1    H     H_    0.817402 0.531487 0.323645 0.193802
H2    H     H_    0.180200 0.492362 0.673840 0.199459
H3    H     H_    0.552369 0.891560 0.287098 0.190721
H4    H     H_    0.398837 0.906785 0.713760 0.147455
H5    H     H_    0.568145 0.253868 0.947600 0.186634
H6    H     H_    0.643167 0.240986 0.804073 0.142700
H7    H     H_    0.711911 0.129748 0.092196 0.281035
H8    H     H_    0.785304 0.135000 0.948536 0.210735
H9    H     H_    0.777916 0.375575 0.953419 0.254911
H10   H     H_    0.848464 0.302658 0.104126 0.284564
H11   H     H_    0.718221 0.358779 0.110140 0.281423
H12   H     H_    0.520891 0.860451 0.827171 0.233652
H13   H     H_    0.811883 0.667849 0.893275 0.186669
H14   H     H_    0.775145 0.591950 0.040277 0.179505
H15   H     H_    0.722037 0.860578 0.919672 0.253559
H16   H     H_    0.653248 0.795591 0.052543 0.223834
H17   H     H_    0.822382 0.767289 0.205361 0.274826
H18   H     H_    0.801982 0.929206 0.149880 0.254733
H19   H     H_    0.892163 0.833813 0.071753 0.278137
H20   H     H_    0.391639 0.057372 0.113393 0.195966
H21   H     H_    0.281664 0.134928 0.021690 0.098393
H22   H     H_    0.341516 0.138368 0.336947 0.232116
H23   H     H_    0.440442 0.122647 0.760140 0.079802
H24   H     H_    0.225644 0.205020 0.243321 0.213743
H25   H     H_    0.169300 0.988992 0.160923 0.271637
H26   H     H_    0.188001 0.996377 0.345306 0.266226
H27   H     H_    0.285677 0.923195 0.258176 0.272137
H28   H     H_    0.643243 0.592233 0.154151 0.165055
H29   H     H_    0.265916 0.373525 0.845598 0.177501
H30   H     H_    0.385979 0.276725 0.861145 0.209236
H31   H     H_    0.269199 0.368986 0.090846 0.143978
H32   H     H_    0.834724 0.479004 0.762083 0.165939
H33   H     H_    0.025056 0.481296 0.781886 0.156961
N1    N     N_R   0.499290 0.499140 0.142710 -0.098078
N2    N     N_R   0.499290 0.499180 0.857070 -0.139448
O1    O     O_R   0.500010 0.316790 0.614690 -0.663179
O2    O     O_3   0.658263 0.614050 0.871343 -0.617612
O3    O     O_3   0.403192 0.249826 0.119470 -0.555162
O4    O     O_R   0.500000 0.316760 0.385350 -0.504571
O5    O     O_R   0.346360 0.499990 0.595720 -0.624079
O6    O     O_R   0.346350 0.499960 0.366370 -0.571993
O7    O     O_R   0.500000 0.683240 0.614650 -0.586815
O8    O     O_R   0.499990 0.683210 0.385310 -0.631548
O9    O     O_R   0.653650 0.500040 0.633630 -0.582488
O10   O     O_R   0.653640 0.500010 0.404280 -0.637644
O11   O     O_3   0.584315 0.072576 0.882189 -0.631712
Zn1   Zn    Zn3+2 0.500010 0.500020 0.653130 0.968301
Zn2   Zn    Zn3+2 0.499990 0.499980 0.346870 1.015931

loop_
_geom_bond_atom_site_label_1
_geom_bond_atom_site_label_2
_ccdc_geom_bond_type
C31   H26   S    
C30   H24   S    
C18   C21   A    
C14   H31   S    
C35   C36   A    
O9    Zn1   S    
C28   H17   S    
C31   H27   S    
C12   C23   A    
C26   C27   S    
C36   C37   A    
C4    O5    A    
O5    Zn1   S    
C5    C6    S    
C27   H15   S    
C28   H19   S    
C7    O11   S    
C13   H30   S    
O7    Zn1   S    
C16   O9    A    
C25   H10   S    
C33   H32   S    
C29   O3    S    
C19   C20   A    
C16   C17   S    
C32   H1    S    
C9    C10   A    
C4    C18   S    
C14   O3    S    
O8    Zn2   S    
C6    H4    S    
C13   C14   S    
C1    O1    A    
C17   C33   A    
C26   H14   S    
O4    Zn2   S    
C10   O2    S    
C15   O7    A    
C29   H21   S    
C26   O2    S    
C4    O6    A    
C24   H8    S    
C24   C25   S    
C20   F2    S    
C27   H16   S    
C15   O8    A    
C12   C21   A    
C19   C23   A    
C25   H11   S    
C29   C30   S    
C19   F1    S    
C10   N2    A    
C29   H20   S    
C2    H3    S    
C8    N1    A    
C33   C34   A    
O1    Zn1   S    
C7    H23   S    
N2    Zn1   S    
C22   H6    S    
C30   H22   S    
C16   O10   A    
C1    O4    A    
C22   C24   S    
C9    N1    A    
C12   C34   A    
C26   H13   S    
C3    C15   S    
O10   Zn2   S    
C31   H25   S    
C8    C14   S    
C24   H7    S    
C7    C35   S    
C3    C5    A    
C6    C7    S    
C28   H18   S    
C37   F3    S    
C6    H12   S    
C23   C32   A    
C2    C3    A    
C9    H28   S    
C11   N2    A    
C11   C13   S    
C2    C37   A    
C30   C31   S    
C13   H29   S    
C8    C11   A    
C5    C35   A    
C18   C20   A    
C22   O11   S    
C25   H9    S    
O6    Zn2   S    
C34   H33   S    
C21   H2    S    
C22   H5    S    
C27   C28   S    
C17   C32   A    
N1    Zn2   S    
C1    C36   S    
