data_mof_unit_39334.cif
_audit_creation_date              2013-03-05T15:47:40-0500
_audit_creation_method            fapswitch 2.2
_symmetry_space_group_name_H-M    P1
_symmetry_Int_Tables_number       1
_space_group_crystal_system       triclinic
_cell_length_a                    8.269114
_cell_length_b                    19.090116
_cell_length_c                    22.878681
_cell_angle_alpha                 95.375303
_cell_angle_beta                  89.778942
_cell_angle_gamma                 94.697934
_cell_volume                      3583.60169735

loop_
_atom_site_label
_atom_site_type_symbol
_atom_site_description
_atom_site_fract_x
_atom_site_fract_y
_atom_site_fract_z
_atom_type_partial_charge
P1    P     P_3+3 0.067040 0.441110 0.370020 0.523589
O1    O     O_2   0.896730 0.461690 0.361000 -0.337034
O2    O     O_3   0.137170 0.462400 0.432040 -0.355972
O3    O     O_3   0.657500 0.588540 0.395070 -0.364249
O4    O     O_2   0.787533 0.540199 0.295215 -0.339523
O5    O     O_3   0.017871 0.349200 0.367167 -0.578032
O6    O     O_3   0.700322 0.666429 0.295493 -0.510577
H1    H     H_    0.526541 0.718112 0.343580 0.041801
C1    C     C_3   0.600886 0.772966 0.268147 -0.406547
H2    H     H_    0.715234 0.800612 0.286809 0.233571
P2    P     P_3+3 0.640420 0.660110 0.543790 0.471757
P3    P     P_3+3 0.099497 0.716265 0.422405 0.458551
O7    O     O_2   0.816140 0.670340 0.526560 -0.370575
O8    O     O_3   0.069580 0.624410 0.423530 -0.403069
O9    O     O_2   0.965839 0.750385 0.460009 -0.363014
O10   O     O_3   0.637433 0.683158 0.619549 -0.577130
O11   O     O_3   0.065026 0.738551 0.351401 -0.518822
C2    C     C_3   0.097779 0.680926 0.311691 0.484820
H3    H     H_    0.006557 0.636122 0.316395 0.170653
H4    H     H_    0.220123 0.663434 0.319160 -0.028558
C3    C     C_3   0.087746 0.701775 0.249446 -0.890609
H5    H     H_    0.083122 0.653712 0.218147 0.263783
H6    H     H_    0.976073 0.728925 0.243708 0.275685
C4    C     C_3   0.200536 0.681836 0.594634 0.420514
H7    H     H_    0.319483 0.662872 0.582192 0.098833
H8    H     H_    0.113863 0.669527 0.557479 0.130096
C5    C     C_3   0.220223 0.761476 0.609322 -0.985679
H9    H     H_    0.308778 0.775179 0.645802 0.271649
H10   H     H_    0.264659 0.787979 0.570681 0.227285
H11   H     H_    0.101578 0.781202 0.622604 0.264955
Ba1   Ba    Ba6+2 0.850680 0.532880 0.472010 1.591206
C6    C     C_3   0.146160 0.309948 0.345592 0.780177
H12   H     H_    0.263381 0.340499 0.355073 -0.018522
C7    C     C_3   0.129453 0.289553 0.278838 -0.499943
H13   H     H_    0.231982 0.258538 0.263388 0.218120
H14   H     H_    0.141360 0.337147 0.254936 0.220073
C8    C     C_3   0.710586 0.633385 0.649075 0.391542
H15   H     H_    0.833954 0.626516 0.632013 0.101179
H16   H     H_    0.635444 0.582303 0.643429 0.068512
C9    C     C_3   0.721476 0.659173 0.714542 -0.461076
H17   H     H_    0.782633 0.621030 0.738590 0.181196
H18   H     H_    0.597040 0.662636 0.732555 0.218302
P4    P     P_3+3 0.122660 0.558950 0.629980 0.471211
O12   O     O_2   0.292960 0.538340 0.639040 -0.362217
O13   O     O_3   0.052540 0.537650 0.567960 -0.402159
O14   O     O_3   0.532200 0.411510 0.604930 -0.393650
O15   O     O_3   0.143213 0.650883 0.644464 -0.573136
P5    P     P_3+3 0.096880 0.283757 0.576962 0.542578
O16   O     O_3   0.629030 0.416090 0.471500 -0.390045
O17   O     O_3   0.120120 0.375640 0.576470 -0.361736
O18   O     O_2   0.246287 0.253541 0.546341 -0.360986
O19   O     O_3   0.120463 0.266678 0.650010 -0.488621
Ba2   Ba    Ba6+2 0.339140 0.467180 0.527990 1.596829
P6    P     P_3+3 0.647103 0.582756 0.318392 0.472454
C10   C     C_3   0.562245 0.704709 0.297196 0.350663
H19   H     H_    0.459398 0.674636 0.272730 0.071598
H20   H     H_    0.500924 0.807877 0.277312 0.178923
O20   O     O_3   0.560670 0.583970 0.528500 -0.392100
C11   C     C_3   0.605041 0.362434 0.345247 0.385796
H21   H     H_    0.580424 0.415900 0.365082 0.116017
H22   H     H_    0.735092 0.354906 0.345105 0.175330
C12   C     C_3   0.548215 0.355846 0.281555 -0.928740
H23   H     H_    0.419805 0.366667 0.278779 0.204064
H24   H     H_    0.616242 0.396100 0.257239 0.293171
H25   H     H_    0.565317 0.302377 0.260056 0.270143
P7    P     P_3+3 0.553583 0.328041 0.451062 0.472756
O21   O     O_2   0.373560 0.329680 0.473470 -0.329818
O22   O     O_3   0.526529 0.308706 0.375040 -0.566297
H26   H     H_    0.195141 0.737706 0.239931 0.241955
C13   C     C_3   0.975518 0.279317 0.679667 0.306215
H27   H     H_    0.942892 0.334215 0.676241 0.075898
H28   H     H_    0.876163 0.240801 0.661788 0.070054
C14   C     C_3   0.996639 0.268990 0.744070 -0.662935
H29   H     H_    0.090778 0.308750 0.764161 0.266965
H30   H     H_    0.879764 0.275060 0.767248 0.251056
H31   H     H_    0.034042 0.215212 0.748724 0.253177
P8    P     P_3+3 0.547301 0.420867 0.681713 0.474249
C15   C     C_3   0.536700 0.285710 0.658920 0.485328
H32   H     H_    0.643918 0.289560 0.629715 -0.022213
O23   O     O_2   0.382921 0.444784 0.705255 -0.376193
O24   O     O_3   0.555392 0.337217 0.706916 -0.517951
H33   H     H_    0.426089 0.291940 0.633563 0.181943
H34   H     H_    0.510350 0.171892 0.642871 0.218880
C16   C     C_3   0.518788 0.212735 0.680873 -0.904052
H35   H     H_    0.406717 0.206895 0.707504 0.291436
H36   H     H_    0.624763 0.204688 0.708361 0.248475
H37   H     H_    0.070355 0.321695 0.043760 0.204894
C17   C     C_R   0.344113 0.511497 0.328887 -0.489635
C18   C     C_R   0.101932 0.557810 0.937848 -0.022689
C19   C     C_R   0.051203 0.556216 0.878729 0.517812
O25   O     O_2   0.062108 0.610660 0.854287 -0.590890
N1    N     N_R   0.986349 0.493995 0.848676 -0.169114
C20   C     C_R   0.971531 0.432249 0.876485 0.583099
O26   O     O_2   0.905689 0.378876 0.850499 -0.553148
C21   C     C_R   0.029843 0.430712 0.934926 -0.227905
C22   C     C_R   0.090802 0.494934 0.966141 -0.034282
C23   C     C_R   0.163063 0.621233 0.969425 -0.121640
C24   C     C_R   0.210217 0.622771 0.028114 -0.122330
C25   C     C_R   0.198680 0.560872 0.057276 -0.031986
C26   C     C_R   0.140130 0.496666 0.026058 -0.008828
C27   C     C_R   0.026365 0.367673 0.963912 0.398001
C28   C     C_R   0.074803 0.370508 0.022917 -0.188727
C29   C     C_R   0.131216 0.434329 0.054612 -0.120431
C30   C     C_R   0.179674 0.436944 0.114246 0.656619
N2    N     N_R   0.228771 0.500844 0.145732 -0.152464
C31   C     C_R   0.243004 0.562086 0.117114 0.547671
C32   C     C_2   0.776054 0.475505 0.771702 -0.167399
C33   C     C_3   0.721695 0.483370 0.709326 0.123722
C34   C     C_1   0.003528 0.513648 0.685330 0.290473
C35   C     C_2   0.051335 0.515603 0.741059 -0.175273
C36   C     C_2   0.933288 0.493840 0.787710 0.112058
C37   C     C_R   0.418799 0.532352 0.229414 -0.237360
C38   C     C_R   0.455168 0.538214 0.289329 0.190441
C39   C     C_R   0.192974 0.479675 0.310556 0.055572
C40   C     C_R   0.148377 0.478672 0.249752 0.223048
C41   C     C_R   0.265188 0.503805 0.208609 0.024818
O27   O     O_2   0.178041 0.382261 0.138150 -0.581947
O28   O     O_2   0.293330 0.617969 0.143802 -0.631595
C42   C     C_2   0.863726 0.480528 0.667697 -0.462514
H38   H     H_    0.255192 0.672941 0.050727 0.168675
H39   H     H_    0.508799 0.551752 0.199053 0.192020
H40   H     H_    0.173551 0.670295 0.948922 0.172198
H41   H     H_    0.175876 0.532909 0.753276 0.170264
H42   H     H_    0.686393 0.461759 0.804392 0.164232
H43   H     H_    0.377086 0.515005 0.374861 0.185019
H44   H     H_    0.853338 0.449519 0.625382 0.167600
C43   C     C_R   0.398195 0.699965 0.471849 -0.504591
C44   C     C_R   0.540948 0.722742 0.502466 0.353161
C45   C     C_R   0.595260 0.794662 0.507780 -0.241214
C46   C     C_R   0.505782 0.843862 0.482629 0.035523
C47   C     C_R   0.356682 0.820576 0.454746 -0.265288
C48   C     C_R   0.301970 0.748714 0.450579 0.227370
C49   C     C_R   0.618285 0.954344 0.438229 0.289934
C50   C     C_R   0.672237 0.026497 0.445107 -0.129592
C51   C     C_R   0.673788 0.064887 0.500490 0.152898
C52   C     C_R   0.625291 0.030008 0.549711 -0.104611
C53   C     C_R   0.571874 0.958143 0.543442 -0.202998
C54   C     C_R   0.565156 0.919855 0.487834 0.108388
C55   C     C_R   0.866103 0.169707 0.534836 0.244245
C56   C     C_R   0.906528 0.243286 0.541330 0.121513
C57   C     C_R   0.661592 0.262719 0.488263 0.266647
C58   C     C_R   0.615025 0.189217 0.483725 0.010316
C59   C     C_R   0.719410 0.142445 0.506288 -0.128324
C60   C     C_R   0.804569 0.288435 0.517979 -0.446885
H45   H     H_    0.712069 0.053270 0.407210 0.147306
H46   H     H_    0.705590 0.812400 0.532057 0.160694
H47   H     H_    0.626234 0.058773 0.592828 0.138221
H48   H     H_    0.533295 0.932441 0.581990 0.149859
H49   H     H_    0.282057 0.858220 0.437864 0.166432
H50   H     H_    0.839817 0.344538 0.521488 0.180069
H51   H     H_    0.355224 0.644662 0.468833 0.166383
N3    N     N_R   0.145468 0.245223 0.375261 0.235622
O29   O     O_R   0.238017 0.196057 0.356292 -0.430073
O30   O     O_R   0.041388 0.232927 0.416594 -0.400963
C61   C     C_3   0.970867 0.245464 0.261701 -0.613397
H52   H     H_    0.961232 0.236998 0.213126 0.251225
H53   H     H_    0.968322 0.193131 0.279287 0.243952
H54   H     H_    0.864464 0.272476 0.278731 0.255794
C62   C     C_3   0.817077 0.731109 0.725674 -0.707576
H55   H     H_    0.942209 0.728623 0.708416 0.263547
H56   H     H_    0.756368 0.772021 0.704515 0.258775
H57   H     H_    0.824335 0.746685 0.773641 0.246798
C63   C     C_3   0.618598 0.758846 0.201690 -0.784775
H58   H     H_    0.714351 0.722301 0.190739 0.273532
H59   H     H_    0.501961 0.735366 0.181778 0.274687
H60   H     H_    0.652426 0.809314 0.182535 0.245654
N4    N     N_R   0.981136 0.299573 0.933877 0.266607
O31   O     O_R   0.878420 0.255732 0.957995 -0.356057
O32   O     O_R   0.067712 0.276003 0.889821 -0.347100
N5    N     N_R   0.986316 0.456327 0.229505 0.268264
O33   O     O_R   0.917861 0.490014 0.190639 -0.401121
O34   O     O_R   0.907768 0.400978 0.247698 -0.415167
C64   C     C_3   0.455841 0.159586 0.455960 -0.640563
H61   H     H_    0.372654 0.200666 0.451230 0.298495
H62   H     H_    0.477529 0.132163 0.412060 0.232310
H63   H     H_    0.391906 0.121940 0.484131 0.238487
C65   C     C_3   0.621707 0.914652 0.378369 -0.997470
H64   H     H_    0.675723 0.948256 0.345064 0.257858
H65   H     H_    0.695600 0.868901 0.380130 0.265987
H66   H     H_    0.496430 0.895713 0.364085 0.246133
N6    N     N_R   0.976197 0.122486 0.554588 0.247999
O35   O     O_R   0.030167 0.073639 0.517876 -0.374628
O36   O     O_R   0.013133 0.124599 0.609944 -0.389608

loop_
_geom_bond_atom_site_label_1
_geom_bond_atom_site_label_2
_geom_bond_distance
_ccdc_geom_bond_type
O5    C6    1.409752 S    
C10   H19   1.108905 S    
C20   O26   1.219089 D    
C61   H53   1.110045 S    
C2    C3    1.518474 S    
O2    Ba2   2.753608 S    
C14   H29   1.110853 S    
N2    C41   1.465791 S    
P7    O22   1.755165 S    
C21   C22   1.415881 A    
C4    C5    1.521499 S    
O6    C10   1.403636 S    
O8    Ba1   2.718342 S    
C44   C45   1.403434 A    
C39   C40   1.438548 A    
C51   C52   1.401990 A    
N4    O32   1.301214 A    
P7    C57   1.861247 S    
C64   H61   1.097609 S    
C8    H15   1.104317 S    
C22   C26   1.428378 A    
H34   C16   1.110518 S    
Ba1   O20   2.914725 S    
C63   H59   1.110400 S    
C4    H8    1.109598 S    
C7    H13   1.111303 S    
C8    C9    1.532791 S    
C35   H41   1.084917 S    
P8    O23   1.547946 D    
C37   C41   1.407022 A    
C5    H10   1.106079 S    
N5    O33   1.302055 A    
C40   C41   1.432117 A    
C25   C31   1.416201 A    
P6    C38   1.834466 S    
N6    O35   1.301029 A    
P1    Ba1   3.380844 S    
C27   N4    1.434272 S    
C2    H3    1.105937 S    
C17   C38   1.387771 A    
C1    C63   1.527689 S    
C43   C48   1.394671 A    
C30   N2    1.388640 Am   
C60   H50   1.082320 S    
C53   H48   1.083339 S    
C43   H51   1.082004 S    
C35   C36   1.507732 S    
C55   C59   1.416998 A    
O12   Ba2   2.806617 S    
P4    Ba2   3.381406 S    
P5    O18   1.544096 D    
C63   H58   1.110235 S    
C65   H65   1.109953 S    
P3    O11   1.747593 S    
C12   H24   1.106026 S    
C32   C33   1.522281 S    
C62   H56   1.110526 S    
C43   C44   1.392272 A    
C13   H27   1.113168 S    
C1    C10   1.527787 S    
P2    O20   1.555470 S    
C1    H2    1.110877 S    
C1    H20   1.110909 S    
C55   N6    1.435111 S    
O10   C8    1.393794 S    
C9    H18   1.111654 S    
P7    O21   1.574348 D    
O13   Ba2   2.921920 S    
C11   H21   1.111613 S    
C20   C21   1.426783 A    
C3    H5    1.107913 S    
C31   O28   1.221173 D    
C61   H54   1.107204 S    
C14   H30   1.109746 S    
C33   C42   1.510475 S    
C32   H42   1.085602 S    
Ba1   O16   2.766985 S    
C40   N5    1.437542 S    
H1    C10   1.112577 S    
C37   C38   1.396749 A    
C23   C24   1.396642 A    
C58   C64   1.507748 S    
N6    O36   1.300111 A    
C11   H22   1.096522 S    
O17   Ba2   2.719068 S    
O16   P7    1.765336 S    
P5    C56   1.852512 S    
P1    O5    1.763515 S    
C52   H47   1.082855 S    
C27   C28   1.404532 A    
O4    P6    1.535805 D    
C63   H60   1.110207 S    
C16   H35   1.110826 S    
C34   C35   1.332613 D    
C57   C60   1.396279 A    
N4    O31   1.301081 A    
C5    H11   1.110610 S    
C15   H32   1.109890 S    
C7    C61   1.530733 S    
C13   C14   1.517396 S    
C26   C29   1.406844 A    
Ba1   Ba2   4.549579 S    
C18   C23   1.407855 A    
O1    Ba1   2.805880 S    
P1    O2    1.540959 S    
C6    C7    1.544195 S    
P4    O12   1.513000 D    
C23   H40   1.083260 S    
C11   O22   1.398782 S    
H37   C28   1.083773 S    
P2    O10   1.748421 S    
C15   H33   1.105502 S    
C19   N1    1.384444 Am   
C62   H55   1.109141 S    
C6    N3    1.464052 S    
P3    O9    1.546470 D    
P8    O24   1.754219 S    
Ba2   O20   2.766394 S    
C65   H66   1.108957 S    
C12   H23   1.101417 S    
O11   C2    1.403060 S    
C62   H57   1.110318 S    
C4    H7    1.102904 S    
O2    Ba1   2.921243 S    
P5    O17   1.749932 S    
P4    O13   1.540956 S    
C45   H46   1.083317 S    
C64   H62   1.109264 S    
C9    H17   1.107326 S    
P3    O8    1.753298 S    
C65   H64   1.110696 S    
C3    H6    1.109363 S    
C49   C50   1.407241 A    
C14   H31   1.110725 S    
C47   H49   1.083001 S    
P1    C39   1.878398 S    
C47   C48   1.403538 A    
C46   C54   1.487010 S    
C61   H52   1.110163 S    
C34   C42   1.317200 D    
C45   C46   1.406823 A    
N2    C31   1.389125 Am   
C64   H63   1.110530 S    
C50   H45   1.083830 S    
C11   C12   1.523586 S    
P3    C48   1.834677 S    
C12   H25   1.110352 S    
O3    P6    1.749418 S    
C9    C62   1.527714 S    
C32   C36   1.360969 D    
O7    Ba1   2.834012 S    
P8    C33   1.867189 S    
C56   C60   1.395672 A    
N3    O30   1.300877 A    
C52   C53   1.400770 A    
O14   P8    1.752911 S    
C55   C56   1.411087 A    
N1    C36   1.463479 S    
C24   H38   1.083326 S    
C50   C51   1.402642 A    
C53   C54   1.405553 A    
C30   O27   1.222132 D    
C25   C26   1.410083 A    
C6    H12   1.100945 S    
C4    O15   1.396314 S    
C18   C22   1.412535 A    
C46   C47   1.409895 A    
C37   H39   1.082857 S    
C8    H16   1.109710 S    
C57   C58   1.418608 A    
P2    O7    1.506123 D    
C15   O24   1.403796 S    
C49   C65   1.503095 S    
C19   O25   1.222385 D    
N5    O34   1.295946 A    
O16   Ba2   2.913885 S    
P1    O1    1.512729 D    
O14   Ba2   2.725204 S    
C51   C59   1.491357 S    
N1    C20   1.387612 Am   
C7    H14   1.101035 S    
P2    C44   1.838187 S    
C2    H4    1.109763 S    
C17   C39   1.392426 A    
C28   C29   1.404207 A    
Ba2   O21   2.834281 S    
O3    Ba1   2.725725 S    
O19   C13   1.401993 S    
P2    Ba1   3.397279 S    
C42   H44   1.086279 S    
C15   C16   1.520425 S    
C49   C54   1.415368 A    
N3    O29   1.301449 A    
C17   H43   1.082212 S    
C24   C25   1.406870 A    
Ba1   O13   2.753070 S    
C3    H26   1.110522 S    
C29   C30   1.418699 A    
C58   C59   1.422968 A    
C16   H36   1.109704 S    
C13   H28   1.109155 S    
P4    C34   1.837935 S    
O6    P6    1.749136 S    
C18   C19   1.414526 A    
P5    O19   1.747100 S    
P4    O15   1.749682 S    
C21   C27   1.425665 A    
C5    H9    1.110699 S    
