data_mof_unit_42837.cif
_audit_creation_date              2012-12-10T19:50:47-0500
_audit_creation_method            fapswitch 2.2
_symmetry_space_group_name_H-M    P1
_symmetry_Int_Tables_number       1
_space_group_crystal_system       triclinic
_cell_length_a                    14.976903
_cell_length_b                    14.3443
_cell_length_c                    11.550975
_cell_angle_alpha                 90.319582
_cell_angle_beta                  95.706714
_cell_angle_gamma                 90.083616
_cell_volume                      2469.19067149

loop_
_atom_site_label
_atom_site_type_symbol
_atom_type_description
_atom_site_fract_x
_atom_site_fract_y
_atom_site_fract_z
_atom_type_partial_charge
C1    C     C_R   0.328218 0.499835 0.501235 0.931676
C2    C     C_R   0.500213 0.500232 0.717950 0.908475
C3    C     C_R   0.457645 0.105038 0.402807 0.264453
C4    C     C_R   0.580890 0.892187 0.531499 0.329396
C5    C     C_R   0.551473 0.103591 0.584169 0.281728
C6    C     C_R   0.425620 0.893803 0.457750 0.280508
C7    C     C_1   0.499933 0.499558 0.161535 -0.126742
C8    C     C_1   0.500239 0.500606 0.838468 -0.121869
C9    C     C_1   0.500018 0.499861 0.059352 0.020746
C10   C     C_1   0.500174 0.500396 0.940649 0.029093
C11   C     C_R   0.444942 0.202528 0.417811 0.369160
C12   C     C_R   0.672151 0.500042 0.499936 0.961527
C13   C     C_R   0.569246 0.797125 0.559445 0.329936
C14   C     C_R   0.554279 0.202911 0.583234 0.341060
C15   C     C_R   0.433509 0.797183 0.436316 0.373836
C16   C     C_R   0.086532 0.554967 0.434901 0.483235
C17   C     C_R   0.905397 0.416827 0.481388 0.470908
C18   C     C_R   0.910441 0.578352 0.551400 0.468180
C19   C     C_R   0.104149 0.441887 0.593460 0.476447
C20   C     C_R   0.178990 0.558124 0.434849 -0.319267
C21   C     C_R   0.812803 0.417517 0.478921 -0.286154
C22   C     C_R   0.817150 0.580341 0.538381 -0.316032
C23   C     C_R   0.232989 0.499123 0.506865 -0.157406
C24   C     C_R   0.195995 0.440036 0.585148 -0.272928
C25   C     C_3   0.461909 0.029288 0.227101 0.186787
C26   C     C_3   0.401783 0.018180 0.111951 -0.261356
C27   C     C_3   0.428135 0.934921 0.039758 -0.866057
C28   C     C_3   0.707560 0.928668 0.446606 0.109100
C29   C     C_3   0.759873 0.837277 0.439618 -0.338603
C30   C     C_3   0.814558 0.835690 0.335146 -0.938273
C31   C     C_3   0.542746 0.029143 0.758336 0.198986
C32   C     C_3   0.601751 0.994183 0.865724 -0.229213
C33   C     C_3   0.614027 0.066546 0.963597 -0.862970
C34   C     C_R   0.768687 0.499616 0.504904 -0.156175
C35   C     C_3   0.306566 0.957091 0.536967 0.121123
C36   C     C_3   0.216688 0.006131 0.508107 -0.274383
C37   C     C_3   0.173810 0.032642 0.618056 -0.948653
C38   C     C_3   0.039154 0.591846 0.243628 0.055463
C39   C     C_3   0.075762 0.676389 0.182842 -0.344166
C40   C     C_3   0.016057 0.762005 0.189974 -0.750299
C41   C     C_3   0.944254 0.331810 0.327879 0.078594
C42   C     C_3   0.985985 0.240521 0.291270 -0.414197
C43   C     C_3   0.085346 0.234816 0.334676 -0.609572
C44   C     C_3   0.937970 0.689663 0.695008 0.064438
C45   C     C_R   0.049798 0.498159 0.516459 -0.042379
C46   C     C_3   0.014850 0.749791 0.751052 -0.322038
C47   C     C_3   0.992767 0.789791 0.867464 -0.943866
C48   C     C_3   0.074871 0.435651 0.782082 0.050523
C49   C     C_3   0.021254 0.384016 0.867650 -0.251750
C50   C     C_3   0.026845 0.433827 0.985352 -1.036635
C51   C     C_R   0.953768 0.497027 0.519037 -0.033277
C52   C     C_R   0.506683 0.052671 0.490843 -0.157205
C53   C     C_R   0.504603 0.945772 0.491961 -0.180806
C54   C     C_R   0.499909 0.499817 0.282063 0.910593
H1    H     H_    0.207731 0.605228 0.377004 0.220518
H2    H     H_    0.411754 0.949411 0.945700 0.233549
H3    H     H_    0.389963 0.872140 0.061069 0.325033
H4    H     H_    0.755790 0.987720 0.448882 0.176653
H5    H     H_    0.660149 0.938269 0.366586 0.090889
H6    H     H_    0.805924 0.828824 0.520359 0.253468
H7    H     H_    0.712545 0.777416 0.431797 0.215778
H8    H     H_    0.769845 0.843711 0.253151 0.265674
H9    H     H_    0.850038 0.767914 0.332312 0.291437
H10   H     H_    0.865118 0.892696 0.342327 0.263887
H11   H     H_    0.499008 0.970636 0.723792 0.076944
H12   H     H_    0.775693 0.354604 0.453155 0.192381
H13   H     H_    0.498162 0.086762 0.782374 0.135023
H14   H     H_    0.571807 0.930040 0.898088 0.201298
H15   H     H_    0.669214 0.974406 0.841818 0.292251
H16   H     H_    0.548311 0.093556 0.984929 0.256710
H17   H     H_    0.655546 0.125601 0.938340 0.326029
H18   H     H_    0.648685 0.034039 0.042715 0.228128
H19   H     H_    0.351517 0.004384 0.593149 0.112738
H20   H     H_    0.295172 0.891748 0.585274 0.120069
H21   H     H_    0.227235 0.070317 0.457738 0.276070
H22   H     H_    0.170363 0.959349 0.453530 0.229591
H23   H     H_    0.782983 0.644533 0.555011 0.211225
H24   H     H_    0.161064 0.969305 0.668889 0.261337
H25   H     H_    0.108897 0.068237 0.593785 0.282239
H26   H     H_    0.218377 0.080870 0.672840 0.274647
H27   H     H_    0.287224 0.372716 0.267422 0.349555
H28   H     H_    0.690470 0.640148 0.778302 0.359615
H29   H     H_    0.688921 0.378474 0.773860 0.356149
H30   H     H_    0.321434 0.636398 0.214906 0.350798
H31   H     H_    0.971097 0.575076 0.201304 0.153436
H32   H     H_    0.081645 0.529893 0.228355 0.082526
H33   H     H_    0.144404 0.693560 0.222435 0.247163
H34   H     H_    0.238450 0.395134 0.642125 0.183799
H35   H     H_    0.080291 0.658539 0.089876 0.172176
H36   H     H_    0.946765 0.746521 0.151058 0.239057
H37   H     H_    0.043369 0.820335 0.141368 0.240794
H38   H     H_    0.014371 0.784321 0.281946 0.291787
H39   H     H_    0.980956 0.391303 0.292783 0.116132
H40   H     H_    0.873345 0.332827 0.288067 0.101820
H41   H     H_    0.949850 0.180758 0.326147 0.229342
H42   H     H_    0.978496 0.235351 0.194728 0.181974
H43   H     H_    0.122566 0.293681 0.299671 0.249069
H44   H     H_    0.113175 0.168203 0.304799 0.245676
H45   H     H_    0.492386 0.961291 0.254282 0.161502
H46   H     H_    0.094739 0.236895 0.431269 0.295707
H47   H     H_    0.926608 0.631277 0.755465 0.126314
H48   H     H_    0.876462 0.733196 0.682492 0.184952
H49   H     H_    0.076613 0.706739 0.765145 0.216106
H50   H     H_    0.027903 0.808077 0.691913 0.239905
H51   H     H_    0.933255 0.836101 0.854690 0.288754
H52   H     H_    0.050696 0.831035 0.907564 0.268469
H53   H     H_    0.978672 0.732579 0.927422 0.261207
H54   H     H_    0.047872 0.507936 0.772005 0.131326
H55   H     H_    0.146554 0.438913 0.818482 0.142597
H56   H     H_    0.516959 0.079404 0.213536 0.062838
H57   H     H_    0.949774 0.379491 0.831340 0.234387
H58   H     H_    0.047798 0.312055 0.880104 0.235470
H59   H     H_    0.097661 0.438067 0.024125 0.269113
H60   H     H_    0.987480 0.394584 0.045574 0.263270
H61   H     H_    0.998896 0.505362 0.975233 0.259379
H62   H     H_    0.330475 0.008887 0.128930 0.280007
H63   H     H_    0.405063 0.083233 0.060717 0.187841
H64   H     H_    0.500686 0.919516 0.057353 0.263482
N1    N     N_R   0.500000 0.252470 0.500000 -0.248214
N2    N     N_R   0.500000 0.747530 0.500000 -0.240225
O1    O     O_R   0.369060 0.579480 0.500010 -0.578583
O2    O     O_3   0.664933 0.932649 0.550496 -0.524591
O3    O     O_3   0.599422 0.056769 0.674239 -0.502149
O4    O     O_3   0.343402 0.936310 0.432111 -0.516319
O5    O     O_2   0.290912 0.181798 0.270234 -0.292193
O6    O     O_2   0.282536 0.264605 0.452189 -0.346874
O7    O     O_3   0.349296 0.348685 0.281993 -0.535740
O8    O     O_2   0.699925 0.823623 0.734917 -0.317230
O9    O     O_2   0.555680 0.763351 0.782311 -0.337944
O10   O     O_3   0.665498 0.650745 0.696788 -0.559833
O11   O     O_2   0.558173 0.259635 0.804434 -0.347706
O12   O     O_R   0.630940 0.420520 0.499990 -0.579946
O13   O     O_2   0.696865 0.193372 0.746089 -0.264457
O14   O     O_3   0.662904 0.360838 0.694527 -0.525639
O15   O     O_2   0.313879 0.823990 0.248876 -0.287841
O16   O     O_2   0.458955 0.755261 0.218924 -0.344468
O17   O     O_3   0.339270 0.651174 0.297886 -0.570460
O18   O     O_3   0.031541 0.612312 0.362538 -0.589310
O19   O     O_3   0.948839 0.336838 0.450557 -0.580033
O20   O     O_3   0.960793 0.656785 0.586164 -0.619154
O21   O     O_3   0.066954 0.387347 0.674599 -0.605385
O22   O     O_R   0.630940 0.579480 0.499990 -0.588836
O23   O     O_R   0.369060 0.420520 0.500010 -0.544704
O24   O     O_R   0.500010 0.579480 0.334450 -0.545529
O25   O     O_R   0.499990 0.420520 0.665550 -0.549299
O26   O     O_R   0.499990 0.579480 0.665550 -0.551031
O27   O     O_R   0.500010 0.420520 0.334450 -0.580237
O28   O     O_3   0.407587 0.060303 0.312233 -0.513731
S1    S     S_3+6 0.340009 0.248838 0.354477 0.045793
S2    S     S_3+6 0.623817 0.758973 0.695330 0.020625
S3    S     S_3+6 0.618421 0.255017 0.707971 0.061564
S4    S     S_3+6 0.385108 0.757435 0.297967 0.036449
Zn1   Zn    Zn3+2 0.500000 0.606140 0.500000 1.076001
Zn2   Zn    Zn3+2 0.500000 0.393860 0.500000 1.076466

loop_
_geom_bond_atom_site_label_1
_geom_bond_atom_site_label_2
_ccdc_geom_bond_type
C54   O24   A    
C35   H20   S    
C30   H10   S    
C4    C53   A    
C35   O4    S    
C41   C42   S    
O11   S3    D    
C35   C36   S    
O13   S3    D    
C43   H44   S    
C39   H33   S    
C11   N1    A    
C17   C51   A    
C2    O25   A    
C31   H13   S    
C37   H25   S    
C28   C29   S    
C26   C27   S    
O1    Zn1   S    
C38   H32   S    
C42   H42   S    
C36   C37   S    
C13   S2    S    
C38   C39   S    
C21   H12   S    
O6    S1    D    
C28   O2    S    
C28   H5    S    
C45   C51   S    
O15   S4    D    
C40   H37   S    
O24   Zn1   S    
C15   N2    A    
C31   H11   S    
C50   H61   S    
C4    C13   A    
C49   C50   S    
O27   Zn2   S    
H29   O14   S    
C36   H22   S    
C33   H18   S    
C6    C15   A    
C29   H6    S    
C25   H45   S    
C41   H39   S    
C41   H40   S    
C44   C46   S    
C47   H51   S    
C14   S3    S    
O10   S2    S    
O12   Zn2   S    
C23   C24   A    
C26   H63   S    
C5    C52   A    
C44   H47   S    
C6    O4    S    
H28   O10   S    
C9    C10   S    
C49   H57   S    
C48   H55   S    
C3    O28   S    
C44   O20   S    
C30   H9    S    
H27   O7    S    
C20   H1    S    
C15   S4    S    
O16   S4    D    
C11   S1    S    
C18   C51   A    
C1    O1    A    
C22   C34   A    
C37   H26   S    
C29   H7    S    
C38   H31   S    
C42   H41   S    
C43   H46   S    
C17   O19   S    
C27   H3    S    
C39   C40   S    
C44   H48   S    
C27   H2    S    
O23   Zn2   S    
C21   C34   A    
C25   C26   S    
C46   H50   S    
C17   C21   A    
C50   H60   S    
C29   C30   S    
C1    O23   A    
C36   H21   S    
C31   C32   S    
C20   C23   A    
C16   C20   A    
C47   H52   S    
C38   O18   S    
C4    O2    S    
O17   S4    S    
C40   H38   S    
C18   O20   S    
C24   H34   S    
C5    C14   A    
O5    S1    D    
C25   H56   S    
C49   H58   S    
O25   Zn2   S    
C33   H16   S    
O8    S2    D    
C48   C49   S    
H30   O17   S    
C1    C23   S    
N1    Zn2   S    
C47   H53   S    
C30   H8    S    
C42   C43   S    
C6    C53   A    
C12   C34   S    
C13   N2    A    
C52   C53   S    
C46   H49   S    
C27   H64   S    
C7    C9    T    
C46   C47   S    
C35   H19   S    
C12   O12   A    
C18   C22   A    
C16   O18   S    
C43   H43   S    
C22   H23   S    
C16   C45   A    
C3    C52   A    
C19   C45   A    
C32   H15   S    
C28   H4    S    
C2    O26   A    
C37   H24   S    
C5    O3    S    
C32   H14   S    
C50   H59   S    
C32   C33   S    
C19   C24   A    
C31   O3    S    
O9    S2    D    
O7    S1    S    
C48   H54   S    
O26   Zn1   S    
O14   S3    S    
N2    Zn1   S    
C12   O22   A    
C48   O21   S    
C25   O28   S    
O22   Zn1   S    
C26   H62   S    
C41   O19   S    
C3    C11   A    
C33   H17   S    
C8    C10   T    
C14   N1    A    
C2    C8    S    
C7    C54   S    
C40   H36   S    
C19   O21   S    
C39   H35   S    
C54   O27   A    
