data_mof_unit_35965.cif
_audit_creation_date              2012-12-11T15:53:33-0500
_audit_creation_method            fapswitch 2.2
_symmetry_space_group_name_H-M    P1
_symmetry_Int_Tables_number       1
_space_group_crystal_system       triclinic
_cell_length_a                    6.997625
_cell_length_b                    14.464765
_cell_length_c                    16.100231
_cell_angle_alpha                 90.622002
_cell_angle_beta                  90.800119
_cell_angle_gamma                 89.94018
_cell_volume                      1629.39373389

loop_
_atom_site_label
_atom_site_type_symbol
_atom_type_description
_atom_site_fract_x
_atom_site_fract_y
_atom_site_fract_z
_atom_type_partial_charge
O1    O     O_R   0.361600 0.167310 0.164620 -0.544215
O2    O     O_R   0.638400 0.832690 0.835380 -0.546341
O3    O     O_R   0.691080 0.157570 0.338750 -0.541875
O4    O     O_R   0.308920 0.842430 0.661250 -0.542839
O5    O     O_R   0.861410 0.336420 0.339360 -0.527605
O6    O     O_R   0.138590 0.663580 0.660640 -0.528108
C1    C     C_R   0.524562 0.135548 0.367648 0.722479
C2    C     C_R   0.475926 0.865333 0.633245 0.721361
O7    O     O_R   0.691320 0.156280 0.165240 -0.537111
O8    O     O_R   0.308680 0.843720 0.834760 -0.515321
O9    O     O_R   0.861640 0.335130 0.164600 -0.547796
O10   O     O_R   0.138360 0.664870 0.835400 -0.538255
C3    C     C_R   0.522361 0.132406 0.137225 0.686322
C4    C     C_R   0.478367 0.864628 0.864478 0.719068
O11   O     O_R   0.361370 0.168600 0.339370 -0.544472
O12   O     O_R   0.638630 0.831400 0.660630 -0.543551
O13   O     O_3   0.527990 0.310540 0.251980 -0.359311
O14   O     O_3   0.472010 0.689460 0.748020 -0.372632
V1    V     V_3+5 0.802830 0.240980 0.251990 1.397969
V2    V     V_3+5 0.197170 0.759020 0.748010 1.427484
O15   O     O_R   0.191360 0.346160 0.165220 -0.511058
O16   O     O_R   0.808640 0.653840 0.834780 -0.543138
C5    C     C_R   0.022669 0.365839 0.134499 0.715587
C6    C     C_R   0.977755 0.630128 0.862275 0.712641
O17   O     O_R   0.191130 0.347440 0.338740 -0.542380
O18   O     O_R   0.808870 0.652560 0.661260 -0.544230
C7    C     C_R   0.023133 0.369527 0.367354 0.700245
C8    C     C_R   0.976891 0.630276 0.632834 0.692044
V3    V     V_3+5 0.302840 0.262750 0.251990 1.418299
V4    V     V_3+5 0.697160 0.737250 0.748010 1.395110
O19   O     O_3   0.027820 0.193180 0.251990 -0.379601
O20   O     O_3   0.972180 0.806820 0.748010 -0.368832
C9    C     C_3   0.911781 0.423401 0.519587 0.362675
C10   C     C_3   0.088257 0.576197 0.480854 0.364007
C11   C     C_3   0.082383 0.463848 0.569451 -0.237739
C12   C     C_3   0.917656 0.535769 0.431001 -0.235844
H1    H     H_    0.146362 0.433513 0.626466 0.114977
H2    H     H_    0.853675 0.566200 0.374035 0.117370
C13   C     C_3   0.986126 0.560227 0.563071 -0.103558
C14   C     C_3   0.013894 0.439376 0.437336 -0.104751
C15   C     C_3   0.813176 0.518580 0.514373 -0.170722
C16   C     C_3   0.186879 0.481020 0.486071 -0.168649
H3    H     H_    0.660230 0.532938 0.526612 0.130084
H4    H     H_    0.339824 0.466589 0.473902 0.130073
C17   C     C_R   0.828860 0.503099 0.950584 0.293867
C18   C     C_R   0.178860 0.472231 0.030068 0.307319
C19   C     C_R   0.844579 0.442934 0.018153 -0.264719
C20   C     C_R   0.162574 0.541135 0.969382 -0.262846
H5    H     H_    0.727933 0.400142 0.033965 0.165105
H6    H     H_    0.289564 0.576925 0.950399 0.133514
C21   C     C_R   0.014622 0.430331 0.061984 -0.140588
C22   C     C_R   0.987409 0.558844 0.929003 -0.145743
C23   C     C_R   0.676492 0.009753 0.459944 0.317832
C24   C     C_R   0.327794 0.994285 0.544270 0.305104
C25   C     C_R   0.653820 0.944265 0.522356 -0.200915
C26   C     C_R   0.348961 0.059029 0.481109 -0.204294
H7    H     H_    0.773950 0.900135 0.537445 0.144729
H8    H     H_    0.229105 0.103773 0.466931 0.151762
C27   C     C_R   0.482715 0.935006 0.565640 -0.182641
C28   C     C_R   0.519647 0.067616 0.436997 -0.190606
C29   C     C_R   0.681250 0.027153 0.030107 0.294931
C30   C     C_R   0.331670 0.948026 0.986227 0.315241
C31   C     C_R   0.665451 0.970477 0.959112 -0.253754
C32   C     C_R   0.340853 0.019385 0.046307 -0.286703
H9    H     H_    0.791927 0.953219 0.924591 0.151340
H10   H     H_    0.216687 0.037642 0.080292 0.168112
C33   C     C_R   0.490499 0.930266 0.936084 -0.130004
C34   C     C_R   0.514619 0.060893 0.069038 -0.141358
N1    N     N_2   0.815935 0.337824 0.538910 -0.512332
H11   H     H_    0.901181 0.280427 0.530278 0.242340
C35   C     C_3   0.717769 0.337763 0.617273 -0.579091
H12   H     H_    0.640448 0.271325 0.624012 0.200415
H13   H     H_    0.611537 0.394811 0.619747 0.202308
H14   H     H_    0.822045 0.345458 0.669558 0.185140
N2    N     N_2   0.183652 0.661925 0.461642 -0.514985
H15   H     H_    0.096886 0.719029 0.468817 0.235718
C36   C     C_3   0.286409 0.661451 0.384420 -0.570353
H16   H     H_    0.359987 0.728805 0.377119 0.195998
H17   H     H_    0.185925 0.650800 0.331125 0.186526
H18   H     H_    0.396334 0.606000 0.384486 0.203898
N3    N     N_2   0.655778 0.501400 0.903416 -0.530217
H19   H     H_    0.584567 0.563407 0.899735 0.266366
C37   C     C_3   0.663280 0.449541 0.826149 -0.533748
H20   H     H_    0.518270 0.446525 0.797356 0.188292
H21   H     H_    0.712343 0.377706 0.837863 0.185783
H22   H     H_    0.761710 0.482842 0.782027 0.190288
N4    N     N_2   0.360301 0.434319 0.048356 -0.497396
H23   H     H_    0.470223 0.480974 0.044182 0.253171
C38   C     C_3   0.391775 0.344553 0.008770 -0.468143
H24   H     H_    0.491454 0.302967 0.047266 0.179338
H25   H     H_    0.450498 0.353333 0.945839 0.197331
H26   H     H_    0.257979 0.303548 0.002384 0.166248
N5    N     N_2   0.860659 0.016203 0.423991 -0.505672
H27   H     H_    0.917042 0.080165 0.412172 0.274778
C39   C     C_3   0.915162 0.941113 0.369298 -0.543535
H28   H     H_    0.928105 0.875830 0.404556 0.190083
H29   H     H_    0.055927 0.956218 0.341478 0.190554
H30   H     H_    0.806625 0.931958 0.319107 0.179538
N6    N     N_2   0.148029 0.991292 0.584148 -0.502579
H31   H     H_    0.084449 0.927348 0.586755 0.270985
C40   C     C_3   0.134773 0.046670 0.659111 -0.516572
H32   H     H_    0.170971 0.119833 0.646074 0.186582
H33   H     H_    0.233198 0.019785 0.707924 0.182928
H34   H     H_    0.986218 0.044242 0.682354 0.190632
N7    N     N_2   0.862690 0.035172 0.069423 -0.547722
H35   H     H_    0.917228 0.101196 0.073698 0.262710
C41   C     C_3   0.883998 0.978092 0.142925 -0.513374
H36   H     H_    0.019397 0.993959 0.176604 0.182339
H37   H     H_    0.883272 0.903795 0.124915 0.188615
H38   H     H_    0.765530 0.989952 0.186734 0.189946
N8    N     N_2   0.169851 0.888958 0.981284 -0.504918
H39   H     H_    0.045263 0.920381 0.997133 0.284355
C42   C     C_3   0.194473 0.801659 0.023243 -0.536230
H40   H     H_    0.064033 0.758904 0.014021 0.183633
H41   H     H_    0.217768 0.813585 0.090955 0.180291
H42   H     H_    0.317717 0.762790 0.997638 0.187189

loop_
_geom_bond_atom_site_label_1
_geom_bond_atom_site_label_2
_ccdc_geom_bond_type
C6    C22   S    
N4    H23   S    
C31   H9    S    
N5    H27   S    
C25   C27   A    
O13   V3    S    
N8    H39   S    
C10   C16   S    
O4    C2    A    
V1    O19   S    
N3    H19   S    
C39   H30   S    
C19   H5    S    
C36   H16   S    
N7    C41   S    
O9    V1    S    
C40   H32   S    
C30   C33   A    
C32   C34   A    
C11   H1    S    
C42   H40   S    
O3    C1    A    
C2    C27   S    
O12   V4    S    
N1    C35   S    
C29   C31   A    
C11   C16   S    
O7    C3    A    
N5    C39   S    
C30   C32   A    
C9    C11   S    
O5    C7    A    
O7    V1    S    
O6    C8    A    
C30   N8    S    
C39   H28   S    
O8    V2    S    
C4    C33   S    
O3    V1    S    
O14   V4    S    
C38   H25   S    
C29   N7    S    
C10   C12   S    
C9    N1    S    
C10   N2    S    
C42   H42   S    
C17   C19   A    
C2    O12   A    
C15   H3    S    
C12   C15   S    
C16   H4    S    
N3    C37   S    
C23   C28   A    
O11   V3    S    
C31   C33   A    
C24   C27   A    
C23   C25   A    
O17   V3    S    
C24   C26   A    
C9    C14   S    
C23   N5    S    
C10   C13   S    
C12   C14   S    
C13   C15   S    
O8    C4    A    
C35   H13   S    
C19   C21   A    
C1    O11   A    
C8    C13   S    
O15   V3    S    
C18   C21   A    
C26   C28   A    
C32   H10   S    
C11   C13   S    
N2    H15   S    
C5    C21   S    
C37   H20   S    
C7    C14   S    
C41   H36   S    
O10   V2    S    
O1    V3    S    
C36   H17   S    
N8    C42   S    
C25   H7    S    
C38   H26   S    
C20   H6    S    
N2    C36   S    
C37   H21   S    
O18   V4    S    
C40   H34   S    
O15   C5    A    
C41   H38   S    
O16   C6    A    
C24   N6    S    
O1    C3    A    
C1    C28   S    
C18   N4    S    
V2    O20   S    
C36   H18   S    
O16   V4    S    
N6    C40   S    
C17   N3    S    
C14   C16   S    
C35   H14   S    
C39   H29   S    
O5    V1    S    
O17   C7    A    
O6    V2    S    
N7    H35   S    
O10   C6    A    
O18   C8    A    
C17   C22   A    
N6    H31   S    
O2    V4    S    
C9    C15   S    
C12   H2    S    
C35   H12   S    
V3    O19   S    
V4    O20   S    
C29   C34   A    
C41   H37   S    
O9    C5    A    
O13   V1    S    
C26   H8    S    
O14   V2    S    
N1    H11   S    
O2    C4    A    
O4    V2    S    
C18   C20   A    
C20   C22   A    
C37   H22   S    
C40   H33   S    
N4    C38   S    
C38   H24   S    
C42   H41   S    
C3    C34   S    
