data_mof_unit_48991.cif
_audit_creation_date              2012-12-11T14:51:48-0500
_audit_creation_method            fapswitch 2.2
_symmetry_space_group_name_H-M    P1
_symmetry_Int_Tables_number       1
_space_group_crystal_system       triclinic
_cell_length_a                    6.935189
_cell_length_b                    16.706208
_cell_length_c                    16.885247
_cell_angle_alpha                 101.382733
_cell_angle_beta                  89.01786
_cell_angle_gamma                 91.654184
_cell_volume                      1916.92696032

loop_
_atom_site_label
_atom_site_type_symbol
_atom_type_description
_atom_site_fract_x
_atom_site_fract_y
_atom_site_fract_z
_atom_type_partial_charge
O1    O     O_R   0.506340 0.439070 0.579550 -0.536915
O2    O     O_R   0.170010 0.404890 0.412100 -0.541223
O3    O     O_R   0.005010 0.560930 0.420450 -0.539325
C1    C     C_R   0.339305 0.381472 0.383180 0.675941
O4    O     O_R   0.176280 0.429360 0.578400 -0.539726
O5    O     O_R   0.011320 0.585570 0.587940 -0.539328
C2    C     C_R   0.342328 0.413238 0.605018 0.693656
O6    O     O_R   0.500030 0.414430 0.412060 -0.537964
O7    O     O_3   0.340950 0.551220 0.502940 -0.367244
V1    V     V_3+5 0.064020 0.490500 0.499460 1.402619
O8    O     O_R   0.681910 0.595110 0.587900 -0.541856
C3    C     C_R   0.851799 0.618046 0.616933 0.679223
O9    O     O_R   0.675640 0.570640 0.421600 -0.541884
C4    C     C_R   0.848311 0.585705 0.394348 0.725438
V2    V     V_3+5 0.564670 0.509500 0.500540 1.397651
O10   O     O_3   0.837610 0.448780 0.497060 -0.366813
C5    C     C_R   0.887351 0.861222 0.166390 -0.091783
C6    C     C_R   0.878475 0.636947 0.332140 -0.133171
C7    C     C_R   0.100210 0.683687 0.234334 0.383000
C8    C     C_R   0.053585 0.631232 0.287814 -0.250505
C9    C     C_R   0.747846 0.696328 0.321695 -0.244993
C10   C     C_R   0.794829 0.751060 0.270093 0.093240
C11   C     C_R   0.972811 0.745571 0.226696 0.063653
C12   C     C_R   0.018239 0.801253 0.175493 -0.218373
C13   C     C_R   0.712820 0.866365 0.211100 -0.156733
C14   C     C_R   0.667231 0.812146 0.262115 -0.117616
H1    H     H_    0.151475 0.796325 0.140609 0.158917
H2    H     H_    0.608730 0.912090 0.205806 0.124862
H3    H     H_    0.530942 0.817674 0.294878 0.132935
H4    H     H_    0.158211 0.586602 0.295686 0.139172
H5    H     H_    0.613364 0.701933 0.355795 0.142695
C15   C     C_3   0.993951 0.809594 0.729213 -0.138223
C16   C     C_3   0.059121 0.721497 0.728100 -0.114062
H6    H     H_    0.204715 0.698083 0.709696 0.110748
H7    H     H_    0.085649 0.859394 0.712469 0.103279
C17   C     C_3   0.867372 0.688039 0.687853 -0.000998
C18   C     C_3   0.802433 0.775216 0.688143 -0.152760
C19   C     C_3   0.707187 0.777829 0.772236 -0.115000
C20   C     C_3   0.772340 0.689725 0.771126 -0.142472
C21   C     C_3   0.963934 0.724021 0.812195 -0.151226
C22   C     C_3   0.898921 0.811323 0.812524 -0.008536
H8    H     H_    0.735464 0.795062 0.636215 0.095867
H9    H     H_    0.561637 0.801370 0.790524 0.109213
H10   H     H_    0.680464 0.639976 0.787844 0.098684
H11   H     H_    0.031012 0.703374 0.863668 0.099051
C23   C     C_3   0.469946 0.233636 0.314878 -0.133317
C24   C     C_3   0.306444 0.181126 0.267205 -0.135387
H12   H     H_    0.243887 0.123558 0.281298 0.102166
H13   H     H_    0.540665 0.220092 0.369068 0.108123
C25   C     C_3   0.409759 0.189350 0.187446 -0.005875
C26   C     C_3   0.573099 0.241091 0.234363 -0.118481
C27   C     C_3   0.459850 0.319355 0.232519 -0.145945
C28   C     C_3   0.296364 0.266859 0.184794 -0.135443
C29   C     C_3   0.193170 0.259382 0.265316 -0.117752
C30   C     C_3   0.356484 0.311091 0.312235 -0.010382
H14   H     H_    0.729005 0.233059 0.220600 0.102609
H15   H     H_    0.522926 0.377009 0.218954 0.110497
H16   H     H_    0.225815 0.280537 0.130623 0.097587
H17   H     H_    0.037270 0.267459 0.279063 0.103197
C31   C     C_R   0.426952 0.138163 0.831734 -0.212632
C32   C     C_R   0.341001 0.361025 0.667113 -0.077895
C33   C     C_R   0.195194 0.323444 0.787723 -0.158775
C34   C     C_R   0.205166 0.374146 0.730744 -0.181572
C35   C     C_R   0.466908 0.295519 0.661274 -0.187443
C36   C     C_R   0.455344 0.242686 0.717500 -0.006260
C37   C     C_R   0.317588 0.256900 0.781271 0.088079
C38   C     C_R   0.303433 0.204426 0.837387 -0.323692
C39   C     C_R   0.561570 0.123061 0.766976 0.373106
C40   C     C_R   0.578118 0.175699 0.711039 0.351045
H18   H     H_    0.199402 0.216298 0.886694 0.149884
H19   H     H_    0.088657 0.335359 0.836009 0.112644
H20   H     H_    0.106066 0.423965 0.736385 0.114939
H21   H     H_    0.569963 0.284744 0.611611 0.151906
O11   O     O_R   0.266070 0.085680 0.087850 -0.540041
O12   O     O_R   0.590090 0.070660 0.921580 -0.517650
O13   O     O_R   0.754780 0.914400 0.912080 -0.533430
C41   C     C_R   0.424187 0.086955 0.894980 0.769069
O14   O     O_R   0.596110 0.095130 0.087880 -0.544873
O15   O     O_R   0.760850 0.939050 0.079570 -0.541039
C42   C     C_R   0.426818 0.118771 0.116625 0.664306
O16   O     O_R   0.260010 0.061030 0.920360 -0.539154
O17   O     O_3   0.425070 0.948840 0.997010 -0.373010
V3    V     V_3+5 0.702100 0.009490 0.000550 1.441635
O18   O     O_R   0.090200 0.929250 0.078500 -0.542761
C43   C     C_R   0.917417 0.913772 0.105325 0.693636
O19   O     O_R   0.084180 0.904770 0.912200 -0.545288
C44   C     C_R   0.914288 0.881666 0.883255 0.700381
V4    V     V_3+5 0.201420 0.990350 0.999580 1.406712
O20   O     O_3   0.928580 0.051150 0.002990 -0.364667
O21   O     O_3   0.684756 0.058380 0.759642 -0.542705
C45   C     C_3   0.593658 0.988913 0.712784 -0.210219
H22   H     H_    0.555650 0.999308 0.651869 0.152721
H23   H     H_    0.463351 0.969427 0.744195 0.101150
H24   H     H_    0.696096 0.938307 0.703924 0.153934
O22   O     O_3   0.705434 0.157369 0.646450 -0.552844
C46   C     C_3   0.886429 0.193695 0.670328 -0.202555
H25   H     H_    0.946122 0.168867 0.721026 0.172441
H26   H     H_    0.877293 0.261303 0.687101 0.128038
H27   H     H_    0.988794 0.179520 0.618569 0.161802
O23   O     O_3   0.279329 0.680418 0.196247 -0.580112
C47   C     C_3   0.300684 0.605325 0.141079 0.063654
H28   H     H_    0.305958 0.618432 0.079043 0.132136
H29   H     H_    0.180347 0.559635 0.142456 0.099996
C48   C     C_3   0.490854 0.567662 0.157319 -0.276518
H30   H     H_    0.612079 0.611540 0.152617 0.209298
H31   H     H_    0.487812 0.555050 0.219568 0.186269
C49   C     C_3   0.525644 0.488267 0.097125 -0.879431
H32   H     H_    0.407520 0.442895 0.101360 0.229757
H33   H     H_    0.664261 0.462516 0.110802 0.227959
H34   H     H_    0.533605 0.499822 0.034565 0.235358

loop_
_geom_bond_atom_site_label_1
_geom_bond_atom_site_label_2
_ccdc_geom_bond_type
C47   H28   S    
C28   H16   S    
C6    C9    A    
C4    C6    S    
O2    C1    A    
O22   C46   S    
C12   H1    S    
O15   C43   A    
C1    O6    A    
C48   H31   S    
C8    H4    S    
C28   C29   S    
C13   H2    S    
C9    H5    S    
C23   H13   S    
C18   C19   S    
C5    C43   S    
C17   C18   S    
O5    C3    A    
C19   C20   S    
O19   V4    S    
V2    O10   S    
C46   H27   S    
C16   C17   S    
C26   H14   S    
C18   H8    S    
C32   C34   A    
C2    C32   S    
C23   C24   S    
O8    V2    S    
O14   V3    S    
C7    C8    A    
C31   C38   A    
C39   C40   A    
C46   H26   S    
C23   C30   S    
C39   O21   S    
C35   H21   S    
O1    V2    S    
C3    C17   S    
O7    V1    S    
O17   V4    S    
C27   C30   S    
C37   C38   A    
C47   H29   S    
O11   C42   A    
O9    C4    A    
C49   H33   S    
V3    O20   S    
O13   V3    S    
C48   H30   S    
C25   C26   S    
C24   C25   S    
C29   H17   S    
C21   H11   S    
C22   C44   S    
C31   C41   S    
C5    C12   A    
C33   C37   A    
C26   C27   S    
C25   C28   S    
C15   H7    S    
O18   C43   A    
C19   C22   S    
C20   C21   S    
O4    C2    A    
O19   C44   A    
C13   C14   A    
C23   C26   S    
C16   C21   S    
C32   C35   A    
C7    C11   A    
C33   C34   A    
C45   H23   S    
C24   H12   S    
C41   O16   A    
C15   C22   S    
C46   H25   S    
C16   H6    S    
O14   C42   A    
C15   C18   S    
V4    O20   S    
O12   C41   A    
O13   C44   A    
O3    C4    A    
C24   C29   S    
C21   C22   S    
C36   C37   A    
O6    V2    S    
O9    V2    S    
C1    C30   S    
C49   H34   S    
C49   H32   S    
O2    V1    S    
C45   H22   S    
C27   C28   S    
C29   C30   S    
O1    C2    A    
C17   C20   S    
O18   V4    S    
C40   O22   S    
C25   C42   S    
O5    V1    S    
C7    O23   S    
C20   H10   S    
C47   C48   S    
C38   H18   S    
C5    C13   A    
C15   C16   S    
O7    V2    S    
C19   H9    S    
O3    V1    S    
V1    O10   S    
C35   C36   A    
C45   H24   S    
O15   V3    S    
O12   V3    S    
O21   C45   S    
C36   C40   A    
O23   C47   S    
C33   H19   S    
C6    C8    A    
O16   V4    S    
C27   H15   S    
C11   C12   A    
O4    V1    S    
C34   H20   S    
C31   C39   A    
C14   H3    S    
O17   V3    S    
C10   C14   A    
C10   C11   A    
O11   V4    S    
C9    C10   A    
C48   C49   S    
O8    C3    A    
