data_mof_unit_59162.cif
_audit_creation_date              2012-12-11T15:56:55-0500
_audit_creation_method            fapswitch 2.2
_symmetry_space_group_name_H-M    P1
_symmetry_Int_Tables_number       1
_space_group_crystal_system       triclinic
_cell_length_a                    17.392083
_cell_length_b                    24.330004
_cell_length_c                    14.947422
_cell_angle_alpha                 89.998949
_cell_angle_beta                  125.9656
_cell_angle_gamma                 89.999724
_cell_volume                      5119.2583164

loop_
_atom_site_label
_atom_site_type_symbol
_atom_type_description
_atom_site_fract_x
_atom_site_fract_y
_atom_site_fract_z
_atom_type_partial_charge
C1    C     C_R   0.308089 0.123519 0.906844 -0.136276
C2    C     C_R   0.308139 0.876425 0.906967 -0.096698
C3    C     C_R   0.808118 0.623551 0.907000 -0.095218
C4    C     C_R   0.808095 0.376474 0.906838 -0.136873
C5    C     C_R   0.648232 0.152382 0.092211 -0.154936
C6    C     C_R   0.648329 0.847664 0.092297 -0.157947
C7    C     C_R   0.148283 0.652355 0.092262 -0.154078
C8    C     C_R   0.148225 0.347615 0.092215 -0.154894
C9    C     C_R   0.556066 0.847209 0.908811 -0.154476
C10   C     C_R   0.556034 0.152787 0.908753 -0.153061
C11   C     C_R   0.056033 0.347210 0.908758 -0.152827
C12   C     C_R   0.055994 0.652798 0.908783 -0.156207
C13   C     C_R   0.552572 0.000002 0.728465 0.004744
C14   C     C_R   0.052566 0.500001 0.728461 0.005013
C15   C     C_R   0.824447 0.000429 0.272547 0.038218
C16   C     C_R   0.324447 0.499568 0.272519 0.040260
C17   C     C_R   0.616332 0.184524 0.000598 0.036596
C18   C     C_R   0.616420 0.815509 0.000715 0.033295
C19   C     C_R   0.116314 0.684516 0.000658 0.039054
C20   C     C_R   0.116324 0.315470 0.000606 0.036794
C21   C     C_3   0.033250 0.949063 0.487936 -0.157613
C22   C     C_3   0.020491 0.035893 0.518235 -0.138665
C23   C     C_3   0.520517 0.464156 0.518223 -0.132316
C24   C     C_3   0.533320 0.550953 0.487768 -0.157570
C25   C     C_3   0.954572 0.985782 0.472637 -0.100521
C26   C     C_3   0.454629 0.514281 0.472552 -0.090405
C27   C     C_3   0.925416 0.000671 0.356811 0.164676
C28   C     C_3   0.425436 0.499323 0.356741 0.157193
C29   C     C_3   0.003111 0.963884 0.370880 -0.161551
C30   C     C_3   0.990839 0.050967 0.401809 -0.171460
C31   C     C_3   0.490834 0.449014 0.401817 -0.175137
C32   C     C_3   0.503146 0.536062 0.370726 -0.161426
C33   C     C_3   0.071103 0.014294 0.418275 -0.135134
C34   C     C_3   0.571114 0.485639 0.418200 -0.133835
C35   C     C_R   0.401318 0.876540 0.092388 -0.136787
C36   C     C_R   0.401149 0.123330 0.092273 -0.126299
C37   C     C_R   0.901149 0.376663 0.092269 -0.126023
C38   C     C_R   0.901356 0.623463 0.092424 -0.138197
C39   C     C_3   0.098688 0.999295 0.533128 0.161353
C40   C     C_3   0.598732 0.500707 0.533040 0.158692
C41   C     C_3   0.255865 0.820204 0.105623 -0.339359
C42   C     C_3   0.256253 0.179907 0.105821 -0.339096
C43   C     C_3   0.756196 0.320105 0.105765 -0.339627
C44   C     C_3   0.756183 0.679895 0.105920 -0.341336
C45   C     C_3   0.697668 0.271811 0.102847 -0.403294
C46   C     C_3   0.697975 0.728330 0.103187 -0.402019
C47   C     C_3   0.197459 0.771848 0.102768 -0.401920
C48   C     C_3   0.197729 0.228201 0.102907 -0.403197
C49   C     C_3   0.797796 0.265702 0.996189 -0.491934
C50   C     C_3   0.797955 0.734401 0.996481 -0.495275
C51   C     C_3   0.298197 0.765569 0.996933 -0.500206
C52   C     C_3   0.297741 0.234287 0.996112 -0.493280
C53   C     C_3   0.146373 0.821585 0.894831 0.484831
C54   C     C_3   0.146082 0.178166 0.894964 0.430914
C55   C     C_3   0.646107 0.321799 0.894901 0.423135
C56   C     C_3   0.646260 0.678201 0.895289 0.419918
C57   C     C_3   0.252468 0.819975 0.999243 0.145050
C58   C     C_3   0.252294 0.179896 0.999064 0.168198
C59   C     C_3   0.752300 0.320094 0.999050 0.169742
C60   C     C_3   0.752489 0.680005 0.999342 0.175369
C61   C     C_3   0.661828 0.235227 0.000059 0.310063
C62   C     C_3   0.661966 0.764837 0.000251 0.345649
C63   C     C_3   0.161854 0.735183 0.000143 0.308328
C64   C     C_3   0.161819 0.264764 0.000071 0.309040
C65   C     C_3   0.747042 0.216283 0.000967 -0.366445
C66   C     C_3   0.747070 0.783809 0.000996 -0.368036
C67   C     C_3   0.247240 0.716187 0.001437 -0.364623
C68   C     C_3   0.246988 0.283707 0.000888 -0.365783
C69   C     C_3   0.593557 0.270581 0.895130 -0.494153
C70   C     C_3   0.593689 0.729430 0.895433 -0.560813
C71   C     C_3   0.093713 0.770450 0.895033 -0.508405
C72   C     C_3   0.093528 0.229387 0.895189 -0.494461
C73   C     C_3   0.619746 0.051582 0.643122 -0.389560
C74   C     C_3   0.619922 0.948480 0.643259 -0.390916
C75   C     C_3   0.119839 0.551544 0.643192 -0.391178
C76   C     C_3   0.119782 0.448442 0.643153 -0.388110
C77   C     C_R   0.549925 0.045626 0.305233 -0.134408
C78   C     C_R   0.549911 0.954371 0.305230 -0.135254
C79   C     C_R   0.049902 0.545627 0.305223 -0.134657
C80   C     C_R   0.049899 0.454371 0.305222 -0.134479
C81   C     C_3   0.623173 0.051699 0.542562 -0.390794
C82   C     C_3   0.623422 0.948381 0.542743 -0.393678
C83   C     C_3   0.123297 0.551651 0.542650 -0.395392
C84   C     C_3   0.123224 0.448331 0.542604 -0.387815
C85   C     C_3   0.463441 0.999944 0.529811 -0.396121
C86   C     C_3   0.963416 0.500023 0.529803 -0.395598
C87   C     C_3   0.565170 0.000002 0.639363 0.374383
C88   C     C_3   0.065149 0.500003 0.639350 0.373395
C89   C     C_3   0.571686 0.999998 0.470128 0.370805
C90   C     C_3   0.071650 0.500002 0.470107 0.369376
C91   C     C_3   0.467357 0.999919 0.430942 -0.375305
C92   C     C_3   0.967323 0.500027 0.430927 -0.375579
C93   C     C_R   0.239618 0.953755 0.697524 -0.088631
C94   C     C_R   0.239694 0.045737 0.696474 -0.167369
C95   C     C_R   0.739720 0.454267 0.696443 -0.168394
C96   C     C_R   0.739641 0.546246 0.697493 -0.087079
C97   C     C_R   0.310923 0.136154 0.999410 0.123733
C98   C     C_R   0.311126 0.863694 0.999589 0.123116
C99   C     C_R   0.811159 0.636301 0.999656 0.112824
C100  C     C_R   0.810927 0.363837 0.999400 0.121842
C101  C     C_R   0.567202 0.999998 0.368993 -0.006452
C102  C     C_R   0.067168 0.499999 0.368975 -0.003996
C103  C     C_R   0.190453 0.999560 0.638122 0.042693
C104  C     C_R   0.690495 0.500444 0.638059 0.045550
C105  C     C_R   0.521576 0.046003 0.753942 -0.136341
C106  C     C_R   0.521584 0.953998 0.753947 -0.138543
C107  C     C_R   0.021581 0.546004 0.753948 -0.138005
C108  C     C_R   0.021576 0.453998 0.753942 -0.136255
C109  C     C_R   0.769506 0.954019 0.247715 -0.140628
C110  C     C_R   0.769239 0.046436 0.248432 -0.121160
C111  C     C_R   0.269238 0.453562 0.248416 -0.119446
C112  C     C_R   0.269504 0.545979 0.247693 -0.141850
H1    H     H_    0.251566 0.131522 0.821386 0.083292
H2    H     H_    0.251608 0.868325 0.821601 0.089118
H3    H     H_    0.751546 0.631647 0.821643 0.089505
H4    H     H_    0.751578 0.368476 0.821377 0.083318
H5    H     H_    0.051463 0.907292 0.524840 0.120364
H6    H     H_    0.029266 0.065113 0.580734 0.138029
H7    H     H_    0.529281 0.434977 0.580772 0.139704
H8    H     H_    0.551558 0.592741 0.524590 0.119753
H9    H     H_    0.993103 0.934735 0.307705 0.122888
H10   H     H_    0.971657 0.092575 0.364169 0.112184
H11   H     H_    0.471629 0.407390 0.364256 0.113274
H12   H     H_    0.493146 0.565170 0.307495 0.123949
H13   H     H_    0.122099 0.025843 0.399696 0.119772
H14   H     H_    0.622088 0.474036 0.399619 0.120298
H15   H     H_    0.329980 0.815126 0.180388 0.137995
H16   H     H_    0.330465 0.185268 0.180226 0.136434
H17   H     H_    0.830397 0.314760 0.180205 0.136563
H18   H     H_    0.830358 0.684936 0.180569 0.136500
H19   H     H_    0.229723 0.859817 0.115156 0.215241
H20   H     H_    0.230692 0.140283 0.116164 0.216427
H21   H     H_    0.730601 0.359732 0.116046 0.216185
H22   H     H_    0.729907 0.640341 0.115510 0.214813
H23   H     H_    0.135981 0.787563 0.099920 0.186815
H24   H     H_    0.136399 0.212430 0.100304 0.187127
H25   H     H_    0.636305 0.287584 0.100173 0.187068
H26   H     H_    0.636703 0.712702 0.100857 0.186714
H27   H     H_    0.743746 0.248254 0.180847 0.144244
H28   H     H_    0.744325 0.751919 0.181091 0.142088
H29   H     H_    0.243547 0.748355 0.180856 0.143440
H30   H     H_    0.243829 0.251775 0.180879 0.144246
H31   H     H_    0.874365 0.263569 0.067131 0.186506
H32   H     H_    0.874480 0.736571 0.067541 0.186622
H33   H     H_    0.374652 0.763478 0.068220 0.189137
H34   H     H_    0.374320 0.236435 0.067016 0.186846
H35   H     H_    0.797883 0.192244 0.077361 0.168864
H36   H     H_    0.797856 0.807964 0.077233 0.166416
H37   H     H_    0.297918 0.692131 0.077870 0.168649
H38   H     H_    0.297844 0.307762 0.077249 0.169112
H39   H     H_    0.144256 0.818604 0.819274 0.005523
H40   H     H_    0.143724 0.180971 0.819222 -0.002930
H41   H     H_    0.643797 0.318975 0.819193 -0.002157
H42   H     H_    0.643742 0.680926 0.819445 0.012671
H43   H     H_    0.430616 0.869119 0.177902 0.088407
H44   H     H_    0.430341 0.130657 0.177781 0.085295
H45   H     H_    0.930338 0.369329 0.177774 0.085298
H46   H     H_    0.930693 0.630872 0.177949 0.088646
H47   H     H_    0.029881 0.781849 0.891157 0.212490
H48   H     H_    0.029851 0.218036 0.891681 0.208843
H49   H     H_    0.529848 0.281931 0.891555 0.208358
H50   H     H_    0.530044 0.718159 0.892015 0.193778
H51   H     H_    0.567881 0.246693 0.819028 0.126854
H52   H     H_    0.567938 0.753261 0.819246 0.131044
H53   H     H_    0.068203 0.746487 0.819060 0.128217
H54   H     H_    0.067800 0.253259 0.819052 0.126667
H55   H     H_    0.794057 0.263339 0.919276 0.169221
H56   H     H_    0.794354 0.736728 0.919652 0.166842
H57   H     H_    0.294905 0.763131 0.920312 0.163917
H58   H     H_    0.293952 0.236635 0.919165 0.169382
H59   H     H_    0.722859 0.188976 0.929083 0.164581
H60   H     H_    0.722759 0.811014 0.928937 0.163995
H61   H     H_    0.223197 0.688881 0.929592 0.162591
H62   H     H_    0.222758 0.310999 0.928969 0.164843
H63   H     H_    0.584436 0.090100 0.640835 0.144382
H64   H     H_    0.584706 0.909927 0.641018 0.144075
H65   H     H_    0.084596 0.590086 0.640945 0.143287
H66   H     H_    0.084504 0.409912 0.640884 0.143644
H67   H     H_    0.693135 0.051859 0.720932 0.177636
H68   H     H_    0.693295 0.948268 0.721098 0.173897
H69   H     H_    0.193221 0.551776 0.721015 0.177319
H70   H     H_    0.193166 0.448185 0.720970 0.180478
H71   H     H_    0.698262 0.052453 0.570628 0.178359
H72   H     H_    0.698535 0.947763 0.570873 0.169596
H73   H     H_    0.198396 0.552322 0.570743 0.178182
H74   H     H_    0.198319 0.447622 0.570684 0.183324
H75   H     H_    0.588401 0.089998 0.495027 0.145609
H76   H     H_    0.588881 0.910023 0.495327 0.145923
H77   H     H_    0.088662 0.589987 0.495191 0.143759
H78   H     H_    0.088530 0.410011 0.495113 0.144365
H79   H     H_    0.423229 0.036798 0.525180 0.157583
H80   H     H_    0.423328 0.963067 0.525295 0.157529
H81   H     H_    0.923274 0.536894 0.525250 0.158216
H82   H     H_    0.923236 0.463164 0.525219 0.157484
H83   H     H_    0.563436 0.088078 0.331217 0.083720
H84   H     H_    0.563400 0.911920 0.331215 0.083057
H85   H     H_    0.063416 0.588077 0.331218 0.081836
H86   H     H_    0.063396 0.411919 0.331206 0.083879
H87   H     H_    0.429227 0.036774 0.378992 0.162209
H88   H     H_    0.429420 0.962984 0.379180 0.161981
H89   H     H_    0.929315 0.536932 0.379094 0.162536
H90   H     H_    0.929261 0.463143 0.379050 0.162175
H91   H     H_    0.225738 0.911744 0.668410 0.073845
H92   H     H_    0.224920 0.087617 0.666496 0.096786
H93   H     H_    0.724958 0.412386 0.666471 0.096682
H94   H     H_    0.725768 0.588260 0.668393 0.074532
H95   H     H_    0.527412 0.088586 0.738831 0.090557
H96   H     H_    0.527423 0.911417 0.738827 0.090320
H97   H     H_    0.027423 0.588587 0.738839 0.090830
H98   H     H_    0.027410 0.411417 0.738823 0.090630
H99   H     H_    0.793184 0.911782 0.263944 0.101591
H100  H     H_    0.792137 0.088796 0.264870 0.094817
H101  H     H_    0.292133 0.411202 0.264838 0.094698
H102  H     H_    0.293177 0.588217 0.263898 0.100742
H103  H     H_    0.690850 0.165078 0.177709 0.087375
H104  H     H_    0.691091 0.835041 0.177848 0.088060
H105  H     H_    0.191093 0.664982 0.177810 0.086178
H106  H     H_    0.190835 0.334918 0.177714 0.087449
H107  H     H_    0.512532 0.834372 0.823385 0.089779
H108  H     H_    0.512483 0.165602 0.823314 0.092429
H109  H     H_    0.012489 0.334396 0.823320 0.092398
H110  H     H_    0.012402 0.665620 0.823349 0.093111
H111  H     H_    0.905261 0.974150 0.493812 0.131075
H112  H     H_    0.405332 0.525966 0.493717 0.141794
N1    N     N_R   0.392450 0.103580 0.942190 -0.039411
N2    N     N_R   0.392450 0.896420 0.942190 -0.048409
N3    N     N_R   0.892450 0.603580 0.942190 -0.047832
N4    N     N_R   0.892450 0.396420 0.942190 -0.039299
N5    N     N_R   0.450490 0.896000 0.057360 -0.043442
N6    N     N_R   0.450490 0.104000 0.057360 -0.042764
N7    N     N_R   0.950490 0.396000 0.057360 -0.042741
N8    N     N_R   0.950490 0.604000 0.057360 -0.043089
N9    N     N_R   0.525490 0.028390 0.207550 -0.028349
N10   N     N_R   0.525490 0.971610 0.207550 -0.027703
N11   N     N_R   0.025490 0.528390 0.207550 -0.027890
N12   N     N_R   0.025490 0.471610 0.207550 -0.028552
N13   N     N_R   0.317450 0.971190 0.792000 -0.033175
N14   N     N_R   0.317450 0.028810 0.792000 -0.029837
N15   N     N_R   0.817450 0.471190 0.792000 -0.030133
N16   N     N_R   0.817450 0.528810 0.792000 -0.033930
N17   N     N_R   0.473900 0.028390 0.792280 -0.039460
N18   N     N_R   0.473900 0.971610 0.792280 -0.041194
N19   N     N_R   0.973900 0.528390 0.792280 -0.041186
N20   N     N_R   0.973900 0.471610 0.792280 -0.039586
N21   N     N_R   0.682310 0.971180 0.208170 -0.041182
N22   N     N_R   0.682310 0.028820 0.208170 -0.042087
N23   N     N_R   0.182310 0.471180 0.208170 -0.042064
N24   N     N_R   0.182310 0.528820 0.208170 -0.041115
N25   N     N_R   0.606470 0.103570 0.057210 -0.034517
N26   N     N_R   0.606470 0.896430 0.057210 -0.032805
N27   N     N_R   0.106470 0.603570 0.057210 -0.033504
N28   N     N_R   0.106470 0.396430 0.057210 -0.034595
N29   N     N_R   0.549740 0.896000 0.943240 -0.034279
N30   N     N_R   0.549740 0.104000 0.943240 -0.034165
N31   N     N_R   0.049740 0.396000 0.943240 -0.034163
N32   N     N_R   0.049740 0.604000 0.943240 -0.034565
Ni1   Ni    Ni4+2 0.433780 0.065390 0.868430 0.216825
Ni2   Ni    Ni4+2 0.433780 0.934610 0.868430 0.214040
Ni3   Ni    Ni4+2 0.933780 0.565390 0.868430 0.215973
Ni4   Ni    Ni4+2 0.933780 0.434610 0.868430 0.216661
Ni5   Ni    Ni4+2 0.565800 0.934190 0.131570 0.216882
Ni6   Ni    Ni4+2 0.565800 0.065810 0.131570 0.218036
Ni7   Ni    Ni4+2 0.065800 0.434190 0.131570 0.218362
Ni8   Ni    Ni4+2 0.065800 0.565810 0.131570 0.216117
S1    S     S_3+6 0.083585 0.884032 0.880003 -0.048076
O1    O     O_2   0.059642 0.885325 0.961633 -0.301351
O2    O     O_2   0.142307 0.933592 0.896887 -0.256850
O3    O     O_3   0.982260 0.885774 0.751255 -0.555184
H113  H     H_    0.952973 0.921702 0.745800 0.379855
S2    S     S_3+6 0.083482 0.115740 0.880926 -0.043727
O4    O     O_2   0.061745 0.114208 0.964477 -0.268708
O5    O     O_2   0.991255 0.114228 0.767231 -0.317378
O6    O     O_3   0.147749 0.059862 0.897919 -0.465795
H114  H     H_    0.137849 0.054689 0.826070 0.351115
S3    S     S_3+6 0.583451 0.384219 0.880743 -0.033547
O7    O     O_2   0.491237 0.385687 0.767033 -0.307935
O8    O     O_2   0.561686 0.385783 0.964268 -0.265350
O9    O     O_3   0.647680 0.440102 0.897664 -0.459027
H115  H     H_    0.637817 0.445240 0.825828 0.353072
S4    S     S_3+6 0.583954 0.615698 0.881755 -0.027883
O10   O     O_2   0.644254 0.566235 0.903150 -0.217023
O11   O     O_2   0.557702 0.615264 0.961317 -0.299923
O12   O     O_3   0.484293 0.611560 0.751981 -0.513614
H116  H     H_    0.443528 0.642000 0.745604 0.326712

loop_
_geom_bond_atom_site_label_1
_geom_bond_atom_site_label_2
_ccdc_geom_bond_type
C16   C112  A    
C16   C28   S    
N6    Ni6   S    
C73   H63   S    
N11   Ni8   S    
C79   H85   S    
C55   C59   S    
C50   C60   S    
C56   S4    S    
C96   N16   A    
C80   N12   A    
N9    Ni6   S    
C77   C101  A    
N15   N16   A    
C15   C110  A    
S4    O12   S    
C60   C99   S    
N21   Ni5   S    
C76   C84   S    
C77   N9    A    
C85   C91   S    
C10   H108  S    
N3    Ni3   S    
C32   H12   S    
C83   H77   S    
C85   H80   S    
C68   H62   S    
C11   H109  S    
C33   C39   S    
C82   C89   S    
C49   C65   S    
C65   H59   S    
C12   N32   A    
N23   Ni7   S    
C64   C68   S    
C66   H60   S    
S3    O8    D    
C24   C26   S    
C49   H55   S    
C76   H66   S    
C86   H81   S    
C106  H96   S    
C43   H17   S    
C86   C88   S    
C48   C64   S    
C27   C29   S    
C51   H33   S    
C10   C17   A    
C44   H18   S    
N19   N20   A    
C5    H103  S    
N32   Ni3   S    
C82   H72   S    
C85   H79   S    
C45   H27   S    
C56   C70   S    
C69   H51   S    
C62   C70   S    
N14   Ni1   S    
C37   N7    A    
N17   N18   A    
C23   C26   S    
C37   H45   S    
C35   H43   S    
C43   H21   S    
C15   C109  A    
C90   C102  S    
C21   H5    S    
C42   C58   S    
N28   Ni7   S    
C17   C61   S    
C90   C92   S    
N29   Ni2   S    
C94   N14   A    
N10   Ni5   S    
C73   C87   S    
N4    Ni4   S    
C30   H10   S    
C29   C33   S    
C93   N13   A    
C22   C25   S    
C29   H9    S    
C11   N31   A    
N11   N12   A    
C79   C102  A    
C84   H78   S    
C36   C97   A    
C51   C57   S    
C112  H102  S    
C74   C87   S    
C89   C91   S    
C35   C98   A    
N8    Ni8   S    
S1    O1    D    
C76   C88   S    
C66   H36   S    
N22   Ni6   S    
C37   C100  A    
C43   C59   S    
N27   Ni8   S    
C46   H26   S    
C91   H87   S    
C34   H14   S    
C9    H107  S    
N26   N29   A    
C14   C108  A    
N3    N8    A    
C42   H20   S    
C93   H91   S    
C109  N21   A    
N25   N30   A    
C30   C33   S    
N21   N22   A    
C27   C30   S    
C59   C100  S    
N18   Ni2   S    
S2    O6    S    
C107  N19   A    
C58   C97   S    
C84   C90   S    
C106  N18   A    
C76   H70   S    
C55   S3    S    
C70   H50   S    
C105  N17   A    
C4    H4    S    
C105  H95   S    
N16   Ni3   S    
C85   C87   S    
C44   H22   S    
C6    C18   A    
C63   C67   S    
C67   H37   S    
C24   H8    S    
C6    H104  S    
C65   H35   S    
C6    N26   A    
C72   H48   S    
C5    N25   A    
N15   Ni4   S    
C51   H57   S    
S3    O9    S    
C68   H38   S    
S4    O10   D    
C38   H46   S    
C56   H42   S    
N9    N10   A    
C52   H58   S    
C41   C57   S    
C62   C66   S    
C53   C57   S    
C13   C106  A    
C51   C67   S    
C108  H98   S    
C44   C46   S    
C74   H68   S    
S4    O11   D    
C21   C29   S    
C11   C20   A    
C38   N8    A    
C56   C60   S    
C80   C102  A    
C35   N5    A    
C44   C60   S    
C23   C31   S    
C20   C64   S    
C42   C48   S    
C57   C98   S    
C24   C32   S    
N26   Ni5   S    
C74   H64   S    
C4    N4    A    
C3    C99   A    
N2    Ni2   S    
C40   C104  S    
C43   C45   S    
C9    C18   A    
C15   C27   S    
C21   C39   S    
C36   H44   S    
C28   C32   S    
C78   N10   A    
C80   H86   S    
C13   C87   S    
C33   H13   S    
O6    H114  S    
C41   C47   S    
C31   C34   S    
C48   H30   S    
O9    H115  S    
C109  H99   S    
N19   Ni3   S    
C52   C58   S    
C5    C17   A    
S1    O2    D    
C12   H110  S    
C55   C69   S    
N17   Ni1   S    
C73   C81   S    
N28   N31   A    
C91   H88   S    
C111  N23   A    
C13   C105  A    
C14   C107  A    
C8    C20   A    
S3    O7    D    
C46   C62   S    
C94   C103  A    
C7    C19   A    
C96   C104  A    
C50   H32   S    
C50   H56   S    
N25   Ni6   S    
C34   C40   S    
N13   Ni2   S    
C94   H92   S    
C81   H71   S    
C1    C97   A    
C41   H15   S    
C53   C71   S    
C3    N3    A    
C75   C83   S    
C92   H90   S    
C95   C104  A    
C2    N2    A    
C46   H28   S    
C45   H25   S    
C74   C82   S    
C1    N1    A    
C22   H6    S    
C83   C90   S    
C21   C25   S    
N31   Ni4   S    
C8    N28   A    
C52   H34   S    
C22   C30   S    
C108  N20   A    
C89   C101  S    
C10   N30   A    
C78   H84   S    
C72   H54   S    
C48   H24   S    
C28   C31   S    
C110  H100  S    
C96   H94   S    
C111  H101  S    
C73   H67   S    
C69   H49   S    
C38   C99   A    
C52   C68   S    
C54   H40   S    
N23   N24   A    
C50   C66   S    
C39   C103  S    
C107  H97   S    
C42   H16   S    
C25   C27   S    
N2    N5    A    
C71   H47   S    
C47   H29   S    
C26   C28   S    
N1    N6    A    
N30   Ni1   S    
C112  N24   A    
C61   C69   S    
C82   H76   S    
N1    Ni1   S    
C4    C100  A    
C84   H74   S    
C77   H83   S    
C26   H112  S    
C31   H11   S    
C19   C63   S    
C3    H3    S    
C49   C59   S    
C7    N27   A    
C47   C63   S    
C2    H2    S    
C9    N29   A    
C110  N22   A    
N27   N32   A    
N7    Ni7   S    
C67   H61   S    
C53   S1    S    
C22   C39   S    
C49   H31   S    
C12   C19   A    
C45   C61   S    
C95   N15   A    
C54   S2    S    
C25   H111  S    
S2    O5    D    
C47   H23   S    
C1    H1    S    
C81   C89   S    
C75   H65   S    
S1    O3    S    
N13   N14   A    
N20   Ni4   S    
C24   C40   S    
C64   C72   S    
C8    H106  S    
C79   N11   A    
C95   H93   S    
C7    H105  S    
C61   C65   S    
C75   C88   S    
C41   H19   S    
C54   C72   S    
O3    H113  S    
C2    C98   A    
N12   Ni7   S    
C36   N6    A    
C71   H53   S    
C54   C58   S    
O12   H116  S    
C53   H39   S    
C18   C62   S    
S2    O4    D    
C83   H73   S    
C23   H7    S    
C86   C92   S    
N5    Ni5   S    
N24   Ni8   S    
C14   C88   S    
C86   H82   S    
C70   H52   S    
C63   C71   S    
C81   H75   S    
N4    N7    A    
C55   H41   S    
C92   H89   S    
C23   C40   S    
C16   C111  A    
C32   C34   S    
C93   C103  A    
C78   C101  A    
C75   H69   S    
