data_mof_unit_36167.cif
_audit_creation_date              2012-12-11T15:57:51-0500
_audit_creation_method            fapswitch 2.2
_symmetry_space_group_name_H-M    P1
_symmetry_Int_Tables_number       1
_space_group_crystal_system       triclinic
_cell_length_a                    10.807996
_cell_length_b                    10.791884
_cell_length_c                    17.053288
_cell_angle_alpha                 100.642195
_cell_angle_beta                  100.945929
_cell_angle_gamma                 60.703136
_cell_volume                      1693.29508657

loop_
_atom_site_label
_atom_site_type_symbol
_atom_type_description
_atom_site_fract_x
_atom_site_fract_y
_atom_site_fract_z
_atom_type_partial_charge
C1    C     C_R   0.380039 0.707994 0.388192 0.526351
C2    C     C_2   0.318218 0.323044 0.819613 -0.067795
C3    C     C_2   0.367301 0.216088 0.760890 0.128017
C4    C     C_R   0.406853 0.375295 0.356704 0.541017
C5    C     C_2   0.414246 0.242910 0.698181 0.015003
C6    C     C_1   0.849082 0.329367 0.705275 -0.006749
C7    C     C_1   0.896965 0.292339 0.771546 -0.002863
C8    C     C_1   0.359703 0.760543 0.713827 -0.044865
C9    C     C_1   0.325216 0.807262 0.780594 -0.053298
C10   C     C_R   0.898282 0.307120 0.089024 0.530420
C11   C     C_R   0.321918 0.302966 0.119035 0.549181
C12   C     C_2   0.848186 0.327551 0.167519 -0.073304
C13   C     C_R   0.298504 0.885336 0.080287 0.548733
C14   C     C_R   0.945115 0.271851 0.854310 0.554527
C15   C     C_R   0.304899 0.291383 0.893425 0.531106
C16   C     C_R   0.783026 0.372177 0.408061 0.529316
C17   C     C_R   0.280397 0.879372 0.857511 0.521338
C18   C     C_R   0.382703 0.713188 0.631176 0.564521
C19   C     C_R   0.366723 0.344309 0.577661 0.553121
C20   C     C_R   0.777162 0.379716 0.629324 0.534018
C21   C     C_1   0.375855 0.364807 0.272060 -0.039045
C22   C     C_1   0.350346 0.345897 0.200953 -0.017886
C23   C     C_2   0.861364 0.214379 0.200854 -0.042457
C24   C     C_2   0.882466 0.305745 0.346517 0.136076
C25   C     C_1   0.863432 0.090518 0.148732 0.276770
C26   C     C_1   0.563958 0.208406 0.710953 0.197957
C27   C     C_3   0.152460 0.218814 0.582792 -0.283446
C28   C     C_3   0.754651 0.055262 0.288739 -0.216108
C29   C     C_1   0.812049 0.467246 0.211112 0.217385
C30   C     C_3   0.129125 0.241392 0.327425 -0.274017
C31   C     C_1   0.467311 0.931662 0.222080 0.211332
C32   C     C_3   0.492495 0.518262 0.116095 -0.306498
C33   C     C_1   0.219294 0.790419 0.262558 0.249207
C34   C     C_2   0.863855 0.210099 0.288730 0.118127
C35   C     C_3   0.534114 0.964564 0.770735 -0.230807
C36   C     C_2   0.360246 0.745738 0.307725 -0.041160
C37   C     C_2   0.374774 0.778231 0.136923 0.137074
C38   C     C_2   0.445738 0.807309 0.206339 -0.004134
C39   C     C_2   0.469292 0.739921 0.278173 -0.163695
C40   C     C_2   0.318177 0.308514 0.637421 0.113900
Cr1   Cr    Cr6+3 0.608020 0.610770 0.522990 1.015564
Cr2   Cr    Cr6+3 0.289390 0.599570 0.488050 1.021758
Cr3   Cr    Cr6+3 0.602610 0.289690 0.489020 1.007030
Cr4   Cr    Cr6+3 0.053780 0.052210 0.965970 1.057282
Cr5   Cr    Cr6+3 0.060060 0.372530 0.992430 1.047863
Cr6   Cr    Cr6+3 0.372600 0.061970 0.991430 1.031908
H1    H     H_    0.297531 0.430628 0.814107 0.071322
H2    H     H_    0.665372 0.139788 0.254067 0.164446
H3    H     H_    0.986124 0.431349 0.389152 0.276732
H4    H     H_    0.154308 0.267462 0.274477 0.177807
H5    H     H_    0.138384 0.132617 0.313993 0.154696
H6    H     H_    0.209667 0.239298 0.379184 0.162956
H7    H     H_    0.283467 0.652535 0.073694 0.272589
H8    H     H_    0.470818 0.430163 0.084493 0.138985
H9    H     H_    0.543870 0.490355 0.177497 0.153681
H10   H     H_    0.565473 0.527034 0.082027 0.155121
H11   H     H_    0.314998 0.069085 0.789652 0.272047
H12   H     H_    0.569630 0.712840 0.316271 0.175239
H13   H     H_    0.540730 0.864582 0.783395 0.147649
H14   H     H_    0.596665 0.997504 0.821614 0.170683
H15   H     H_    0.583155 0.941362 0.714662 0.161971
H16   H     H_    0.101633 0.431747 0.607748 0.264929
H17   H     H_    0.038968 0.244889 0.578298 0.145589
H18   H     H_    0.218554 0.118887 0.612161 0.193470
H19   H     H_    0.180971 0.201210 0.520931 0.140110
H20   H     H_    0.924813 0.059310 0.370651 0.262151
H21   H     H_    0.715866 0.046195 0.342058 0.178136
H22   H     H_    0.791490 0.951081 0.250878 0.190831
N1    N     N_1   0.863691 0.992775 0.106932 -0.256212
N2    N     N_2   0.386626 0.075645 0.761077 -0.504278
N3    N     N_1   0.683841 0.177709 0.721714 -0.289191
N4    N     N_2   0.173585 0.335096 0.629095 -0.534228
N5    N     N_2   0.872969 0.086079 0.314108 -0.512671
N6    N     N_1   0.786634 0.579095 0.244457 -0.295814
N7    N     N_2   0.987527 0.349997 0.346077 -0.527181
N8    N     N_1   0.483562 0.031799 0.235562 -0.311362
N9    N     N_2   0.360263 0.650530 0.120536 -0.520122
N10   N     N_1   0.107400 0.824038 0.226959 -0.245751
O1    O     O_R   0.749250 0.499990 0.439200 -0.521358
O2    O     O_R   0.411120 0.181190 0.091480 -0.493678
O3    O     O_R   0.364220 0.944920 0.062310 -0.495048
O4    O     O_R   0.477870 0.725740 0.440280 -0.489471
O5    O     O_R   0.158740 0.906940 0.874970 -0.504714
O6    O     O_R   0.930920 0.176940 0.885610 -0.474217
O7    O     O_R   0.910730 0.394510 0.895320 -0.507154
O8    O     O_R   0.185840 0.361180 0.920280 -0.516753
O9    O     O_R   0.399210 0.173040 0.915160 -0.511398
O10   O     O_R   0.353170 0.937370 0.898860 -0.517013
O11   O     O_3   0.162150 0.162240 0.983280 -0.285135
O12   O     O_R   0.299400 0.468710 0.556310 -0.519121
O13   O     O_R   0.260770 0.742210 0.412610 -0.503558
O14   O     O_R   0.297990 0.466320 0.394220 -0.502085
O15   O     O_R   0.487720 0.253870 0.385870 -0.511187
O16   O     O_R   0.721940 0.304340 0.422320 -0.525880
O17   O     O_R   0.750770 0.502570 0.614050 -0.516107
O18   O     O_R   0.479280 0.728140 0.602370 -0.483496
O19   O     O_R   0.262290 0.744790 0.587460 -0.497381
O20   O     O_R   0.489240 0.256450 0.560730 -0.507328
O21   O     O_R   0.723350 0.306730 0.584410 -0.483539
O22   O     O_3   0.500010 0.500010 0.500020 -0.309152
O23   O     O_R   0.170650 0.915100 0.051290 -0.496217
O24   O     O_R   0.941960 0.184500 0.049060 -0.485718
O25   O     O_R   0.922640 0.402670 0.071640 -0.489224
O26   O     O_R   0.196880 0.368740 0.083740 -0.486162

loop_
_geom_bond_atom_site_label_1
_geom_bond_atom_site_label_2
_ccdc_geom_bond_type
C30   H5    S    
C30   N7    S    
C12   C29   S    
C17   O10   A    
C18   O18   A    
H7    N9    S    
Cr3   O20   S    
C14   O6    A    
Cr4   O5    S    
Cr3   O16   S    
Cr6   O11   S    
C12   C23   D    
C10   O25   A    
C28   H22   S    
Cr3   O21   S    
C38   C39   S    
C33   N10   T    
Cr1   O18   S    
C13   O3    A    
C33   C36   S    
C35   H13   S    
Cr2   O13   S    
Cr5   O25   S    
C32   N9    S    
C7    C14   S    
C35   N2    S    
C8    C9    T    
H3    N7    S    
C11   O26   A    
C18   O19   A    
H11   N2    S    
Cr5   O11   S    
C32   H9    S    
C13   C37   S    
C30   H4    S    
C1    O13   A    
C21   C22   T    
C26   N3    T    
C28   N5    S    
C32   H8    S    
C19   O20   A    
Cr6   O10   S    
C19   C40   S    
C10   O24   A    
C3    N2    S    
Cr3   O22   S    
C11   O2    A    
Cr2   O19   S    
Cr4   O24   S    
C29   N6    T    
C3    C5    S    
C1    O4    A    
C39   H12   S    
C37   N9    S    
C24   C34   D    
C4    O15   A    
C35   H14   S    
Cr2   O12   S    
Cr5   O7    S    
C37   C38   D    
C27   H19   S    
Cr5   O26   S    
Cr2   O22   S    
Cr6   O3    S    
C23   C34   S    
C28   H21   S    
Cr1   O22   S    
H16   N4    S    
C35   H15   S    
C2    C15   S    
C10   C12   S    
C15   O8    A    
C9    C17   S    
C20   O17   A    
C25   N1    T    
C13   O23   A    
C15   O9    A    
Cr6   O9    S    
C30   H6    S    
C28   H2    S    
C40   N4    S    
C36   C39   D    
C14   O7    A    
Cr4   O6    S    
Cr1   O1    S    
Cr4   O23   S    
C24   N7    S    
C6    C7    T    
C2    H1    S    
C6    C20   S    
C11   C22   S    
C16   O16   A    
C31   C38   S    
C16   O1    A    
Cr5   O8    S    
C19   O12   A    
Cr6   O2    S    
C4    C21   S    
H20   N5    S    
C31   N8    T    
Cr1   O17   S    
C20   O21   A    
Cr1   O4    S    
Cr3   O15   S    
C2    C3    D    
Cr2   O14   S    
C23   C25   S    
C8    C18   S    
C27   H18   S    
C27   N4    S    
C34   N5    S    
C5    C26   S    
C16   C24   S    
C5    C40   D    
C27   H17   S    
C17   O5    A    
C32   H10   S    
Cr4   O11   S    
C1    C36   S    
C4    O14   A    
