data_mof_unit_31686.cif
_audit_creation_date              2012-12-11T15:07:30-0500
_audit_creation_method            fapswitch 2.2
_symmetry_space_group_name_H-M    P1
_symmetry_Int_Tables_number       1
_space_group_crystal_system       triclinic
_cell_length_a                    21.59435
_cell_length_b                    7.211128
_cell_length_c                    18.598028
_cell_angle_alpha                 90.001982
_cell_angle_beta                  96.01198
_cell_angle_gamma                 90.002528
_cell_volume                      2880.14950665

loop_
_atom_site_label
_atom_site_type_symbol
_atom_type_description
_atom_site_fract_x
_atom_site_fract_y
_atom_site_fract_z
_atom_type_partial_charge
O1    O     O_R   0.449650 0.506500 0.414480 -0.537214
O2    O     O_R   0.550350 0.006500 0.585520 -0.537226
O3    O     O_R   0.432010 0.173150 0.560250 -0.544679
O4    O     O_R   0.567990 0.673150 0.439750 -0.544680
C1    C     C_R   0.415678 0.344640 0.580443 0.692442
C2    C     C_R   0.584321 0.844642 0.419556 0.692514
O5    O     O_R   0.442320 0.176650 0.413480 -0.526898
O6    O     O_R   0.557680 0.676650 0.586520 -0.526932
O7    O     O_R   0.560730 0.008380 0.437700 -0.533463
O8    O     O_R   0.439270 0.508380 0.562300 -0.533501
C3    C     C_R   0.428625 0.344984 0.387433 0.701863
C4    C     C_R   0.571373 0.844997 0.612568 0.701808
O9    O     O_3   0.538840 0.339860 0.508120 -0.375369
O10   O     O_3   0.461160 0.839860 0.491880 -0.375376
V1    V     V_3+5 0.492800 0.064220 0.498490 1.434020
V2    V     V_3+5 0.507200 0.564220 0.501510 1.433937
C5    C     C_R   0.874080 0.942365 0.686960 0.365315
C6    C     C_R   0.125968 0.443613 0.313025 0.365297
H1    H     H_    0.788137 0.924257 0.569251 0.133542
H2    H     H_    0.211933 0.426198 0.430728 0.133541
C7    C     C_R   0.886805 0.939613 0.818697 -0.322159
C8    C     C_R   0.113204 0.439690 0.181294 -0.322176
C9    C     C_R   0.585437 0.814653 0.747151 0.254244
C10   C     C_R   0.414519 0.313867 0.252889 0.254300
C11   C     C_R   0.624277 0.771534 0.810570 -0.080599
C12   C     C_R   0.375643 0.270375 0.189537 -0.080625
C13   C     C_R   0.689542 0.775349 0.810330 0.335626
C14   C     C_R   0.310382 0.274530 0.189797 0.335597
C15   C     C_R   0.716805 0.852248 0.750413 0.010666
C16   C     C_R   0.283175 0.352123 0.249626 0.010714
C17   C     C_R   0.677842 0.870179 0.683937 -0.020604
C18   C     C_R   0.322164 0.370458 0.316067 -0.020598
C19   C     C_R   0.782124 0.897693 0.752840 0.011531
C20   C     C_R   0.217880 0.397863 0.247166 0.011500
C21   C     C_R   0.808792 0.918803 0.686578 -0.104144
C22   C     C_R   0.191242 0.419738 0.313413 -0.104158
C23   C     C_R   0.769849 0.914045 0.621028 -0.139093
C24   C     C_R   0.230201 0.415401 0.378956 -0.139127
C25   C     C_R   0.705655 0.899593 0.620030 -0.122725
C26   C     C_R   0.294386 0.400610 0.379948 -0.122801
C27   C     C_R   0.820793 0.932202 0.818692 0.275690
C28   C     C_R   0.179210 0.431948 0.181282 0.275820
C29   C     C_R   0.913005 0.939312 0.752000 0.331190
C30   C     C_R   0.087025 0.440080 0.248002 0.331109
C31   C     C_R   0.612146 0.849819 0.682111 -0.198215
C32   C     C_R   0.387846 0.349727 0.317895 -0.198280
H3    H     H_    0.678099 0.905957 0.567982 0.094418
H4    H     H_    0.321959 0.407312 0.431979 0.094516
C33   C     C_R   0.645302 0.710122 0.323596 -0.192094
C34   C     C_R   0.354693 0.210120 0.676401 -0.192089
C35   C     C_R   0.634668 0.856592 0.370870 -0.072310
C36   C     C_R   0.365330 0.356585 0.629128 -0.072327
C37   C     C_R   0.671167 0.018590 0.369863 -0.203324
C38   C     C_R   0.328831 0.518575 0.630133 -0.203329
C39   C     C_R   0.717345 0.035367 0.322399 0.094777
C40   C     C_R   0.282653 0.535354 0.677597 0.094806
C41   C     C_R   0.726950 0.889254 0.274407 0.062872
C42   C     C_R   0.273048 0.389250 0.725590 0.062864
C43   C     C_R   0.690730 0.726211 0.274936 0.088260
C44   C     C_R   0.309266 0.226212 0.725061 0.088251
C45   C     C_R   0.753972 0.196181 0.321870 -0.189846
C46   C     C_R   0.246029 0.696163 0.678127 -0.189850
C47   C     C_R   0.799408 0.212937 0.273780 -0.166053
C48   C     C_R   0.200594 0.712924 0.726218 -0.165994
C49   C     C_R   0.808956 0.069518 0.225124 0.093623
C50   C     C_R   0.191046 0.569515 0.774875 0.093592
C51   C     C_R   0.772768 0.906411 0.225689 0.058463
C52   C     C_R   0.227231 0.406412 0.774309 0.058440
C53   C     C_R   0.782422 0.760211 0.177752 0.090046
C54   C     C_R   0.217576 0.260221 0.822247 0.090032
C55   C     C_R   0.745766 0.599448 0.178248 -0.159947
C56   C     C_R   0.254230 0.099462 0.821751 -0.159935
C57   C     C_R   0.700269 0.582802 0.226270 -0.163867
C58   C     C_R   0.299726 0.082812 0.773728 -0.163835
C59   C     C_R   0.854365 0.085648 0.176444 -0.191564
C60   C     C_R   0.145637 0.585648 0.823556 -0.191441
C61   C     C_R   0.865081 0.939031 0.129282 -0.076033
C62   C     C_R   0.134919 0.439038 0.870719 -0.076119
C63   C     C_R   0.828680 0.776874 0.130378 -0.171185
C64   C     C_R   0.171319 0.276887 0.869623 -0.171316
H5    H     H_    0.617266 0.585359 0.323446 0.129949
H6    H     H_    0.382728 0.085361 0.676551 0.129994
H7    H     H_    0.663837 0.131904 0.406345 0.127763
H8    H     H_    0.336162 0.631881 0.593650 0.127734
H9    H     H_    0.747276 0.309673 0.358461 0.134628
H10   H     H_    0.252726 0.809649 0.641535 0.134617
H11   H     H_    0.826976 0.338612 0.274502 0.147988
H12   H     H_    0.173028 0.838597 0.725496 0.147998
H13   H     H_    0.882349 0.210507 0.176502 0.130492
H14   H     H_    0.117655 0.710505 0.823499 0.130583
H15   H     H_    0.836140 0.663418 0.094009 0.137305
H16   H     H_    0.163858 0.163438 0.905992 0.137366
H17   H     H_    0.752476 0.485927 0.141676 0.146073
H18   H     H_    0.247518 0.985948 0.858324 0.146106
H19   H     H_    0.672672 0.457177 0.225515 0.153151
H20   H     H_    0.327320 0.957189 0.774483 0.153194
O11   O     O_R   0.060820 0.290050 0.937800 -0.537733
O12   O     O_R   0.939180 0.790050 0.062200 -0.537701
O13   O     O_R   0.057690 0.616620 0.086540 -0.532772
O14   O     O_R   0.942310 0.116620 0.913460 -0.532896
C65   C     C_R   0.071635 0.448592 0.112493 0.695881
C66   C     C_R   0.928361 0.948579 0.887509 0.695819
O15   O     O_R   0.068010 0.619890 0.939770 -0.543711
O16   O     O_R   0.931990 0.119890 0.060230 -0.543762
O17   O     O_R   0.949640 0.787940 0.914460 -0.530486
O18   O     O_R   0.050360 0.287940 0.085540 -0.530554
C67   C     C_R   0.084592 0.451048 0.919404 0.702243
C68   C     C_R   0.915408 0.951046 0.080596 0.702306
O19   O     O_3   0.961210 0.453080 0.991940 -0.374289
O20   O     O_3   0.038790 0.953080 0.008060 -0.374255
V3    V     V_3+5 0.007200 0.728820 0.001500 1.441642
V4    V     V_3+5 0.992800 0.228820 0.998500 1.441358
O21   O     O_3   0.976534 0.947711 0.747130 -0.603252
H21   H     H_    0.000123 0.936335 0.795392 0.277275
O22   O     O_3   0.023501 0.448767 0.252879 -0.603227
H22   H     H_    0.999901 0.436324 0.204663 0.277256
O23   O     O_3   0.902203 0.964207 0.624210 -0.594403
H23   H     H_    0.877181 0.053731 0.593005 0.291175
O24   O     O_3   0.097874 0.466221 0.375756 -0.594401
H24   H     H_    0.122948 0.555916 0.406828 0.291153
O25   O     O_3   0.792427 0.970702 0.880468 -0.602279
H25   H     H_    0.823540 0.006084 0.920909 0.294109
O26   O     O_3   0.207578 0.469774 0.119448 -0.602214
H26   H     H_    0.176469 0.504797 0.078952 0.294022
O27   O     O_3   0.521597 0.812893 0.749926 -0.609775
H27   H     H_    0.500317 0.875679 0.706928 0.286033
O28   O     O_3   0.478355 0.311765 0.250100 -0.609739
H28   H     H_    0.499662 0.374957 0.292992 0.286013
O29   O     O_3   0.724495 0.680502 0.865001 -0.590161
H29   H     H_    0.761685 0.628372 0.845269 0.302886
O30   O     O_3   0.275369 0.179357 0.135261 -0.590166
H30   H     H_    0.238165 0.127584 0.155079 0.302851
C69   C     C_2   0.596591 0.712828 0.877140 0.916701
O31   O     O_2   0.624798 0.740289 0.936726 -0.517444
O32   O     O_R   0.538396 0.625807 0.872039 -0.624378
H31   H     H_    0.524876 0.592964 0.921055 0.308477
C70   C     C_2   0.403283 0.210885 0.123036 0.916665
O33   O     O_2   0.375078 0.237931 0.063420 -0.517429
O34   O     O_R   0.461431 0.123587 0.128239 -0.624408
H32   H     H_    0.474922 0.090186 0.079263 0.308503

loop_
_geom_bond_atom_site_label_1
_geom_bond_atom_site_label_2
_ccdc_geom_bond_type
C50   C52   A    
C47   C49   A    
O4    V2    S    
C9    C31   A    
C13   C15   A    
C37   C39   A    
O1    C3    A    
C12   C70   S    
O2    C4    A    
C2    O7    A    
C38   H8    S    
O26   H26   S    
O18   V4    S    
O5    C3    A    
C70   O34   S    
C34   H6    S    
C8    C65   S    
C21   C23   A    
C60   C62   A    
O29   H29   S    
C62   C64   A    
C41   C43   A    
C42   C44   A    
O22   H22   S    
C15   C19   A    
O12   C68   A    
C66   O17   A    
O15   V3    S    
C27   O25   S    
C53   C55   A    
O20   V3    S    
C46   C48   A    
H1    C23   S    
C7    C29   A    
C8    C30   A    
C30   O22   S    
C40   C42   A    
C14   C16   A    
C33   C35   A    
C20   C28   A    
C10   O28   S    
C34   C36   A    
C1    C36   S    
C2    C35   S    
C11   C69   S    
C43   C57   A    
C63   H15   S    
C5    O23   S    
C9    O27   S    
C56   H18   S    
O5    V1    S    
O27   H27   S    
O17   V3    S    
C50   C60   A    
O6    V2    S    
C24   C26   A    
C41   C51   A    
C36   C38   A    
C28   O26   S    
C61   C63   A    
C38   C40   A    
C16   C20   A    
C54   C64   A    
C58   H20   S    
O32   H31   S    
C56   C58   A    
O19   V4    S    
O16   V4    S    
O11   V4    S    
C49   C51   A    
C62   C67   S    
C51   C53   A    
C48   C50   A    
C64   H16   S    
C5    C29   A    
C6    C30   A    
H2    C24   S    
O6    C4    A    
O13   V3    S    
O14   C66   A    
O1    V2    S    
O24   H24   S    
O2    V1    S    
C59   C61   A    
O25   H25   S    
C45   H9    S    
C61   C68   S    
C7    C27   A    
C7    C66   S    
C42   C52   A    
O13   C65   A    
O14   V4    S    
C39   C41   A    
C69   O31   D    
C13   O29   S    
C40   C46   A    
C53   C63   A    
O4    C2    A    
C57   H19   S    
O28   H28   S    
O16   C68   A    
O3    V1    S    
C46   H10   S    
C25   H3    S    
O21   H21   S    
C65   O18   A    
C26   H4    S    
O12   V3    S    
C47   H11   S    
C18   C32   A    
C45   C47   A    
C10   C12   A    
C4    C31   S    
O3    C1    A    
C33   C43   A    
C54   C56   A    
O34   H32   S    
C55   H17   S    
C11   C13   A    
C70   O33   D    
C33   H5    S    
C12   C14   A    
C49   C59   A    
C37   H7    S    
C14   O30   S    
C34   C44   A    
C22   C24   A    
O7    V1    S    
C19   C27   A    
C1    O8    A    
C15   C17   A    
O8    V2    S    
O23   H23   S    
C29   O21   S    
C16   C18   A    
C8    C28   A    
C39   C45   A    
C44   C58   A    
C19   C21   A    
C17   C25   A    
C20   C22   A    
C18   C26   A    
C59   H13   S    
O11   C67   A    
C9    C11   A    
C23   C25   A    
C17   C31   A    
O9    V2    S    
C55   C57   A    
C69   O32   S    
C52   C54   A    
O10   V1    S    
C3    C32   S    
O15   C67   A    
C5    C21   A    
C35   C37   A    
C6    C22   A    
C6    O24   S    
C48   H12   S    
O30   H30   S    
C60   H14   S    
C10   C32   A    
