data_mof_unit_57402.cif
_audit_creation_date              2013-03-05T15:44:59-0500
_audit_creation_method            fapswitch 2.2
_symmetry_space_group_name_H-M    P1
_symmetry_Int_Tables_number       1
_space_group_crystal_system       triclinic
_cell_length_a                    17.412483
_cell_length_b                    24.56545
_cell_length_c                    14.931642
_cell_angle_alpha                 89.744146
_cell_angle_beta                  125.942238
_cell_angle_gamma                 90.508232
_cell_volume                      5170.72140524

loop_
_atom_site_label
_atom_site_type_symbol
_atom_site_description
_atom_site_fract_x
_atom_site_fract_y
_atom_site_fract_z
_atom_type_partial_charge
C1    C     C_R   0.346771 0.349508 0.909125 0.338453
C2    C     C_R   0.651037 0.349323 0.089539 0.343461
C3    C     C_R   0.849776 0.848714 0.910723 0.353107
C4    C     C_R   0.184650 0.871096 0.091347 0.321541
N1    N     N_R   0.395440 0.396300 0.944370 -0.096891
N2    N     N_R   0.604560 0.396300 0.055630 -0.091764
N3    N     N_R   0.895440 0.896300 0.944370 -0.088809
N4    N     N_R   0.104560 0.896300 0.055630 -0.095744
C5    C     C_R   0.436038 0.648298 0.090502 -0.096925
C6    C     C_R   0.562100 0.649012 0.909021 -0.098707
C7    C     C_R   0.934221 0.147264 0.091525 -0.117254
C8    C     C_R   0.101636 0.122102 0.911037 -0.083960
H1    H     H_    0.476456 0.661883 0.175584 0.126621
H2    H     H_    0.522484 0.662235 0.823837 0.135585
H3    H     H_    0.973236 0.160672 0.176526 0.126471
H4    H     H_    0.075840 0.126061 0.825716 0.103141
N5    N     N_R   0.449890 0.602500 0.055780 -0.054878
N6    N     N_R   0.550110 0.602500 0.944220 -0.058362
N7    N     N_R   0.949890 0.102500 0.055780 -0.053788
N8    N     N_R   0.050110 0.102500 0.944220 -0.045843
C9    C     C_R   0.545650 0.454033 0.302249 -0.074903
C10   C     C_R   0.518712 0.454046 0.750512 -0.053594
C11   C     C_R   0.981297 0.953357 0.249673 -0.060990
C12   C     C_R   0.951448 0.953984 0.696639 -0.090529
H5    H     H_    0.562283 0.412285 0.329769 0.123142
H6    H     H_    0.527157 0.412085 0.737858 0.096975
H7    H     H_    0.971684 0.911159 0.260959 0.095456
H8    H     H_    0.933294 0.912242 0.669185 0.127501
N9    N     N_R   0.525090 0.470990 0.205640 -0.041891
N10   N     N_R   0.474910 0.470990 0.794360 -0.041343
N11   N     N_R   0.025090 0.970990 0.205640 -0.045272
N12   N     N_R   0.974910 0.970990 0.794360 -0.040340
C13   C     C_R   0.247738 0.545162 0.695278 -0.139127
C14   C     C_R   0.769711 0.545442 0.264053 -0.137866
C15   C     C_R   0.730248 0.044676 0.733946 -0.120881
C16   C     C_R   0.251548 0.045361 0.305626 -0.081442
H9    H     H_    0.239304 0.586831 0.667282 0.118187
H10   H     H_    0.792926 0.587375 0.282621 0.112550
H11   H     H_    0.707105 0.086408 0.714724 0.118540
H12   H     H_    0.259789 0.086896 0.333968 0.116128
N13   N     N_R   0.320240 0.527820 0.794510 -0.057788
N14   N     N_R   0.679760 0.527820 0.205490 -0.059440
N15   N     N_R   0.820240 0.027820 0.794510 -0.061041
N16   N     N_R   0.179760 0.027820 0.205490 -0.063392
C17   C     C_R   0.544890 0.545009 0.301266 -0.121333
C18   C     C_R   0.519877 0.545292 0.751591 -0.112975
C19   C     C_R   0.981376 0.044602 0.249830 -0.113119
C20   C     C_R   0.951576 0.044633 0.696445 -0.136148
H13   H     H_    0.560895 0.586980 0.327717 0.101698
H14   H     H_    0.529790 0.587427 0.740436 0.096356
H15   H     H_    0.972888 0.086493 0.262684 0.098189
H16   H     H_    0.933671 0.086257 0.668435 0.106792
N17   N     N_R   0.524580 0.527810 0.205160 -0.049564
N18   N     N_R   0.475420 0.527810 0.794840 -0.048264
N19   N     N_R   0.024580 0.027810 0.205160 -0.050274
N20   N     N_R   0.975420 0.027810 0.794840 -0.049611
C21   C     C_R   0.247271 0.454842 0.694001 -0.010814
C22   C     C_R   0.768877 0.454091 0.260046 -0.006984
C23   C     C_R   0.730975 0.953267 0.737780 -0.007416
C24   C     C_R   0.251109 0.955355 0.307267 -0.021942
N21   N     N_R   0.320750 0.470990 0.794990 -0.070005
N22   N     N_R   0.679250 0.470990 0.205010 -0.057814
N23   N     N_R   0.820750 0.970990 0.794990 -0.059453
N24   N     N_R   0.179250 0.970990 0.205010 -0.076295
C25   C     C_R   0.342616 0.647491 0.905194 -0.081836
C26   C     C_R   0.656324 0.648424 0.093242 -0.110837
C27   C     C_R   0.841023 0.147100 0.906828 -0.094585
C28   C     C_R   0.190925 0.123910 0.095562 -0.051978
N25   N     N_R   0.393580 0.602500 0.942610 -0.052398
N26   N     N_R   0.606420 0.602500 0.057390 -0.051129
N27   N     N_R   0.893580 0.102500 0.942610 -0.049814
N28   N     N_R   0.106420 0.102500 0.057390 -0.055961
C29   C     C_R   0.439744 0.348853 0.092338 -0.136206
C30   C     C_R   0.559312 0.350097 0.906089 -0.166308
C31   C     C_R   0.944475 0.848925 0.094007 -0.179794
C32   C     C_R   0.093114 0.871934 0.906276 -0.149253
H17   H     H_    0.484835 0.335940 0.177571 0.158735
H18   H     H_    0.520120 0.337605 0.820528 0.172718
H19   H     H_    0.985454 0.836548 0.179816 0.156324
H20   H     H_    0.063030 0.862745 0.820860 0.143743
N29   N     N_R   0.451750 0.396300 0.057540 -0.067086
N30   N     N_R   0.548250 0.396300 0.942460 -0.066092
N31   N     N_R   0.951750 0.896300 0.057540 -0.064958
N32   N     N_R   0.048250 0.896300 0.942460 -0.057752
C33   C     C_R   0.375224 0.317017 0.000392 -0.076656
C34   C     C_R   0.624201 0.320215 0.996707 -0.092358
C35   C     C_R   0.879232 0.818651 0.003901 -0.083541
C36   C     C_R   0.179348 0.855611 0.999010 -0.079355
C37   C     C_R   0.369833 0.676955 0.996992 0.136334
C38   C     C_R   0.630077 0.677486 0.001035 0.196392
C39   C     C_R   0.864890 0.174682 0.999485 0.155015
C40   C     C_R   0.192304 0.134980 0.005283 0.074723
C41   C     C_R   0.560258 0.499614 0.365104 0.030568
C42   C     C_R   0.549793 0.499838 0.725032 0.033875
C43   C     C_R   0.951154 0.998748 0.276209 0.042013
C44   C     C_R   0.935372 0.999230 0.632647 0.038848
C45   C     C_R   0.202877 0.500448 0.628843 0.140448
C46   C     C_R   0.826130 0.499907 0.295520 0.214308
C47   C     C_R   0.673625 0.998587 0.701110 0.210781
C48   C     C_R   0.295740 0.001003 0.372396 0.152776
Ni1   Ni    Ni4+2 0.435420 0.434250 0.870220 0.287783
Ni2   Ni    Ni4+2 0.564580 0.434250 0.129780 0.283270
Ni3   Ni    Ni4+2 0.935420 0.934250 0.870220 0.292565
Ni4   Ni    Ni4+2 0.064580 0.934250 0.129780 0.272516
Ni5   Ni    Ni4+2 0.563400 0.564580 0.128670 0.231264
Ni6   Ni    Ni4+2 0.436600 0.564580 0.871330 0.237545
Ni7   Ni    Ni4+2 0.063400 0.064580 0.128670 0.234648
Ni8   Ni    Ni4+2 0.936600 0.064580 0.871330 0.240179
C49   C     C_2   0.982224 0.469513 0.347027 0.286862
C50   C     C_2   0.083437 0.462137 0.440609 0.291277
C51   C     C_2   0.414681 0.962707 0.560170 0.291416
C52   C     C_2   0.516852 0.969282 0.651926 0.279079
C53   C     C_2   0.928541 0.499626 0.366378 -0.405363
C54   C     C_2   0.130131 0.504589 0.509301 -0.369809
C55   C     C_2   0.369501 0.005277 0.491780 -0.367223
C56   C     C_2   0.571128 0.997533 0.629822 -0.391966
H21   H     H_    0.959858 0.520857 0.444323 0.148698
H22   H     H_    0.101318 0.545217 0.480675 0.144155
H23   H     H_    0.400996 0.045651 0.519733 0.152690
H24   H     H_    0.539781 0.017430 0.550518 0.168858
C57   C     C_R   0.317254 0.772168 0.935219 0.352679
C58   C     C_R   0.716734 0.764356 0.063402 0.363164
C59   C     C_R   0.799713 0.266607 0.959747 0.359938
C60   C     C_R   0.350019 0.183779 0.107486 0.338748
C61   C     C_R   0.735735 0.300920 0.956376 -0.245318
C62   C     C_R   0.388071 0.233503 0.104577 -0.242868
C63   C     C_R   0.268424 0.816001 0.937323 -0.245288
C64   C     C_R   0.782692 0.796975 0.065875 -0.247121
H25   H     H_    0.729220 0.342596 0.928544 0.181435
H26   H     H_    0.444190 0.251986 0.181812 0.174612
H27   H     H_    0.260329 0.853310 0.893606 0.183043
H28   H     H_    0.802149 0.835777 0.108563 0.174433
C65   C     C_R   0.682297 0.282349 0.992926 0.103193
C66   C     C_R   0.352367 0.259119 0.002995 0.090012
C67   C     C_R   0.230449 0.811791 0.997163 0.112766
C68   C     C_R   0.821272 0.780915 0.010109 0.094913
C69   C     C_R   0.688982 0.229918 0.030912 -0.029423
C70   C     C_R   0.291794 0.228943 0.905590 -0.092802
C71   C     C_R   0.235741 0.764171 0.051130 -0.052392
C72   C     C_R   0.797530 0.732287 0.953398 -0.035303
H29   H     H_    0.646427 0.216279 0.058159 0.146160
H30   H     H_    0.271774 0.241925 0.826073 0.194673
H31   H     H_    0.200348 0.759678 0.090923 0.155664
H32   H     H_    0.829480 0.719992 0.912580 0.148873
C73   C     C_R   0.286126 0.721633 0.053496 -0.203416
C74   C     C_R   0.729881 0.700285 0.946785 -0.198715
C75   C     C_R   0.752646 0.195512 0.035582 -0.197797
C76   C     C_R   0.248823 0.181855 0.907673 -0.190765
C77   C     C_R   0.327017 0.725435 0.996842 -0.039365
C78   C     C_R   0.689098 0.716475 0.000205 -0.049565
C79   C     C_R   0.807472 0.213931 0.000701 -0.064462
C80   C     C_R   0.268502 0.163310 0.007728 0.001922
C81   C     C_R   0.602741 0.549393 0.625434 -0.140205
C82   C     C_R   0.602629 0.549324 0.532754 -0.140434
C83   C     C_R   0.893435 0.047982 0.463901 -0.130658
C84   C     C_R   0.895528 0.047786 0.372680 -0.136335
H33   H     H_    0.601030 0.588250 0.657828 0.123690
H34   H     H_    0.601015 0.588173 0.497550 0.126782
H35   H     H_    0.893640 0.086893 0.497485 0.127914
H36   H     H_    0.896824 0.086580 0.339194 0.125098
C85   C     C_R   0.593258 0.499910 0.480390 0.115512
C86   C     C_R   0.592204 0.500089 0.664836 0.120377
C87   C     C_R   0.908269 0.998530 0.335973 0.112494
C88   C     C_R   0.902674 0.998863 0.517398 0.112962
C89   C     C_R   0.603695 0.450740 0.534398 -0.126048
C90   C     C_R   0.603958 0.450867 0.627214 -0.106306
C91   C     C_R   0.896857 0.949261 0.374679 -0.097214
C92   C     C_R   0.894467 0.949409 0.465664 -0.118346
N33   N     N_R   0.293464 0.332672 0.796508 0.196933
O1    O     O_R   0.335246 0.326690 0.748182 -0.417483
O2    O     O_R   0.201395 0.329800 0.738425 -0.386123
N34   N     N_R   0.693851 0.327011 0.197869 0.218074
O3    O     O_R   0.672217 0.346178 0.261451 -0.442864
O4    O     O_R   0.755799 0.288239 0.234661 -0.372679
N35   N     N_R   0.807308 0.826938 0.802238 0.212781
O5    O     O_R   0.835372 0.844102 0.743203 -0.433171
O6    O     O_R   0.734136 0.794541 0.757376 -0.377413
N36   N     N_R   0.248280 0.849848 0.200606 0.208600
O7    O     O_R   0.214241 0.826276 0.248743 -0.406882
O8    O     O_R   0.338333 0.846108 0.244499 -0.353021
N37   N     N_R   0.355157 0.776047 0.871529 0.245907
O9    O     O_R   0.321757 0.811868 0.792685 -0.329694
O10   O     O_R   0.427047 0.746932 0.895920 -0.356946
N38   N     N_R   0.679877 0.780387 0.124357 0.242820
O11   O     O_R   0.725613 0.815958 0.203897 -0.390373
O12   O     O_R   0.598688 0.762202 0.098000 -0.342431
N39   N     N_R   0.856119 0.285771 0.923829 0.245210
O13   O     O_R   0.827777 0.326967 0.856564 -0.369987
O14   O     O_R   0.939514 0.265618 0.965007 -0.363810
N40   N     N_R   0.395273 0.154473 0.209963 0.221630
O15   O     O_R   0.398632 0.101552 0.210024 -0.393045
O16   O     O_R   0.444209 0.180281 0.304019 -0.392400
H37   H     H_    0.290216 0.684746 0.096350 0.149292
H38   H     H_    0.711223 0.661954 0.902532 0.139326
H39   H     H_    0.758415 0.154193 0.064795 0.150196
H40   H     H_    0.194241 0.163237 0.829560 0.145327
H41   H     H_    0.602909 0.411834 0.500424 0.131066
H42   H     H_    0.603425 0.412067 0.661239 0.127742
H43   H     H_    0.899491 0.910391 0.343002 0.133835
H44   H     H_    0.895436 0.910575 0.500503 0.131461
H45   H     H_    0.237491 0.413816 0.665153 0.213561
H46   H     H_    0.792433 0.412520 0.275037 0.162835
H47   H     H_    0.707634 0.911419 0.722003 0.166114
H48   H     H_    0.258848 0.914724 0.337356 0.203450
H49   H     H_    0.296829 0.659894 0.819441 0.118334
H50   H     H_    0.704320 0.660976 0.178680 0.115190
H51   H     H_    0.793251 0.159972 0.821677 0.111298
H52   H     H_    0.245764 0.130781 0.181931 0.144859
N41   N     N_R   0.943446 0.443683 0.241366 0.253481
O17   O     O_R   0.866955 0.462289 0.151262 -0.397517
O18   O     O_R   0.992928 0.407916 0.231833 -0.300202
N42   N     N_R   0.125590 0.409326 0.462155 0.259250
O19   O     O_R   0.076517 0.365849 0.448460 -0.302691
O20   O     O_R   0.208187 0.404300 0.480786 -0.347961
N43   N     N_R   0.369478 0.910523 0.540289 0.261266
O21   O     O_R   0.415935 0.866168 0.555178 -0.290428
O22   O     O_R   0.286490 0.907119 0.521410 -0.350048
N44   N     N_R   0.555433 0.944962 0.758898 0.255784
O23   O     O_R   0.633796 0.963432 0.847593 -0.394567
O24   O     O_R   0.504525 0.910829 0.770938 -0.278059

loop_
_geom_bond_atom_site_label_1
_geom_bond_atom_site_label_2
_geom_bond_distance
_ccdc_geom_bond_type
C42   C86   1.460263 S    
N6    N26   1.368135 A    
N3    N31   1.368135 A    
C22   N22   1.336459 A    
C89   C90   1.383231 A    
N2    N30   1.368136 A    
N22   Ni2   1.845864 S    
C23   C47   1.381633 A    
N33   O1    1.300267 A    
C82   C85   1.402362 A    
C15   H11   1.079189 S    
C51   C52   1.484488 S    
C14   N14   1.337449 A    
N13   N21   1.396121 A    
C65   C69   1.383061 A    
C38   C78   1.403940 S    
C17   C41   1.385694 A    
C32   N32   1.329330 A    
C60   N40   1.437130 S    
N36   O7    1.301344 A    
N15   N23   1.396121 A    
C26   C38   1.368381 A    
C23   H47   1.076955 S    
C69   C75   1.368732 A    
N37   O9    1.301772 A    
N16   N24   1.396028 A    
C25   C37   1.366564 A    
N10   N18   1.395782 A    
C7    N7    1.322909 A    
N40   O15   1.301814 A    
N9    N17   1.395876 A    
C1    N1    1.334519 A    
C58   C78   1.404397 A    
C57   N37   1.443584 S    
C51   N43   1.436037 S    
C57   C63   1.389695 A    
C60   C62   1.397110 A    
C3    N3    1.330768 A    
C64   C68   1.401640 A    
C26   H50   1.080908 S    
C49   N41   1.448581 S    
C59   C61   1.380045 A    
C52   C56   1.355078 D    
C25   H49   1.081838 S    
N7    N27   1.368135 A    
C62   H26   1.079291 S    
C20   C44   1.385443 A    
N38   O11   1.301871 A    
N35   O6    1.300113 A    
N24   Ni4   1.845864 S    
C1    N33   1.423843 S    
C4    N4    1.323570 A    
C5    H1    1.081960 S    
N20   Ni8   1.871791 S    
C9    H5    1.079951 S    
N41   O18   1.301219 A    
C86   C90   1.401775 A    
C71   H31   1.083089 S    
C68   C72   1.379952 A    
C76   H40   1.080998 S    
C11   H7    1.076777 S    
C8    H4    1.078022 S    
C84   C87   1.402538 A    
C70   C76   1.382215 A    
C22   C46   1.380818 A    
C28   H52   1.075587 S    
C75   H39   1.084920 S    
C41   C85   1.460248 S    
C74   H38   1.084856 S    
N32   Ni3   1.851534 S    
C15   N15   1.337656 A    
N14   N22   1.396028 A    
C73   H37   1.085386 S    
C49   C53   1.354893 D    
C33   C66   1.480020 S    
C37   C77   1.409948 S    
C60   C80   1.413613 A    
C17   N17   1.330359 A    
N3    Ni3   1.861097 S    
N27   Ni8   1.875857 S    
C59   N39   1.442862 S    
C10   C42   1.389303 A    
C18   N18   1.333855 A    
C2    N2    1.331680 A    
C48   C55   1.466225 S    
C7    H3    1.080939 S    
C30   N30   1.323805 A    
C15   C47   1.382742 A    
C64   H28   1.084357 S    
C2    N34   1.433989 S    
C29   N29   1.337910 A    
N34   O4    1.300137 A    
C59   C79   1.402039 A    
N29   Ni2   1.838793 S    
N37   O10   1.299812 A    
C1    C33   1.394403 A    
N1    Ni1   1.861097 S    
C81   C86   1.401118 A    
N31   Ni4   1.838793 S    
N18   Ni6   1.871791 S    
C52   N44   1.448587 S    
C3    C35   1.379855 A    
C12   H8    1.079494 S    
C16   H12   1.082006 S    
N23   Ni3   1.858237 S    
N13   Ni6   1.866766 S    
C6    C38   1.364803 A    
C5    C37   1.374802 A    
C91   C92   1.383411 A    
C46   C53   1.443833 S    
C19   H15   1.074917 S    
N4    N32   1.368136 A    
C83   H35   1.080416 S    
C13   H9    1.082072 S    
C89   H41   1.080234 S    
C56   H24   1.086200 S    
N19   Ni7   1.861052 S    
C11   N11   1.334754 A    
N21   Ni1   1.858237 S    
N43   O21   1.301298 A    
C90   H42   1.080617 S    
C40   C80   1.474132 S    
N17   Ni5   1.861052 S    
N1    N29   1.368135 A    
C34   C65   1.405681 S    
N44   O24   1.301408 A    
N35   O5    1.300877 A    
C18   C42   1.390033 A    
N28   Ni7   1.864502 S    
C17   H13   1.079817 S    
C87   C91   1.400965 A    
C28   N28   1.330805 A    
C21   C45   1.386357 A    
C8    N8    1.339552 A    
C12   C44   1.381587 A    
C27   C39   1.369053 A    
N41   O17   1.301782 A    
N12   Ni3   1.861355 S    
C16   C48   1.370404 A    
C30   C34   1.362866 A    
N4    Ni4   1.872204 S    
C29   C33   1.393550 A    
C54   H22   1.088045 S    
C53   H21   1.085931 S    
C88   C92   1.403103 A    
C5    N5    1.322705 A    
N42   O20   1.301642 A    
C55   H23   1.088111 S    
C61   H25   1.084735 S    
C70   H30   1.070354 S    
C16   N16   1.336380 A    
C32   H20   1.080818 S    
C72   C74   1.364938 A    
C50   C54   1.347659 D    
C47   C56   1.445071 S    
C27   H51   1.080742 S    
N34   O3    1.300747 A    
C19   N19   1.333417 A    
N33   O2    1.301364 A    
N16   Ni7   1.879157 S    
C61   C65   1.399347 A    
C20   N20   1.335386 A    
C74   C78   1.404109 A    
C69   H29   1.084036 S    
N5    N25   1.368135 A    
C71   C73   1.357375 A    
N40   O16   1.301499 A    
C92   H44   1.080066 S    
C14   H10   1.079325 S    
C35   C68   1.406732 S    
C57   C77   1.415573 A    
C91   H43   1.080671 S    
C50   N42   1.435700 S    
C76   C80   1.397371 A    
C36   C67   1.413259 S    
C4    N36   1.429079 S    
C24   C48   1.383544 A    
N26   Ni5   1.864503 S    
C9    N9    1.331776 A    
C66   C70   1.404345 A    
N36   O8    1.300905 A    
N25   Ni6   1.875857 S    
C58   C64   1.377163 A    
C21   N21   1.341507 A    
N5    Ni5   1.859326 S    
C4    C36   1.381592 A    
C84   H36   1.080429 S    
C83   C88   1.401385 A    
C18   H14   1.076084 S    
C23   N23   1.336609 A    
N38   O12   1.300092 A    
C43   C87   1.461539 S    
C24   N24   1.343478 A    
C67   C71   1.390171 A    
C13   N13   1.333663 A    
N11   Ni4   1.872144 S    
C14   C46   1.382049 A    
C72   H32   1.083918 S    
C45   C54   1.465375 S    
N39   O13   1.301670 A    
C3    N35   1.432277 S    
C44   C88   1.461314 S    
C10   N10   1.333374 A    
C49   C50   1.484505 S    
C39   C79   1.402892 S    
C31   N31   1.318955 A    
N44   O23   1.301775 A    
C26   N26   1.325236 A    
C9    C41   1.386879 A    
N6    Ni6   1.846585 S    
C6    N6    1.320821 A    
C25   N25   1.323257 A    
C75   C79   1.400452 A    
N10   Ni1   1.861355 S    
C58   N38   1.445254 S    
C28   C40   1.387894 A    
N30   Ni1   1.851534 S    
C11   C43   1.390802 A    
N9    Ni2   1.872144 S    
C2    C34   1.376073 A    
C27   N27   1.327365 A    
N15   Ni8   1.866766 S    
N2    Ni2   1.872204 S    
C81   H33   1.080531 S    
C32   C36   1.377565 A    
C63   C67   1.392089 A    
N14   Ni5   1.879157 S    
C63   H27   1.083926 S    
N39   O14   1.301408 A    
N43   O22   1.301688 A    
C24   H48   1.069389 S    
C10   H6    1.075587 S    
C7    C39   1.363162 A    
C20   H16   1.080011 S    
C8    C40   1.399954 A    
C73   C77   1.391578 A    
N42   O19   1.301264 A    
C62   C66   1.405183 A    
C29   H17   1.079127 S    
C30   H18   1.080892 S    
C21   H45   1.070040 S    
C83   C84   1.383801 A    
C82   H34   1.080056 S    
C19   C43   1.389140 A    
N8    N28   1.368135 A    
C51   C55   1.348039 D    
C13   C45   1.373164 A    
N11   N19   1.395876 A    
C81   C82   1.382731 A    
C31   H19   1.081828 S    
N12   N20   1.395782 A    
C85   C89   1.401962 A    
C31   C35   1.361437 A    
C22   H46   1.076480 S    
C6    H2    1.081415 S    
N8    Ni8   1.846585 S    
C12   N12   1.331588 A    
N7    Ni7   1.859325 S    
