data_mof_unit_28217.cif
_audit_creation_date              2012-12-11T14:23:12-0500
_audit_creation_method            fapswitch 2.2
_symmetry_space_group_name_H-M    P1
_symmetry_Int_Tables_number       1
_space_group_crystal_system       triclinic
_cell_length_a                    11.083482
_cell_length_b                    10.931196
_cell_length_c                    18.78728
_cell_angle_alpha                 89.894758
_cell_angle_beta                  90.347354
_cell_angle_gamma                 59.799822
_cell_volume                      1967.17933427

loop_
_atom_site_label
_atom_site_type_symbol
_atom_type_description
_atom_site_fract_x
_atom_site_fract_y
_atom_site_fract_z
_atom_type_partial_charge
C1    C     C_R   0.240767 0.643811 0.611073 0.540373
C2    C     C_R   0.550814 0.206192 0.719344 -0.158406
C3    C     C_R   0.561126 0.204584 0.791640 -0.165988
C4    C     C_R   0.653921 0.622800 0.600601 0.544123
C5    C     C_R   0.927247 0.129468 0.814639 -0.088829
C6    C     C_R   0.041478 0.099775 0.772380 -0.136764
C7    C     C_R   0.034941 0.087154 0.699145 -0.126167
C8    C     C_R   0.913245 0.106439 0.667358 -0.082864
C9    C     C_R   0.664089 0.178992 0.676493 -0.011076
C10   C     C_R   0.193348 0.656821 0.837817 -0.007839
C11   C     C_R   0.197247 0.542772 0.800094 0.023337
C12   C     C_3   0.664107 0.558529 0.800510 -0.250213
C13   C     C_R   0.190933 0.547161 0.724451 0.016773
C14   C     C_R   0.229741 0.747160 0.728183 -0.150886
C15   C     C_R   0.221151 0.750829 0.801500 -0.154317
C16   C     C_R   0.628385 0.227887 0.602811 0.520424
C17   C     C_R   0.207214 0.424584 0.835999 -0.101437
C18   C     C_R   0.197389 0.320083 0.799013 -0.150887
C19   C     C_R   0.174212 0.332729 0.725924 -0.159306
C20   C     C_R   0.169222 0.445780 0.688879 -0.117558
C21   C     C_R   0.208105 0.651636 0.687867 -0.001982
C22   C     C_R   0.704474 0.693873 0.183092 -0.003020
C23   C     C_3   0.699623 0.676369 0.811539 0.047112
C24   C     C_R   0.782000 0.558812 0.217219 -0.012839
C25   C     C_R   0.807938 0.553081 0.291148 0.005354
C26   C     C_R   0.619949 0.798727 0.299341 -0.151330
C27   C     C_R   0.632720 0.814272 0.226176 -0.160580
C28   C     C_R   0.227669 0.649912 0.398845 0.578228
C29   C     C_R   0.831332 0.429221 0.180860 -0.099585
C30   C     C_R   0.924407 0.301540 0.212948 -0.191792
C31   C     C_R   0.965844 0.297801 0.282863 -0.115954
C32   C     C_R   0.921694 0.422532 0.320789 0.270653
C33   C     C_R   0.699054 0.665954 0.331464 0.026258
C34   C     C_3   0.670102 0.648903 0.675861 0.050765
C35   C     C_R   0.658779 0.168175 0.173555 -0.003344
C36   C     C_R   0.527663 0.230711 0.203959 0.016207
C37   C     C_R   0.521927 0.206941 0.276717 0.025286
C38   C     C_R   0.766891 0.133586 0.290374 -0.150006
C39   C     C_R   0.778851 0.118038 0.217346 -0.146815
C40   C     C_R   0.650525 0.627920 0.396730 0.571021
C41   C     C_R   0.405207 0.290751 0.161785 -0.084985
C42   C     C_R   0.287493 0.292896 0.187253 -0.128666
C43   C     C_R   0.290304 0.244024 0.255563 -0.106648
C44   C     C_R   0.405302 0.201114 0.300130 -0.055718
C45   C     C_3   0.818766 0.620492 0.690801 -0.242763
C46   C     C_R   0.637966 0.178139 0.321280 0.000027
C47   C     C_R   0.163502 0.655748 0.178780 0.001123
C48   C     C_R   0.242350 0.712836 0.205413 0.026458
C49   C     C_R   0.230346 0.746395 0.277847 0.028310
C50   C     C_R   0.119989 0.604605 0.296723 -0.133562
C51   C     C_R   0.102594 0.601703 0.224515 -0.151543
C52   C     C_R   0.614788 0.229968 0.394488 0.536549
C53   C     C_R   0.311826 0.758691 0.159143 -0.080867
C54   C     C_R   0.341900 0.861235 0.181053 -0.108966
C55   C     C_R   0.310623 0.912078 0.249970 -0.142784
C56   C     C_3   0.644502 0.543734 0.720668 -0.216186
C57   C     C_R   0.257537 0.855230 0.298345 -0.088053
C58   C     C_R   0.183963 0.674844 0.324631 0.002075
C59   C     C_R   0.701935 0.104132 0.896709 0.534051
C60   C     C_R   0.724361 0.689040 0.887710 0.551224
C61   C     C_R   0.121616 0.703123 0.906852 0.534542
C62   C     C_R   0.676849 0.108282 0.103013 0.526065
C63   C     C_R   0.727800 0.711730 0.106773 0.557186
C64   C     C_3   0.579083 0.817491 0.779792 -0.230381
C65   C     C_R   0.097869 0.704919 0.110628 0.528610
C66   C     C_3   0.564552 0.802467 0.699204 -0.240720
C67   C     C_R   0.687702 0.165198 0.825336 -0.012732
C68   C     C_3   0.835421 0.639136 0.770462 -0.222119
C69   C     C_R   0.803266 0.145813 0.783960 0.019745
C70   C     C_R   0.793617 0.143545 0.708470 0.009517
Cr1   Cr    Cr6+3 0.392940 0.397950 0.502230 1.036559
Cr2   Cr    Cr6+3 0.398400 0.708500 0.501260 1.011042
Cr3   Cr    Cr6+3 0.708640 0.393530 0.496460 1.108505
Cr4   Cr    Cr6+3 0.937880 0.938320 0.007620 0.992614
Cr5   Cr    Cr6+3 0.625560 0.937220 0.994510 0.992344
Cr6   Cr    Cr6+3 0.938080 0.625010 0.001190 0.989353
H1    H     H_    0.600502 0.905412 0.788959 0.149376
H2    H     H_    0.915350 0.088995 0.610673 0.143823
H3    H     H_    0.254758 0.820217 0.703024 0.134269
H4    H     H_    0.478850 0.846072 0.806407 0.114816
H5    H     H_    0.229415 0.408254 0.892469 0.128259
H6    H     H_    0.229569 0.832476 0.829702 0.133015
H7    H     H_    0.208240 0.229605 0.827767 0.104872
H8    H     H_    0.162403 0.253787 0.697366 0.121950
H9    H     H_    0.144876 0.453040 0.632839 0.157452
H10   H     H_    0.546859 0.888447 0.330494 0.112105
H11   H     H_    0.794249 0.423250 0.128406 0.160776
H12   H     H_    0.718492 0.432834 0.704694 0.149765
H13   H     H_    0.578916 0.919104 0.202601 0.139749
H14   H     H_    0.966986 0.204907 0.182718 0.122859
H15   H     H_    0.037343 0.196322 0.307013 0.126276
H16   H     H_    0.455702 0.829664 0.687133 0.130349
H17   H     H_    0.858568 0.105297 0.322751 0.135991
H18   H     H_    0.404672 0.323472 0.107258 0.121143
H19   H     H_    0.883016 0.060175 0.195778 0.152962
H20   H     H_    0.196727 0.326746 0.153334 0.120350
H21   H     H_    0.205869 0.234185 0.273848 0.151511
H22   H     H_    0.406315 0.152281 0.350287 0.161094
H23   H     H_    0.923683 0.538987 0.791528 0.169603
H24   H     H_    0.076498 0.559742 0.331002 0.216365
H25   H     H_    0.331362 0.724472 0.104208 0.117315
H26   H     H_    0.036673 0.562396 0.204621 0.141521
H27   H     H_    0.584210 0.878979 0.669599 0.121447
H28   H     H_    0.384592 0.904910 0.143879 0.136824
H29   H     H_    0.330790 0.993538 0.266912 0.103328
H30   H     H_    0.229045 0.907712 0.349021 0.156909
H31   H     H_    0.862402 0.723636 0.778050 0.129065
H32   H     H_    0.839653 0.693942 0.659130 0.122829
H33   H     H_    0.749514 0.456173 0.822025 0.132804
H34   H     H_    0.896343 0.510567 0.675152 0.154422
H35   H     H_    0.566841 0.584181 0.829424 0.115956
H36   H     H_    0.537114 0.563211 0.710682 0.127918
H37   H     H_    0.217281 0.307393 0.447174 0.368388
H38   H     H_    0.450140 0.233706 0.697221 0.168718
H39   H     H_    0.936749 0.144528 0.870654 0.140349
H40   H     H_    0.470914 0.222870 0.821506 0.154045
H41   H     H_    0.137344 0.081732 0.796806 0.090014
H42   H     H_    0.125197 0.060627 0.666758 0.107870
O1    O     O_R   0.507340 0.255690 0.581430 -0.533547
O2    O     O_R   0.837290 0.593240 0.915240 -0.525262
O3    O     O_R   0.065320 0.635310 0.931580 -0.514111
O4    O     O_R   0.280360 0.527380 0.578910 -0.508008
O5    O     O_R   0.068470 0.828620 0.091850 -0.521933
O6    O     O_R   0.799150 0.057200 0.079350 -0.513272
O7    O     O_R   0.585220 0.080180 0.076770 -0.531444
O8    O     O_R   0.627170 0.809480 0.067050 -0.505859
O9    O     O_R   0.816200 0.596410 0.076500 -0.535088
O10   O     O_R   0.045770 0.638240 0.081070 -0.526466
O11   O     O_3   0.833840 0.833520 0.001110 -0.253615
O12   O     O_R   0.524510 0.695820 0.424050 -0.516050
O13   O     O_R   0.260600 0.739610 0.584580 -0.528650
O14   O     O_R   0.532370 0.695050 0.573830 -0.520947
O15   O     O_R   0.744850 0.503430 0.576380 -0.485530
O16   O     O_R   0.699080 0.276500 0.571950 -0.508822
O17   O     O_R   0.498860 0.256520 0.419860 -0.530644
O18   O     O_R   0.272490 0.528150 0.429140 -0.447733
O19   O     O_R   0.252110 0.740440 0.423010 -0.543812
O20   O     O_2   0.950660 0.544552 0.442033 -0.310544
O21   O     O_2   0.984653 0.304999 0.452569 -0.292512
O22   O     O_3   0.179833 0.332643 0.397988 -0.581164
O23   O     O_R   0.736370 0.504260 0.414810 -0.430931
O24   O     O_R   0.691220 0.277270 0.422180 -0.484067
O25   O     O_3   0.499990 0.499990 0.499980 -0.268086
O26   O     O_R   0.089570 0.825450 0.930590 -0.522331
O27   O     O_R   0.818700 0.054260 0.929860 -0.509289
O28   O     O_R   0.606310 0.077010 0.915520 -0.532236
O29   O     O_R   0.646730 0.806540 0.917560 -0.503715
S1    S     S_3+6 0.007407 0.403585 0.405929 -0.038118

loop_
_geom_bond_atom_site_label_1
_geom_bond_atom_site_label_2
_ccdc_geom_bond_type
Cr2   O25   S    
Cr4   O6    S    
C34   C56   S    
C11   C13   A    
C64   H1    S    
Cr4   O27   S    
C19   C20   A    
C30   H14   S    
C16   O16   A    
C34   C66   S    
C62   O6    A    
C7    C8    A    
C4    O14   A    
Cr3   O23   S    
C53   C54   A    
C51   H26   S    
C1    C21   S    
C12   C23   S    
C18   H7    S    
C26   C27   A    
Cr6   O2    S    
C55   H29   S    
C42   H20   S    
Cr6   O3    S    
C14   C21   A    
C54   H28   S    
C36   C37   A    
C9    C16   S    
C10   C15   A    
Cr1   O17   S    
C30   C31   A    
C56   H12   S    
C46   C52   S    
C49   C57   A    
C61   O3    A    
C18   C19   A    
C41   C42   A    
C24   C29   A    
C5    C69   A    
Cr1   O4    S    
C59   C67   S    
C22   C63   S    
C1    O4    A    
C44   H22   S    
C31   C32   A    
O20   S1    D    
C47   C48   A    
C27   H13   S    
C68   H31   S    
C6    H41   S    
C45   H32   S    
C25   C32   A    
Cr4   O5    S    
C40   O23   A    
C5    H39   S    
C8    H2    S    
C64   H4    S    
C7    H42   S    
O22   S1    S    
C36   C41   A    
C48   C53   A    
C12   H33   S    
Cr2   O14   S    
C15   H6    S    
Cr4   O26   S    
Cr3   O24   S    
Cr5   O28   S    
Cr2   O19   S    
C23   C60   S    
C4    C34   S    
O21   S1    D    
C33   C40   S    
C38   C46   A    
C50   C58   A    
C65   O10   A    
C38   C39   A    
C9    C70   A    
C16   O1    A    
C53   H25   S    
Cr1   O18   S    
C45   H34   S    
C66   H16   S    
Cr5   O29   S    
C52   O24   A    
C49   C58   A    
C67   C69   A    
C35   C36   A    
C64   C66   S    
C23   C68   S    
C35   C39   A    
C43   C44   A    
C29   C30   A    
Cr6   O11   S    
C61   O26   A    
C41   H18   S    
C26   H10   S    
C20   H9    S    
C45   C68   S    
C17   C18   A    
H37   O22   S    
C13   C21   A    
C50   C51   A    
C34   C45   S    
C14   H3    S    
C24   C25   A    
C39   H19   S    
C12   C56   S    
C59   O27   A    
C23   C64   S    
C60   O29   A    
Cr3   O15   S    
C31   H15   S    
C22   C27   A    
C55   C57   A    
Cr6   O10   S    
C22   C24   A    
C10   C61   S    
C42   C43   A    
C19   H8    S    
Cr2   O13   S    
Cr1   O25   S    
Cr3   O25   S    
C52   O17   A    
C40   O12   A    
C54   C55   A    
C11   C17   A    
C13   C20   A    
C28   O18   A    
C50   H24   S    
C66   H27   S    
C3    C67   A    
C28   O19   A    
C43   H21   S    
C1    O13   A    
C62   O7    A    
C47   C51   A    
Cr2   O12   S    
C6    C7    A    
C32   S1    S    
C28   C58   S    
C8    C70   A    
Cr1   O1    S    
C3    H40   S    
Cr5   O8    S    
C37   C44   A    
C2    C3    A    
C68   H23   S    
C2    H38   S    
C5    C6    A    
C48   C49   A    
C38   H17   S    
C47   C65   S    
C57   H30   S    
C35   C62   S    
C17   H5    S    
C65   O5    A    
C69   C70   A    
C29   H11   S    
C63   O8    A    
C10   C11   A    
C60   O2    A    
C59   O28   A    
Cr3   O16   S    
Cr4   O11   S    
Cr6   O9    S    
C14   C15   A    
Cr5   O7    S    
C37   C46   A    
C2    C9    A    
C56   H36   S    
C12   H35   S    
C63   O9    A    
Cr5   O11   S    
C26   C33   A    
C25   C33   A    
C4    O15   A    
