data_mof_unit_45707.cif
_audit_creation_date              2012-12-10T19:45:04-0500
_audit_creation_method            fapswitch 2.2
_symmetry_space_group_name_H-M    P1
_symmetry_Int_Tables_number       1
_space_group_crystal_system       triclinic
_cell_length_a                    15.024019
_cell_length_b                    10.848435
_cell_length_c                    13.826826
_cell_angle_alpha                 90.087067
_cell_angle_beta                  90.176581
_cell_angle_gamma                 88.468963
_cell_volume                      2252.77661874

loop_
_atom_site_label
_atom_site_type_symbol
_atom_type_description
_atom_site_fract_x
_atom_site_fract_y
_atom_site_fract_z
_atom_type_partial_charge
C1    C     C_R   0.497185 0.262500 0.499601 0.806221
C2    C     C_R   0.567070 0.880216 0.673765 0.130336
C3    C     C_R   0.474824 0.099117 0.236682 -0.153192
C4    C     C_R   0.525175 0.900883 0.763318 -0.153191
C5    C     C_R   0.440718 0.155062 0.152858 -0.148456
C6    C     C_R   0.559281 0.844938 0.847142 -0.148458
C7    C     C_R   0.364649 0.231816 0.157742 -0.116153
C8    C     C_R   0.635350 0.768185 0.842258 -0.116153
C9    C     C_R   0.476441 0.933805 0.417819 -0.196918
C10   C     C_R   0.523559 0.066195 0.582181 -0.196918
C11   C     C_R   0.505091 0.871505 0.501293 -0.072075
C12   C     C_R   0.502815 0.737500 0.500399 0.806221
C13   C     C_R   0.494909 0.128495 0.498707 -0.072075
C14   C     C_R   0.530313 0.938513 0.584518 0.002447
C15   C     C_R   0.469686 0.061487 0.415482 0.002447
C16   C     C_R   0.329129 0.501861 0.499977 0.818870
C17   C     C_R   0.670871 0.498139 0.500023 0.818871
C18   C     C_R   0.557794 0.422885 0.793967 0.084825
C19   C     C_R   0.442206 0.577114 0.206032 0.084826
C20   C     C_R   0.442346 0.577344 0.793588 0.099081
C21   C     C_R   0.557654 0.422656 0.206411 0.099081
C22   C     C_R   0.441124 0.578858 0.896518 -0.038800
C23   C     C_R   0.054544 0.277350 0.509091 -0.204098
C24   C     C_R   0.558876 0.421141 0.103482 -0.038800
C25   C     C_R   0.499937 0.499933 0.948284 0.082136
C26   C     C_R   0.500063 0.500067 0.051716 0.082136
C27   C     C_R   0.558761 0.421046 0.896861 -0.044862
C28   C     C_R   0.441239 0.578954 0.103139 -0.044862
C29   C     C_R   0.382925 0.657625 0.949189 -0.210400
C30   C     C_R   0.617075 0.342375 0.050811 -0.210400
C31   C     C_R   0.382961 0.657656 0.050175 -0.204283
C32   C     C_R   0.617039 0.342343 0.949825 -0.204283
C33   C     C_R   0.810352 0.607043 0.494503 -0.273592
C34   C     C_R   0.945456 0.722649 0.490909 -0.204098
C35   C     C_R   0.189648 0.392957 0.505497 -0.273592
C36   C     C_R   0.767378 0.495015 0.499822 -0.087836
C37   C     C_R   0.232622 0.504985 0.500178 -0.087836
C38   C     C_R   0.816155 0.382431 0.503259 -0.073582
C39   C     C_R   0.183845 0.617569 0.496741 -0.073582
C40   C     C_R   0.910027 0.383715 0.503857 0.059137
C41   C     C_R   0.089972 0.616285 0.496142 0.059137
C42   C     C_R   0.953172 0.498330 0.499824 0.054834
C43   C     C_R   0.046828 0.501670 0.500176 0.054834
C44   C     C_R   0.902808 0.609781 0.495031 0.121299
C45   C     C_R   0.321667 0.251067 0.246194 -0.114277
C46   C     C_R   0.097192 0.390219 0.504969 0.121299
C47   C     C_R   0.962054 0.273872 0.508403 -0.199871
C48   C     C_R   0.037946 0.726128 0.491597 -0.199871
C49   C     C_1   0.619132 0.343108 0.741876 0.291602
C50   C     C_1   0.380868 0.656891 0.258124 0.291602
C51   C     C_1   0.383106 0.659856 0.740841 0.316209
C52   C     C_1   0.616893 0.340144 0.259159 0.316209
C53   C     C_1   0.769680 0.266887 0.504158 0.269581
C54   C     C_1   0.230320 0.733113 0.495842 0.269581
C55   C     C_R   0.678332 0.748934 0.753806 -0.114278
C56   C     C_R   0.355035 0.194203 0.329940 -0.079725
C57   C     C_R   0.644965 0.805798 0.670061 -0.079725
C58   C     C_R   0.432930 0.119784 0.326235 0.130336
Cu1   Cu    Cu3+1 0.500010 0.499980 0.597420 0.971493
Cu2   Cu    Cu3+1 0.499990 0.500020 0.402580 0.971493
H1    H     H_    0.771414 0.692343 0.489425 0.126119
H2    H     H_    0.907141 0.808633 0.487299 0.149164
H3    H     H_    0.339010 0.276246 0.092991 0.134857
H4    H     H_    0.660989 0.723755 0.907010 0.134858
H5    H     H_    0.321061 0.209056 0.397890 0.094588
H6    H     H_    0.678938 0.790944 0.602111 0.094589
H7    H     H_    0.534526 0.041225 0.232096 0.133876
H8    H     H_    0.465473 0.958775 0.767904 0.133876
H9    H     H_    0.456201 0.882804 0.354430 0.171712
H10   H     H_    0.543799 0.117196 0.645569 0.171712
H11   H     H_    0.262516 0.310053 0.249925 0.134216
H12   H     H_    0.228586 0.307657 0.510575 0.126119
H13   H     H_    0.737484 0.689948 0.750076 0.134216
H14   H     H_    0.473803 0.139940 0.084262 0.140290
H15   H     H_    0.526196 0.860060 0.915737 0.140291
H16   H     H_    0.336685 0.720344 0.912891 0.149643
H17   H     H_    0.663314 0.279656 0.087109 0.149643
H18   H     H_    0.336666 0.720381 0.086223 0.153352
H19   H     H_    0.663334 0.279618 0.913777 0.153352
H20   H     H_    0.931825 0.184519 0.511690 0.155533
H21   H     H_    0.068175 0.815481 0.488310 0.155533
H22   H     H_    0.092859 0.191367 0.512701 0.149164
N1    N     N_R   0.499960 0.499900 0.743810 -0.226778
N2    N     N_R   0.500040 0.500100 0.256190 -0.226779
N3    N     N_1   0.669194 0.278439 0.701829 -0.306348
N4    N     N_1   0.330806 0.721561 0.298171 -0.306348
N5    N     N_1   0.335285 0.726975 0.699818 -0.299257
N6    N     N_1   0.664715 0.273024 0.300182 -0.299257
N7    N     N_1   0.732848 0.174522 0.504651 -0.274846
N8    N     N_1   0.267152 0.825478 0.495349 -0.274846
O1    O     O_R   0.500000 0.319630 0.582270 -0.591286
O2    O     O_R   0.500000 0.680370 0.417730 -0.591286
O3    O     O_R   0.499990 0.319660 0.417730 -0.574356
O4    O     O_R   0.500010 0.680340 0.582270 -0.574356
O5    O     O_R   0.370260 0.499960 0.582280 -0.580012
O6    O     O_R   0.629740 0.500040 0.417720 -0.580012
O7    O     O_R   0.370250 0.499990 0.417740 -0.580420
O8    O     O_R   0.629750 0.500010 0.582260 -0.580420

loop_
_geom_bond_atom_site_label_1
_geom_bond_atom_site_label_2
_ccdc_geom_bond_type
C40   C47   A    
C38   C40   A    
C23   H22   S    
C45   H11   S    
C57   H6    S    
C2    C57   A    
C6    H15   S    
C39   C41   A    
C29   H16   S    
Cu1   O5    S    
C7    C45   A    
C22   C29   A    
C24   C26   A    
C54   N8    T    
C20   C51   S    
C11   C14   A    
C16   O7    A    
C39   C54   S    
C56   H5    S    
C34   H2    S    
C33   C36   A    
C48   H21   S    
C5    H14   S    
C30   H17   S    
C45   C56   A    
C22   C25   A    
C17   C36   S    
C17   O8    A    
C16   C37   S    
Cu2   O3    S    
C40   C42   A    
Cu1   Cu2   S    
C1    O1    A    
C23   C46   A    
C41   C43   A    
C12   O4    A    
C42   C44   A    
C47   H20   S    
C8    C55   A    
Cu2   O2    S    
C37   C39   A    
C23   C47   A    
C49   N3    T    
C52   N6    T    
C34   C44   A    
C4    C6    A    
Cu2   O7    S    
C10   C14   A    
C51   N5    T    
C5    C7    A    
C6    C8    A    
C25   C26   A    
C2    C4    A    
C21   N2    A    
C18   N1    A    
C17   O6    A    
Cu1   O1    S    
C19   C28   A    
C9    C11   A    
C7    H3    S    
C8    H4    S    
Cu2   O6    S    
C33   H1    S    
Cu1   O4    S    
C20   C22   A    
C35   H12   S    
C55   C57   A    
C53   N7    T    
C9    H9    S    
C15   C58   S    
C21   C24   A    
C1    C13   S    
C42   C43   A    
C19   N2    A    
C10   H10   S    
C31   H18   S    
C4    H8    S    
C16   O5    A    
C35   C37   A    
C27   C32   A    
C33   C44   A    
C12   O2    A    
C28   C31   A    
C3    H7    S    
C18   C27   A    
Cu1   N1    S    
C3    C5    A    
C10   C13   A    
C11   C12   S    
C25   C27   A    
C26   C28   A    
C13   C15   A    
C9    C15   A    
C29   C31   A    
C32   H19   S    
C30   C32   A    
Cu2   N2    S    
C19   C50   S    
C38   C53   S    
C36   C38   A    
C41   C48   A    
C56   C58   A    
C2    C14   S    
C43   C46   A    
C24   C30   A    
C50   N4    T    
C55   H13   S    
C3    C58   A    
C34   C48   A    
C1    O3    A    
C20   N1    A    
Cu1   O8    S    
C35   C46   A    
C21   C52   S    
C18   C49   S    
