data_mof_unit_35463.cif
_audit_creation_date              2012-12-10T16:52:13-0500
_audit_creation_method            fapswitch 2.2
_symmetry_space_group_name_H-M    P1
_symmetry_Int_Tables_number       1
_space_group_crystal_system       triclinic
_cell_length_a                    11.022943
_cell_length_b                    10.897094
_cell_length_c                    9.800103
_cell_angle_alpha                 88.518417
_cell_angle_beta                  103.227134
_cell_angle_gamma                 91.007306
_cell_volume                      1145.47430261

loop_
_atom_site_label
_atom_site_type_symbol
_atom_type_description
_atom_site_fract_x
_atom_site_fract_y
_atom_site_fract_z
_atom_type_partial_charge
C1    C     C_R   0.496865 0.265467 0.500995 0.835483
C2    C     C_2   0.503866 0.867277 0.493717 -0.377391
C3    C     C_2   0.452227 0.069516 0.386654 -0.248123
C4    C     C_2   0.484812 0.133017 0.504641 -0.360469
C5    C     C_2   0.401835 0.499682 0.898666 0.045813
C6    C     C_2   0.409978 0.460663 0.048562 0.262034
C7    C     C_R   0.262137 0.494921 0.442175 0.835914
C8    C     C_R   0.498289 0.734465 0.497745 0.935691
C9    C     C_R   0.737229 0.501956 0.557987 0.746636
C10   C     C_2   0.125038 0.478115 0.409247 -0.026996
C11   C     C_2   0.068341 0.469722 0.517830 -0.088034
C12   C     C_2   0.873308 0.508905 0.591618 0.298434
C13   C     C_2   0.933239 0.457468 0.502977 -0.271140
C14   C     C_2   0.433039 0.936233 0.390284 0.418202
Cu1   Cu    Cu3+1 0.500020 0.500020 0.638640 1.042445
Cu2   Cu    Cu3+1 0.499980 0.499980 0.361360 1.080606
H1    H     H_    0.879291 0.404600 0.417425 0.152321
H2    H     H_    0.570960 0.447306 0.903249 0.250623
H3    H     H_    0.123652 0.476810 0.624114 0.208072
H4    H     H_    0.574149 0.908950 0.576020 0.137615
H5    H     H_    0.431785 0.116682 0.285095 0.206114
H6    H     H_    0.494159 0.088187 0.606718 0.173252
H7    H     H_    0.311567 0.520185 0.831390 0.167848
N1    N     N_2   0.498650 0.498660 0.846590 -0.243048
N2    N     N_2   0.498620 0.498630 0.152710 -0.017940
O1    O     O_R   0.500020 0.321960 0.617050 -0.596094
O2    O     O_R   0.499980 0.321920 0.382890 -0.607748
O3    O     O_R   0.320700 0.500020 0.574050 -0.611291
O4    O     O_R   0.320660 0.499980 0.339890 -0.595839
O5    O     O_R   0.500020 0.678080 0.617110 -0.537916
O6    O     O_R   0.499980 0.678040 0.382950 -0.470835
O7    O     O_R   0.679340 0.500020 0.660110 -0.519317
O8    O     O_R   0.679300 0.499980 0.425950 -0.546172
C15   C     C_3   0.309983 0.371962 0.072648 -0.483512
C16   C     C_3   0.307702 0.255137 0.989048 -0.792803
H8    H     H_    0.283607 0.276048 0.874566 0.251934
H9    H     H_    0.399869 0.209845 0.017685 0.260517
H10   H     H_    0.236047 0.190577 0.013141 0.291673
H11   H     H_    0.324259 0.342705 0.183445 0.249064
H12   H     H_    0.218454 0.417360 0.039459 0.243271
S1    S     S_3+6 0.610520 0.606773 0.120440 0.131562
O9    O     O_2   0.714797 0.541256 0.078466 -0.329846
O10   O     O_2   0.553282 0.698104 0.007252 -0.236979
O11   O     O_3   0.676840 0.688222 0.261838 -0.471784
H13   H     H_    0.743771 0.737488 0.233465 0.357148
S2    S     S_3+6 0.951281 0.594562 0.738294 -0.001033
O12   O     O_2   0.028316 0.508744 0.844725 -0.346411
O13   O     O_2   0.035397 0.689161 0.692116 -0.274755
O14   O     O_3   0.847904 0.665579 0.810771 -0.490885
H14   H     H_    0.897361 0.727667 0.872822 0.378508
C17   C     C_3   0.054981 0.466757 0.257010 -0.431981
C18   C     C_3   0.044988 0.590284 0.179085 -0.551516
H15   H     H_    0.010887 0.661331 0.240034 0.262115
H16   H     H_    0.136552 0.618588 0.158850 0.284916
H17   H     H_    0.977322 0.582297 0.076930 0.278779
H18   H     H_    0.103438 0.400425 0.204985 0.195648
H19   H     H_    0.959816 0.428584 0.244625 0.235072
S3    S     S_3+6 0.308488 0.874630 0.262071 0.025615
O15   O     O_2   0.358707 0.807553 0.155185 -0.194755
O16   O     O_2   0.233922 0.786925 0.332050 -0.336585
O17   O     O_3   0.215351 0.987480 0.180065 -0.526051
H20   H     H_    0.179681 0.023442 0.253939 0.344325

loop_
_geom_bond_atom_site_label_1
_geom_bond_atom_site_label_2
_ccdc_geom_bond_type
C7    C10   S    
C17   C18   S    
C7    O4    A    
C3    C14   S    
Cu2   O8    S    
C11   C13   S    
S1    O9    D    
C16   H8    S    
C5    H7    S    
C18   H17   S    
C13   H1    S    
C1    C4    S    
C8    O5    A    
S3    O17   S    
Cu2   O4    S    
Cu1   O7    S    
C1    O2    A    
C18   H15   S    
O11   H13   S    
Cu2   O6    S    
C9    O8    A    
S1    O10   D    
S2    O14   S    
C11   H3    S    
Cu1   O3    S    
C5    C6    S    
C5    N1    D    
Cu2   O2    S    
C17   H19   S    
C10   C17   S    
Cu1   N1    S    
C9    C12   S    
C18   H16   S    
C17   H18   S    
S2    O13   D    
O17   H20   S    
C2    C14   D    
S1    O11   S    
C15   H12   S    
C3    H5    S    
C6    N2    D    
C10   C11   D    
S3    O16   D    
C3    C4    D    
C6    C15   S    
C16   H10   S    
C4    H6    S    
C12   C13   D    
H2    N1    S    
C12   S2    S    
C15   C16   S    
Cu1   O5    S    
N2    S1    S    
Cu2   N2    S    
O14   H14   S    
S2    O12   D    
Cu1   O1    S    
C9    O7    A    
C16   H9    S    
S3    O15   D    
C8    O6    A    
C2    H4    S    
C15   H11   S    
C1    O1    A    
C2    C8    S    
C7    O3    A    
Cu1   Cu2   S    
C14   S3    S    
