data_mof_unit_36040.cif
_audit_creation_date              2012-12-11T16:24:17-0500
_audit_creation_method            fapswitch 2.2
_symmetry_space_group_name_H-M    P1
_symmetry_Int_Tables_number       1
_space_group_crystal_system       triclinic
_cell_length_a                    14.71168
_cell_length_b                    14.725094
_cell_length_c                    33.301457
_cell_angle_alpha                 96.073081
_cell_angle_beta                  96.232236
_cell_angle_gamma                 61.094819
_cell_volume                      6266.27361261

loop_
_atom_site_label
_atom_site_type_symbol
_atom_type_description
_atom_site_fract_x
_atom_site_fract_y
_atom_site_fract_z
_atom_type_partial_charge
Br1   Br    Br    0.509170 0.122016 0.104064 -0.126426
Br2   Br    Br    0.106723 0.505828 0.921112 -0.184560
Br3   Br    Br    0.494834 0.126818 0.665270 -0.191775
Br4   Br    Br    0.911095 0.082195 0.885965 -0.187871
Br5   Br    Br    0.854759 0.123126 0.675037 -0.201706
Br6   Br    Br    0.806313 0.164602 0.577018 -0.203185
Br7   Br    Br    0.840379 0.513116 0.904868 -0.164366
Br8   Br    Br    0.555643 0.155156 0.388586 -0.090633
Br9   Br    Br    0.782362 0.544741 0.710712 -0.103817
Br10  Br    Br    0.500271 0.892582 0.911896 -0.162594
Br11  Br    Br    0.533210 0.851258 0.813416 -0.115874
Br12  Br    Br    0.802144 0.505338 0.071242 -0.213351
Br13  Br    Br    0.161669 0.549116 0.403884 -0.198062
Br14  Br    Br    0.095191 0.496075 0.091491 -0.190698
Br15  Br    Br    0.744463 0.529801 0.165789 -0.202516
Br16  Br    Br    0.545859 0.795894 0.431289 -0.131214
Br17  Br    Br    0.172511 0.779433 0.303727 -0.168401
Br18  Br    Br    0.159846 0.814195 0.161014 -0.186239
Br19  Br    Br    0.548528 0.833836 0.167547 -0.101822
Br20  Br    Br    0.180036 0.575077 0.580915 -0.222486
Br21  Br    Br    0.517859 0.143500 0.570071 -0.219416
C1    C     C_R   0.390804 0.699884 0.445865 0.572462
C2    C     C_1   0.307397 0.351598 0.228977 0.181214
C3    C     C_1   0.312163 0.354925 0.265246 0.133760
C4    C     C_R   0.404824 0.385378 0.434081 0.556029
C5    C     C_R   0.293658 0.299169 0.101493 -0.115020
C6    C     C_R   0.751176 0.376784 0.408528 -0.107251
C7    C     C_R   0.759514 0.449819 0.387041 0.360274
C8    C     C_R   0.779923 0.429040 0.346380 0.367621
C9    C     C_R   0.795284 0.334359 0.326757 -0.095030
C10   C     C_R   0.798206 0.256952 0.348802 0.383017
C11   C     C_R   0.775727 0.278096 0.389509 0.359172
C12   C     C_R   0.325035 0.353429 0.308395 -0.043118
C13   C     C_R   0.818268 0.306964 0.202216 0.398037
C14   C     C_R   0.801077 0.320721 0.282929 0.422912
C15   C     C_R   0.810557 0.392533 0.138923 0.122803
C16   C     C_R   0.700295 0.410330 0.447213 0.586780
C17   C     C_R   0.842991 0.381820 0.099571 0.122434
C18   C     C_R   0.916810 0.194030 0.100103 0.377057
C19   C     C_R   0.881804 0.204912 0.138210 0.413887
C20   C     C_R   0.833685 0.302745 0.158918 -0.061695
C21   C     C_R   0.903204 0.281407 0.081197 -0.072652
C22   C     C_R   0.371467 0.751592 0.407543 -0.080063
C23   C     C_R   0.412509 0.271992 0.326246 0.430144
C24   C     C_R   0.289195 0.756918 0.379962 0.372465
C25   C     C_R   0.285643 0.776432 0.339641 0.130521
C26   C     C_R   0.363434 0.793078 0.326291 -0.066413
C27   C     C_R   0.437804 0.800951 0.354407 0.399441
C28   C     C_R   0.392967 0.702451 0.561153 0.587426
C29   C     C_R   0.442042 0.781089 0.394967 0.136016
C30   C     C_R   0.366800 0.813290 0.202681 0.381356
C31   C     C_R   0.369333 0.798393 0.283041 0.411009
C32   C     C_R   0.260166 0.837145 0.137472 0.135314
C33   C     C_R   0.235348 0.871844 0.098454 -0.125112
C34   C     C_R   0.433815 0.275081 0.368125 0.157540
C35   C     C_R   0.394600 0.883767 0.101079 0.399788
C36   C     C_R   0.420061 0.849420 0.140312 0.175685
C37   C     C_R   0.351077 0.829451 0.159276 -0.039133
C38   C     C_R   0.299390 0.900108 0.080620 -0.045957
C39   C     C_R   0.365326 0.364805 0.583127 -0.020877
C40   C     C_R   0.405684 0.387717 0.548480 0.558936
C41   C     C_R   0.278803 0.444726 0.603060 0.119287
C42   C     C_R   0.260707 0.432007 0.641617 -0.107061
C43   C     C_R   0.325176 0.340913 0.661210 -0.034987
C44   C     C_R   0.403359 0.255545 0.639894 0.175245
C45   C     C_R   0.390438 0.257756 0.167301 0.372182
C46   C     C_R   0.420744 0.266349 0.600296 0.150064
C47   C     C_R   0.301800 0.339121 0.784960 0.411887
C48   C     C_R   0.312094 0.340820 0.704432 0.346498
C49   C     C_R   0.224251 0.411097 0.851632 0.361687
C50   C     C_R   0.217681 0.395500 0.891818 0.116552
C51   C     C_R   0.378379 0.231445 0.887123 0.386067
C52   C     C_R   0.702747 0.412762 0.562595 0.573960
C53   C     C_R   0.383529 0.247361 0.847325 0.373017
C54   C     C_R   0.303797 0.334110 0.828714 -0.064712
C55   C     C_R   0.291168 0.300926 0.908987 -0.111144
C56   C     C_R   0.385795 0.237040 0.125433 0.149845
C57   C     C_R   0.756806 0.379564 0.603077 -0.053790
C58   C     C_R   0.761166 0.455229 0.631875 0.380801
C59   C     C_R   0.786237 0.435109 0.672681 0.167240
C60   C     C_R   0.809291 0.338254 0.685482 -0.074701
C61   C     C_R   0.815474 0.258339 0.656955 0.151258
C62   C     C_R   0.790612 0.278134 0.615573 0.114341
C63   C     C_R   0.868002 0.218309 0.824420 -0.126834
C64   C     C_R   0.367421 0.363427 0.392651 -0.061859
C65   C     C_R   0.892641 0.208238 0.865990 0.127441
C66   C     C_R   0.863186 0.386833 0.873618 0.165824
C67   C     C_R   0.214670 0.391164 0.120357 0.140508
C68   C     C_R   0.838598 0.395102 0.831927 0.429612
C69   C     C_R   0.846082 0.309457 0.807226 -0.035800
C70   C     C_1   0.832970 0.315115 0.764097 0.120098
C71   C     C_1   0.823060 0.323196 0.728131 0.114331
C72   C     C_R   0.900094 0.289559 0.890808 -0.056770
C73   C     C_R   0.374344 0.759296 0.601522 -0.110750
C74   C     C_R   0.278124 0.795697 0.618658 0.370538
C75   C     C_R   0.268449 0.825928 0.659811 0.380349
C76   C     C_R   0.271753 0.438468 0.374311 0.135027
C77   C     C_R   0.353849 0.821572 0.684242 -0.096507
C78   C     C_R   0.221271 0.409858 0.162360 0.367724
C79   C     C_R   0.446740 0.794601 0.666950 0.387292
C80   C     C_R   0.456904 0.764518 0.625761 0.366613
C81   C     C_R   0.407428 0.868104 0.833565 0.128106
C82   C     C_R   0.389894 0.890928 0.875140 0.111365
C83   C     C_R   0.224620 0.889114 0.861438 0.396439
C84   C     C_R   0.243143 0.865665 0.820583 0.412778
C85   C     C_R   0.331670 0.859741 0.806321 -0.076122
C86   C     C_1   0.342172 0.847101 0.763412 0.162951
C87   C     C_1   0.348226 0.836869 0.727348 0.187921
C88   C     C_R   0.252683 0.433712 0.332349 -0.126437
C89   C     C_R   0.306576 0.340760 0.185748 -0.027406
C90   C     C_R   0.293755 0.909296 0.888939 -0.083603
C91   C     C_R   0.962241 0.264583 0.045357 0.582834
C92   C     C_R   0.273525 0.260800 0.059951 0.563383
C93   C     C_R   0.259633 0.959317 0.043835 0.571037
C94   C     C_R   0.959585 0.268883 0.931118 0.558839
C95   C     C_R   0.271358 0.264485 0.945341 0.573816
C96   C     C_R   0.257457 0.963172 0.929121 0.572169
Cr1   Cr    Cr6+3 0.576280 0.580550 0.506370 1.223736
Cr2   Cr    Cr6+3 0.346780 0.572400 0.496520 1.208019
Cr3   Cr    Cr6+3 0.576960 0.347070 0.497150 1.197349
Cr4   Cr    Cr6+3 0.087320 0.083240 0.984860 1.194723
Cr5   Cr    Cr6+3 0.087720 0.316210 0.996740 1.174168
Cr6   Cr    Cr6+3 0.317350 0.090340 0.995890 1.214044
F1    F     F_    0.772691 0.204044 0.409544 -0.492693
F2    F     F_    0.479353 0.190795 0.302600 -0.491138
F3    F     F_    0.149397 0.498110 0.834211 -0.494443
F4    F     F_    0.456433 0.143855 0.903074 -0.492543
F5    F     F_    0.465261 0.175544 0.826394 -0.498223
F6    F     F_    0.735803 0.551381 0.621001 -0.477269
F7    F     F_    0.809642 0.486332 0.815257 -0.513878
F8    F     F_    0.529235 0.792541 0.690342 -0.475266
F9    F     F_    0.549407 0.735432 0.610331 -0.462143
F10   F     F_    0.194489 0.797847 0.596171 -0.479310
F11   F     F_    0.172012 0.852728 0.794495 -0.492059
F12   F     F_    0.781281 0.503071 0.325695 -0.486630
F13   F     F_    0.136327 0.895862 0.873538 -0.491804
F14   F     F_    0.177096 0.854651 0.676232 -0.483693
F15   F     F_    0.142774 0.493968 0.180615 -0.520168
F16   F     F_    0.740753 0.544565 0.404260 -0.486752
F17   F     F_    0.815117 0.163996 0.330209 -0.468647
F18   F     F_    0.969852 0.096170 0.082997 -0.543349
F19   F     F_    0.899524 0.118088 0.155766 -0.488696
F20   F     F_    0.214283 0.738115 0.391386 -0.506879
F21   F     F_    0.475825 0.194399 0.190394 -0.496006
F22   F     F_    0.509932 0.822429 0.341933 -0.481385
F23   F     F_    0.460893 0.905601 0.083896 -0.522924
H1    H     H_    0.162198 0.882919 0.083154 0.235421
H2    H     H_    0.197034 0.495745 0.657059 0.210199
H3    H     H_    0.867818 0.153990 0.805353 0.214628
H4    H     H_    0.182215 0.494104 0.318333 0.214483
N1    N     N_R   0.734771 0.386791 0.219462 -0.136120
N2    N     N_R   0.373842 0.879316 0.269180 -0.090098
N3    N     N_R   0.372089 0.886836 0.229605 -0.141803
N4    N     N_R   0.281734 0.427811 0.768525 -0.096669
N5    N     N_R   0.287017 0.428478 0.728917 -0.181526
N6    N     N_R   0.328082 0.253555 0.720819 -0.135328
N7    N     N_R   0.323592 0.252552 0.760373 -0.128472
N8    N     N_R   0.726688 0.393967 0.259162 -0.124476
N9    N     N_R   0.882872 0.238823 0.265701 -0.108158
N10   N     N_R   0.891379 0.232362 0.226015 -0.105725
N11   N     N_R   0.365394 0.730858 0.216634 -0.135239
N12   N     N_R   0.366920 0.723452 0.256169 -0.157631
O1    O     O_R   0.679450 0.499830 0.463150 -0.425767
O2    O     O_R   0.340240 0.172500 0.045430 -0.444924
O3    O     O_R   0.309670 0.000990 0.032050 -0.429012
O4    O     O_R   0.480650 0.664000 0.464630 -0.482366
O5    O     O_R   0.168330 0.982130 0.939200 -0.415298
O6    O     O_R   0.000140 0.178170 0.944610 -0.465903
O7    O     O_R   0.983010 0.336750 0.948660 -0.456840
O8    O     O_R   0.181800 0.312190 0.959860 -0.476668
O9    O     O_R   0.338500 0.175680 0.956950 -0.413564
O10   O     O_R   0.308050 0.003930 0.950020 -0.474266
O11   O     O_3   0.164130 0.163270 0.992500 -0.333732
O12   O     O_R   0.356040 0.477400 0.534170 -0.468224
O13   O     O_R   0.323930 0.675950 0.455370 -0.406089
O14   O     O_R   0.354700 0.475360 0.451930 -0.461684
O15   O     O_R   0.494470 0.320860 0.448390 -0.453453
O16   O     O_R   0.662580 0.357570 0.460050 -0.441714
O17   O     O_R   0.680900 0.502040 0.551870 -0.400154
O18   O     O_R   0.481990 0.666040 0.546870 -0.436864
O19   O     O_R   0.325370 0.678160 0.544080 -0.419544
O20   O     O_R   0.495910 0.323070 0.537100 -0.455749
O21   O     O_R   0.663920 0.359620 0.542290 -0.479176
O22   O     O_3   0.500010 0.500010 0.500010 -0.346177
O23   O     O_R   0.170070 0.978950 0.027680 -0.476964
O24   O     O_R   0.001760 0.175230 0.026640 -0.433966
O25   O     O_R   0.984760 0.333570 0.037150 -0.454184
O26   O     O_R   0.183410 0.309240 0.041890 -0.469545

loop_
_geom_bond_atom_site_label_1
_geom_bond_atom_site_label_2
_ccdc_geom_bond_type
Br5   C61   S    
C32   C37   A    
C19   F19   S    
Br1   C56   S    
C11   F1    S    
Cr5   O25   S    
C74   C75   A    
C4    O14   A    
C94   O7    A    
C91   O25   A    
C1    O13   A    
C69   C70   S    
C79   F8    S    
C32   C33   A    
Br19  C36   S    
C47   C54   S    
C16   O16   A    
C7    F16   S    
C40   O20   A    
C48   N5    A    
C93   O23   A    
C9    C14   S    
C82   C90   A    
C7    C8    A    
C63   C65   A    
C17   C21   A    
C47   N4    A    
Cr2   O12   S    
C91   O24   A    
C50   C55   A    
C52   O21   A    
C96   O10   A    
C4    O15   A    
C45   F21   S    
C85   C86   S    
C58   F6    S    
C13   N10   A    
C74   F10   S    
C77   C87   S    
C35   C36   A    
C39   C41   A    
Cr2   O19   S    
C45   C56   A    
Cr3   O16   S    
C21   C91   S    
Br18  C32   S    
Cr2   O13   S    
Cr4   O24   S    
C60   C71   S    
C57   C62   A    
C53   F5    S    
C1    C22   S    
C73   C80   A    
Cr4   O11   S    
C44   C46   A    
C75   C77   A    
C2    C3    T    
C10   F17   S    
C78   F15   S    
C81   C85   A    
C49   C50   A    
C28   C73   S    
Cr6   O10   S    
C51   C55   A    
C16   O1    A    
C28   O18   A    
Cr1   O17   S    
C49   F3    S    
C27   C29   A    
Br21  C46   S    
Br20  C41   S    
N9    N10   A    
C15   C20   A    
Br3   C44   S    
C13   C20   S    
C63   C69   A    
Br8   C34   S    
C83   C84   A    
Cr6   O11   S    
C60   C61   A    
C18   C21   A    
C33   C38   A    
Cr4   O5    S    
Br7   C66   S    
Cr1   O1    S    
C48   N6    A    
C53   C54   A    
C51   F4    S    
C81   C82   A    
C5    C56   A    
N1    N8    A    
C18   F18   S    
Br17  C25   S    
C39   C46   A    
C51   C53   A    
C70   C71   T    
C57   C58   A    
Cr5   O8    S    
C24   C25   A    
C78   C89   A    
Cr1   O4    S    
C68   F7    S    
C58   C59   A    
C95   O9    A    
C39   C40   S    
Br9   C59   S    
Cr6   O3    S    
C34   C64   A    
Cr3   O15   S    
C8    C9    A    
C65   C72   A    
Cr2   O14   S    
C76   C88   A    
C42   H2    S    
Cr5   O26   S    
C26   C27   A    
C52   C57   S    
Cr5   O7    S    
C27   F22   S    
C41   C42   A    
C4    C64   S    
C95   O8    A    
C30   C37   S    
C43   C48   S    
C45   C89   A    
C22   C24   A    
N4    N5    A    
C28   O19   A    
C19   C20   A    
C8    F12   S    
C23   F2    S    
C77   C79   A    
C66   C68   A    
C12   C88   A    
C86   C87   T    
Br2   C50   S    
C96   O5    A    
Br12  C17   S    
Br15  C15   S    
C75   F14   S    
Br4   C65   S    
Br13  C76   S    
C93   O3    A    
C24   F20   S    
C2    C89   S    
C25   C26   A    
Br10  C82   S    
Br6   C62   S    
C83   F13   S    
C6    C11   A    
C12   C23   A    
C10   C11   A    
C40   O12   A    
C52   O17   A    
Br16  C29   S    
C59   C60   A    
C83   C90   A    
C13   N1    A    
C22   C29   A    
C26   C31   S    
Cr1   O22   S    
Cr5   O11   S    
C72   C94   S    
C84   C85   A    
C3    C12   S    
C35   C38   A    
C90   C96   S    
C43   C44   A    
C15   C17   A    
C88   H4    S    
C94   O6    A    
C5    C92   S    
Br14  C67   S    
N11   N12   A    
C63   H3    S    
C92   O2    A    
Cr6   O2    S    
C92   O26   A    
C23   C34   A    
C36   C37   A    
C9    C10   A    
C6    C16   S    
C38   C93   S    
C66   C72   A    
C79   C80   A    
C55   C95   S    
C30   N11   A    
Br11  C81   S    
Cr2   O22   S    
Cr4   O6    S    
C35   F23   S    
C73   C74   A    
Cr3   O21   S    
C14   N9    A    
C14   N8    A    
C67   C78   A    
C64   C76   A    
Cr4   O23   S    
C42   C43   A    
C1    O4    A    
C80   F9    S    
C18   C19   A    
N6    N7    A    
N2    N3    A    
C5    C67   A    
C61   C62   A    
C49   C54   A    
Cr3   O22   S    
C84   F11   S    
C30   N3    A    
C68   C69   A    
C31   N2    A    
Cr3   O20   S    
Cr6   O9    S    
C47   N7    A    
C31   N12   A    
C33   H1    S    
C6    C7    A    
Cr1   O18   S    
