data_mof_unit_21964.cif
_audit_creation_date              2012-12-11T15:45:44-0500
_audit_creation_method            fapswitch 2.2
_symmetry_space_group_name_H-M    P1
_symmetry_Int_Tables_number       1
_space_group_crystal_system       triclinic
_cell_length_a                    8.286698
_cell_length_b                    19.041078
_cell_length_c                    22.898228
_cell_angle_alpha                 95.77877
_cell_angle_beta                  89.731052
_cell_angle_gamma                 94.283504
_cell_volume                      3584.64094279

loop_
_atom_site_label
_atom_site_type_symbol
_atom_type_description
_atom_site_fract_x
_atom_site_fract_y
_atom_site_fract_z
_atom_type_partial_charge
Ba1   Ba    Ba6+2 0.850680 0.532880 0.472010 1.680926
Ba2   Ba    Ba6+2 0.339140 0.467180 0.527990 1.654735
C1    C     C_3   0.632365 0.792190 0.318865 0.208396
C2    C     C_R   0.098881 0.558037 0.939313 -0.029225
C3    C     C_R   0.053053 0.555022 0.879501 0.592375
C4    C     C_3   0.095079 0.682831 0.311524 0.320559
C5    C     C_R   0.983138 0.430089 0.877110 0.579639
C6    C     C_R   0.031019 0.431135 0.936601 -0.022021
C7    C     C_R   0.087673 0.495675 0.967955 -0.050578
C8    C     C_R   0.154661 0.622187 0.971335 -0.071806
C9    C     C_R   0.197211 0.624512 0.030578 -0.072650
C10   C     C_R   0.186398 0.562697 0.059836 -0.020122
C11   C     C_R   0.132638 0.497951 0.028276 -0.050945
C12   C     C_3   0.620917 0.718788 0.340403 0.342819
C13   C     C_R   0.023338 0.369118 0.965590 -0.072321
C14   C     C_R   0.070349 0.371173 0.024466 -0.067709
C15   C     C_R   0.124540 0.435471 0.056705 -0.035381
C16   C     C_3   0.065670 0.702777 0.250054 -0.293361
C17   C     C_R   0.170306 0.438711 0.116649 0.595494
C18   C     C_R   0.227342 0.564489 0.119973 0.573810
C19   C     C_2   0.789188 0.469133 0.771307 -0.074088
C20   C     C_3   0.734967 0.478780 0.709565 -0.035719
C21   C     C_1   0.010486 0.512329 0.685497 0.029948
C22   C     C_2   0.058921 0.515033 0.741336 -0.099564
C23   C     C_3   0.471026 0.352624 0.348505 0.683466
C24   C     C_2   0.944038 0.490197 0.787736 0.204669
C25   C     C_R   0.406501 0.538214 0.231424 -0.103263
C26   C     C_R   0.446139 0.545323 0.291228 0.024187
C27   C     C_R   0.189049 0.485412 0.313845 0.025767
C28   C     C_3   0.195614 0.682607 0.595733 0.340067
C29   C     C_R   0.143913 0.479655 0.253659 0.340236
C30   C     C_R   0.254169 0.506966 0.211333 0.132696
C31   C     C_2   0.874361 0.477040 0.667525 -0.271317
C32   C     C_R   0.396115 0.700396 0.473257 -0.299930
C33   C     C_R   0.538255 0.723265 0.503831 0.066112
C34   C     C_3   0.394158 0.313571 0.293036 -0.204059
C35   C     C_R   0.590622 0.795390 0.509880 -0.138925
C36   C     C_R   0.499159 0.845320 0.486073 -0.022071
C37   C     C_R   0.351629 0.821343 0.457412 -0.127566
C38   C     C_R   0.299491 0.749157 0.452127 0.010524
C39   C     C_R   0.533862 0.964580 0.447027 -0.082606
C40   C     C_3   0.201503 0.762887 0.609470 0.225832
C41   C     C_R   0.585377 0.036665 0.453258 -0.072451
C42   C     C_R   0.658385 0.068666 0.505680 0.057846
C43   C     C_R   0.680234 0.026299 0.551468 -0.075005
C44   C     C_R   0.628863 0.954054 0.545197 -0.065461
C45   C     C_3   0.140400 0.321777 0.687238 0.312208
C46   C     C_R   0.554592 0.922223 0.492898 0.058823
C47   C     C_R   0.855287 0.172560 0.540765 -0.120009
C48   C     C_R   0.901834 0.245469 0.545201 0.089940
C49   C     C_R   0.658319 0.266607 0.494476 0.031452
C50   C     C_R   0.610968 0.194191 0.489183 -0.118284
C51   C     C_R   0.708161 0.146093 0.512713 -0.019864
C52   C     C_3   0.992838 0.317251 0.403907 0.302918
C53   C     C_R   0.799704 0.292034 0.524334 -0.253490
C54   C     C_3   0.975438 0.237542 0.387690 -0.378398
C55   C     C_3   0.706019 0.628784 0.648040 0.300534
C56   C     C_3   0.160357 0.303374 0.749765 -0.322903
C57   C     C_3   0.743150 0.658002 0.711315 -0.350951
C58   C     C_3   0.597024 0.287286 0.667945 0.649873
C59   C     C_3   0.535518 0.213206 0.681779 -0.337900
C60   C     C_R   0.336108 0.520660 0.331831 -0.360171
H1    H     H_    0.689716 0.722035 0.382283 0.024523
H2    H     H_    0.616409 0.582373 0.647372 0.042983
H3    H     H_    0.760618 0.809206 0.309531 0.062483
H4    H     H_    0.826333 0.706629 0.712156 0.147339
H5    H     H_    0.802205 0.619001 0.735027 0.071440
H6    H     H_    0.629417 0.671116 0.734382 0.138613
H7    H     H_    0.491257 0.703247 0.348400 -0.044532
H8    H     H_    0.588633 0.830558 0.354008 0.038815
H9    H     H_    0.371526 0.375661 0.375078 -0.056533
H10   H     H_    0.305860 0.270459 0.304651 0.063976
H11   H     H_    0.329951 0.350650 0.268606 0.085374
H12   H     H_    0.232312 0.789488 0.569472 -0.043512
H13   H     H_    0.488563 0.290220 0.264178 0.125938
H14   H     H_    0.057108 0.654337 0.218733 0.113442
H15   H     H_    0.252045 0.350100 0.673730 0.111182
H16   H     H_    0.040086 0.356988 0.686211 0.044855
H17   H     H_    0.259417 0.267753 0.752305 0.129238
H18   H     H_    0.190500 0.352563 0.779168 0.118906
H19   H     H_    0.046569 0.276503 0.764889 0.147202
H20   H     H_    0.558283 0.291570 0.622186 0.054254
H21   H     H_    0.596008 0.172793 0.652823 0.094941
H22   H     H_    0.403194 0.204910 0.673808 0.108550
H23   H     H_    0.079921 0.778319 0.624058 0.089205
H24   H     H_    0.012417 0.635855 0.318292 0.087206
H25   H     H_    0.561063 0.206026 0.728297 0.118156
H26   H     H_    0.062508 0.322125 0.044869 0.128114
H27   H     H_    0.981127 0.318543 0.942746 0.123792
H28   H     H_    0.238454 0.675180 0.053493 0.127775
H29   H     H_    0.494346 0.557153 0.200397 0.117981
H30   H     H_    0.164792 0.671100 0.950738 0.129865
H31   H     H_    0.180764 0.535642 0.753830 0.129866
H32   H     H_    0.700681 0.453353 0.803512 0.101574
H33   H     H_    0.368987 0.525788 0.377822 0.083715
H34   H     H_    0.873681 0.336034 0.416569 0.017183
H35   H     H_    0.222585 0.669155 0.314820 -0.028171
H36   H     H_    0.870252 0.440515 0.627875 0.088794
H37   H     H_    0.499941 0.175591 0.465986 0.076962
H38   H     H_    0.569439 0.067244 0.416598 0.068263
H39   H     H_    0.479451 0.941806 0.405872 0.077780
H40   H     H_    0.701773 0.812338 0.533569 0.085476
H41   H     H_    0.733927 0.049354 0.592679 0.073501
H42   H     H_    0.644420 0.923440 0.581858 0.070790
H43   H     H_    0.935248 0.136772 0.557465 0.077938
H44   H     H_    0.274770 0.858665 0.441170 0.084281
H45   H     H_    0.078977 0.329200 0.441147 0.047332
H46   H     H_    0.835919 0.348101 0.527807 0.055188
H47   H     H_    0.950177 0.728463 0.248216 0.132233
H48   H     H_    0.354632 0.644883 0.469645 0.070772
H49   H     H_    0.166235 0.739836 0.237041 0.162025
H50   H     H_    0.318090 0.666490 0.584414 -0.021962
H51   H     H_    0.112921 0.667432 0.557830 0.000267
H52   H     H_    0.422296 0.786664 0.635726 0.305358
H53   H     H_    0.593339 0.442119 0.366466 0.305697
H54   H     H_    0.597064 0.771727 0.235130 0.330640
H55   H     H_    0.795008 0.293663 0.713077 0.312098
H56   H     H_    0.886378 0.224297 0.351426 0.146483
H57   H     H_    0.960523 0.463555 0.200371 0.313441
H58   H     H_    0.933433 0.209835 0.425739 0.051359
H59   H     H_    0.094093 0.218364 0.373453 0.113683
H60   H     H_    0.819489 0.612774 0.626875 0.011931
N1    N     N_R   0.995486 0.491548 0.848932 -0.426470
N2    N     N_R   0.214930 0.503213 0.148562 -0.432868
O1    O     O_2   0.896730 0.461690 0.361000 -0.390324
O2    O     O_2   0.240174 0.249862 0.544942 -0.499673
O3    O     O_3   0.110658 0.259798 0.649370 -0.594342
O4    O     O_3   0.137170 0.462400 0.432040 -0.510768
O5    O     O_3   0.560670 0.583970 0.528500 -0.484640
O6    O     O_2   0.373560 0.329680 0.473470 -0.473200
O7    O     O_3   0.552913 0.304249 0.377695 -0.649466
O8    O     O_2   0.403664 0.457637 0.706457 -0.513094
O9    O     O_3   0.531277 0.338385 0.708303 -0.627493
O10   O     O_2   0.061950 0.609257 0.854932 -0.584808
O11   O     O_2   0.930788 0.374344 0.850393 -0.612686
O12   O     O_3   0.641636 0.682051 0.619812 -0.634666
O13   O     O_2   0.170964 0.384018 0.140326 -0.562386
O14   O     O_2   0.274010 0.620949 0.146885 -0.607406
O15   O     O_3   0.657500 0.588540 0.395070 -0.497705
O16   O     O_2   0.782168 0.542293 0.292022 -0.437510
O17   O     O_3   0.049449 0.349001 0.354717 -0.609989
O18   O     O_3   0.688281 0.670578 0.298318 -0.623840
O19   O     O_2   0.816140 0.670340 0.526560 -0.468689
O20   O     O_3   0.069580 0.624410 0.423530 -0.502787
O21   O     O_2   0.965257 0.750548 0.461133 -0.489830
O22   O     O_3   0.313760 0.785571 0.654296 -0.679733
O23   O     O_3   0.063061 0.739941 0.352544 -0.596954
O24   O     O_3   0.582051 0.406018 0.332172 -0.709503
O25   O     O_3   0.535333 0.792736 0.268939 -0.706405
O26   O     O_3   0.766027 0.294131 0.671102 -0.781744
O27   O     O_3   0.993273 0.447716 0.238118 -0.651152
O28   O     O_2   0.292960 0.538340 0.639040 -0.455591
O29   O     O_3   0.052540 0.537650 0.567960 -0.496283
O30   O     O_3   0.532200 0.411510 0.604930 -0.479398
O31   O     O_3   0.140256 0.651129 0.645406 -0.612711
O32   O     O_3   0.629030 0.416090 0.471500 -0.484436
O33   O     O_3   0.120120 0.375640 0.576470 -0.503215
P1    P     P_3+3 0.067040 0.441110 0.370020 1.067420
P2    P     P_3+3 0.640420 0.660110 0.543790 0.983851
P3    P     P_3+3 0.098813 0.716505 0.423017 0.940637
P4    P     P_3+3 0.122660 0.558950 0.629980 1.000301
P5    P     P_3+3 0.095692 0.282907 0.577526 0.965524
P6    P     P_3+3 0.643735 0.585188 0.318575 0.981074
P7    P     P_3+3 0.554728 0.327833 0.453776 0.941928
P8    P     P_3+3 0.554335 0.421898 0.681645 0.949229

loop_
_geom_bond_atom_site_label_1
_geom_bond_atom_site_label_2
_ccdc_geom_bond_type
C37   H44   S    
C19   C24   D    
C12   O18   S    
C48   P5    S    
C39   C41   A    
C30   N2    S    
Ba1   O4    S    
O4    P1    S    
C5    C6    A    
C43   C44   A    
O31   P4    S    
O16   P6    D    
C52   H45   S    
C32   C38   A    
Ba1   P1    S    
C33   C35   A    
Ba1   O1    S    
Ba1   Ba2   S    
Ba1   O5    S    
C57   H4    S    
C26   C60   A    
C35   H40   S    
C55   C57   S    
C19   H32   S    
C13   C14   A    
Ba2   O5    S    
C32   C33   A    
C18   O14   D    
C7    C11   A    
C43   H41   S    
C57   H5    S    
C55   H60   S    
O12   P2    S    
C58   H20   S    
C42   C51   S    
C31   H36   S    
C14   C15   A    
C21   C31   D    
C16   H14   S    
C21   C22   D    
C16   H47   S    
C55   O12   S    
C25   H29   S    
H55   O26   S    
C23   H9    S    
O20   P3    S    
C59   H25   S    
C52   H34   S    
O28   P4    D    
Ba1   O15   S    
C56   H18   S    
O3    P5    S    
C8    H30   S    
Ba2   O30   S    
C19   C20   S    
H57   O27   S    
C54   H58   S    
C1    H3    S    
O23   P3    S    
Ba2   P4    S    
H54   O25   S    
C36   C46   S    
C44   C46   A    
Ba2   O28   S    
C3    O10   D    
C4    C16   S    
C52   C54   S    
C17   N2    Am   
C1    O25   S    
C40   H12   S    
C49   C50   A    
C4    H35   S    
Ba1   P2    S    
C1    H8    S    
C41   H38   S    
H52   O22   S    
C59   H21   S    
C56   H19   S    
O18   P6    S    
O21   P3    D    
Ba2   O6    S    
O1    P1    D    
C6    C7    A    
C47   H43   S    
C44   H42   S    
H53   O24   S    
O29   P4    S    
C58   C59   S    
Ba1   O32   S    
C41   C42   A    
C5    O11   D    
C35   C36   A    
Ba1   O19   S    
C34   H13   S    
O9    P8    S    
C57   H6    S    
C13   H27   S    
C29   O27   S    
C29   C30   A    
C20   P8    S    
C17   O13   D    
C10   C18   A    
C49   P7    S    
O30   P8    S    
C40   H23   S    
C58   O26   S    
O8    P8    D    
Ba1   O29   S    
C1    C12   S    
C56   H17   S    
C28   O31   S    
C6    C13   A    
C8    C9    A    
C32   H48   S    
C12   H7    S    
C24   N1    S    
C45   H15   S    
C2    C8    A    
C16   H49   S    
C23   O7    S    
O5    P2    S    
C50   C51   A    
C55   H2    S    
O6    P7    D    
C20   C31   S    
C27   C60   A    
Ba2   O32   S    
C25   C30   A    
C54   H56   S    
C38   P3    S    
C42   C43   A    
C22   C24   S    
C5    N1    Am   
C2    C3    A    
C59   H22   S    
C9    C10   A    
C45   O3    S    
C27   P1    S    
Ba2   O29   S    
C3    N1    Am   
C50   H37   S    
C48   C53   A    
C4    H24   S    
C11   C15   A    
C53   H46   S    
C54   H59   S    
O15   P6    S    
C27   C29   A    
Ba1   O20   S    
O2    P5    D    
C22   H31   S    
C45   C56   S    
C4    O23   S    
C9    H28   S    
C36   C37   A    
O7    P7    S    
Ba2   O33   S    
C47   C51   A    
C12   H1    S    
O33   P5    S    
C15   C17   A    
C39   C46   A    
C39   H39   S    
C23   O24   S    
C49   C53   A    
O19   P2    D    
C33   P2    S    
C18   N2    Am   
C34   H11   S    
C23   C34   S    
C37   C38   A    
O17   P1    S    
C52   O17   S    
C10   C11   A    
O32   P7    S    
C47   C48   A    
C28   H50   S    
C25   C26   A    
C14   H26   S    
C28   C40   S    
C45   H16   S    
C2    C7    A    
C60   H33   S    
C58   O9    S    
C34   H10   S    
C26   P6    S    
Ba2   O4    S    
C21   P4    S    
C28   H51   S    
C40   O22   S    
