data_mof_unit_42860.cif
_audit_creation_date              2012-12-10T17:09:31-0500
_audit_creation_method            fapswitch 2.2
_symmetry_space_group_name_H-M    P1
_symmetry_Int_Tables_number       1
_space_group_crystal_system       triclinic
_cell_length_a                    10.50895
_cell_length_b                    10.726896
_cell_length_c                    10.227663
_cell_angle_alpha                 91.250235
_cell_angle_beta                  87.346516
_cell_angle_gamma                 91.821919
_cell_volume                      1150.89073386

loop_
_atom_site_label
_atom_site_type_symbol
_atom_type_description
_atom_site_fract_x
_atom_site_fract_y
_atom_site_fract_z
_atom_type_partial_charge
C1    C     C_R   0.498649 0.263150 0.498003 0.935821
C2    C     C_3   0.970711 0.481344 0.376223 -0.028476
C3    C     C_3   0.045511 0.387185 0.451709 -0.244967
C4    C     C_3   0.123045 0.496422 0.508358 -0.096770
C5    C     C_2   0.477811 0.929375 0.398627 -0.366900
C6    C     C_2   0.452315 0.862820 0.506376 0.184091
C7    C     C_2   0.456243 0.060102 0.395152 0.435867
C8    C     C_2   0.505248 0.130975 0.491576 -0.302088
C9    C     C_2   0.577549 0.558341 0.931382 -0.119429
C10   C     C_2   0.596037 0.510382 0.063429 0.412331
C11   C     C_R   0.258139 0.498789 0.502829 0.879196
C12   C     C_R   0.490755 0.735975 0.501954 0.815960
C13   C     C_R   0.742101 0.496842 0.497672 0.924285
C14   C     C_3   0.032037 0.507188 0.629144 -0.143765
C15   C     C_3   0.951697 0.399681 0.570187 0.368794
C16   C     C_3   0.877861 0.492744 0.495328 -0.092248
C17   C     C_3   0.956590 0.601785 0.553431 -0.215724
C18   C     C_3   0.050617 0.590842 0.433463 -0.163696
H1    H     H_    0.555500 0.088987 0.569174 0.200542
H2    H     H_    0.422222 0.547872 0.122054 0.183242
H3    H     H_    0.060477 0.516817 0.732159 0.225660
H4    H     H_    0.917290 0.690220 0.593670 0.200459
H5    H     H_    0.094988 0.670185 0.378140 0.191294
H6    H     H_    0.955653 0.463757 0.271569 0.265405
H7    H     H_    0.082720 0.297729 0.412659 0.229717
H8    H     H_    0.524923 0.889198 0.311391 0.193180
N1    N     N_2   0.501360 0.501330 0.852150 0.013313
N2    N     N_2   0.501400 0.501360 0.147810 -0.179579
O1    O     O_R   0.499980 0.319060 0.613040 -0.531604
O2    O     O_R   0.500020 0.319100 0.386900 -0.549931
O3    O     O_R   0.313930 0.499950 0.613050 -0.572283
O4    O     O_R   0.313970 0.499990 0.386910 -0.597826
O5    O     O_R   0.499980 0.680900 0.613100 -0.543703
O6    O     O_R   0.500020 0.680940 0.386960 -0.647399
O7    O     O_R   0.686030 0.500010 0.613090 -0.565155
O8    O     O_R   0.686070 0.500050 0.386950 -0.543564
Zn1   Zn    Zn3+2 0.499970 0.499970 0.650990 1.158059
Zn2   Zn    Zn3+2 0.500030 0.500030 0.349010 1.103114
S1    S     S_3+6 0.887443 0.266439 0.654879 0.092608
O9    O     O_2   0.784686 0.304614 0.753124 -0.180521
O10   O     O_2   0.832057 0.174512 0.558460 -0.308053
O11   O     O_3   0.003812 0.199400 0.733138 -0.443289
H9    H     H_    0.072531 0.186297 0.665123 0.371131
C19   C     C_2   0.650698 0.674153 0.894374 0.991601
O12   O     O_2   0.679664 0.749810 0.980022 -0.569030
O13   O     O_R   0.689055 0.697372 0.764926 -0.751705
H10   H     H_    0.737964 0.779831 0.754444 0.353006
S2    S     S_3+6 0.418103 0.362926 0.897408 0.183818
O14   O     O_2   0.512889 0.263544 0.915930 -0.202407
O15   O     O_2   0.334030 0.376845 0.019096 -0.258330
O16   O     O_3   0.319057 0.314383 0.781122 -0.485799
H11   H     H_    0.293975 0.227317 0.803393 0.410648
S3    S     S_3+6 0.751894 0.476601 0.100544 0.088137
O17   O     O_2   0.831981 0.455652 0.976960 -0.244095
O18   O     O_2   0.806008 0.588610 0.171904 -0.281130
O19   O     O_3   0.752835 0.348242 0.192030 -0.521555
H12   H     H_    0.717768 0.280280 0.135901 0.401517
S4    S     S_3+6 0.353631 0.913162 0.643300 0.061684
O20   O     O_2   0.436279 0.963113 0.749697 -0.218779
O21   O     O_2   0.265489 0.012855 0.606006 -0.301964
O22   O     O_3   0.265678 0.791336 0.702076 -0.489803
H13   H     H_    0.209461 0.765810 0.630480 0.338371
S5    S     S_3+6 0.375286 0.112512 0.259512 0.125487
O23   O     O_2   0.279300 0.207334 0.302830 -0.251395
O24   O     O_2   0.470637 0.170755 0.163598 -0.229107
O25   O     O_3   0.299406 0.991576 0.185949 -0.471455
H14   H     H_    0.366231 0.949226 0.131608 0.375189

loop_
_geom_bond_atom_site_label_1
_geom_bond_atom_site_label_2
_ccdc_geom_bond_type
N1    S2    S    
S5    O24   D    
O4    Zn2   S    
C5    H8    S    
C2    C18   S    
C1    C8    S    
C2    C16   S    
C9    C10   S    
C6    S4    S    
C2    H6    S    
C17   H4    S    
N2    Zn2   S    
C4    C18   S    
S4    O22   S    
S2    O15   D    
O25   H14   S    
C12   O5    A    
S5    O25   S    
C11   O3    A    
C7    C8    D    
S1    O10   D    
O13   H10   S    
S3    O17   D    
O19   H12   S    
C4    C11   S    
C6    C12   S    
C14   C17   S    
C15   S1    S    
C5    C6    D    
N1    Zn1   S    
C14   H3    S    
C1    O1    A    
S2    O14   D    
O7    Zn1   S    
C19   O13   S    
C11   O4    A    
C13   O7    A    
S1    O11   S    
C2    C3    S    
S3    O18   D    
C4    C14   S    
O22   H13   S    
S3    O19   S    
C8    H1    S    
O1    Zn1   S    
C15   C16   S    
S4    O21   D    
C18   H5    S    
C16   C17   S    
O3    Zn1   S    
C3    H7    S    
O8    Zn2   S    
C19   O12   D    
C9    N1    D    
C13   O8    A    
C17   C18   S    
C7    S5    S    
C13   C16   S    
C10   N2    D    
S1    O9    D    
C5    C7    S    
C10   S3    S    
C14   C15   S    
C1    O2    A    
C3    C15   S    
H2    N2    S    
O2    Zn2   S    
S4    O20   D    
O6    Zn2   S    
C12   O6    A    
S2    O16   S    
O5    Zn1   S    
C3    C4    S    
O16   H11   S    
O11   H9    S    
S5    O23   D    
C9    C19   S    
