data_mof_unit_33035.cif
_audit_creation_date              2012-12-10T18:05:14-0500
_audit_creation_method            fapswitch 2.2
_symmetry_space_group_name_H-M    P1
_symmetry_Int_Tables_number       1
_space_group_crystal_system       triclinic
_cell_length_a                    9.505945
_cell_length_b                    10.829881
_cell_length_c                    17.105232
_cell_angle_alpha                 89.442609
_cell_angle_beta                  93.501486
_cell_angle_gamma                 90.161962
_cell_volume                      1757.57886215

loop_
_atom_site_label
_atom_site_type_symbol
_atom_type_description
_atom_site_fract_x
_atom_site_fract_y
_atom_site_fract_z
_atom_type_partial_charge
C1    C     C_R   0.499860 0.262035 0.500116 0.790907
C2    C     C_R   0.500135 0.737967 0.499804 0.792130
C3    C     C_R   0.372058 0.935817 0.498288 -0.189138
C4    C     C_R   0.627945 0.064201 0.501394 -0.193584
C5    C     C_R   0.500140 0.871800 0.499663 -0.016736
C6    C     C_R   0.499861 0.128210 0.500080 -0.012972
C7    C     C_R   0.080980 0.422134 0.549685 0.580603
C8    C     C_R   0.919509 0.575796 0.449387 0.566511
C9    C     C_R   0.930016 0.424692 0.549816 -0.252024
C10   C     C_R   0.069967 0.576529 0.451066 -0.240721
C11   C     C_R   0.517082 0.497186 0.650939 0.832965
C12   C     C_R   0.482782 0.500584 0.349076 0.828110
C13   C     C_R   0.526204 0.492350 0.736760 -0.098078
C14   C     C_R   0.472704 0.497624 0.263298 -0.091787
C15   C     C_R   0.402886 0.493735 0.777512 -0.221361
C16   C     C_R   0.593643 0.477879 0.222472 -0.242811
C17   C     C_R   0.410585 0.488974 0.858719 -0.180152
C18   C     C_R   0.584912 0.475646 0.141263 -0.173644
C19   C     C_R   0.542646 0.482968 0.901096 0.268619
C20   C     C_R   0.453817 0.491758 0.098986 0.274646
C21   C     C_R   0.666678 0.480352 0.860262 0.327044
C22   C     C_R   0.331529 0.508733 0.139983 0.329017
C23   C     C_R   0.657782 0.484916 0.778430 -0.293760
C24   C     C_R   0.341794 0.512444 0.221771 -0.303561
C25   C     C_R   0.371930 0.063530 0.498507 -0.181554
C26   C     C_R   0.628070 0.936482 0.501069 -0.169808
Cu1   Cu    Cu3+1 0.640660 0.500020 0.500000 0.981901
Cu2   Cu    Cu3+1 0.359340 0.499980 0.500000 0.985896
H1    H     H_    0.695302 0.463425 0.253242 0.177772
H2    H     H_    0.300005 0.498692 0.746721 0.198416
H3    H     H_    0.681164 0.461089 0.111921 0.234435
H4    H     H_    0.312785 0.490237 0.888006 0.233700
H5    H     H_    0.753478 0.482601 0.747260 0.193367
H6    H     H_    0.247681 0.527103 0.253042 0.189459
H7    H     H_    0.271849 0.111311 0.497333 0.152474
H8    H     H_    0.728145 0.888698 0.502036 0.168660
H9    H     H_    0.271996 0.887512 0.496997 0.148986
H10   H     H_    0.728005 0.112514 0.502692 0.147022
H11   H     H_    0.873296 0.368286 0.589655 0.161528
H12   H     H_    0.125407 0.638686 0.413948 0.158085
N1    N     N_2   0.554838 0.480193 0.984197 -0.185424
N2    N     N_2   0.441156 0.492450 0.015866 -0.181646
N3    N     N_R   0.852070 0.500030 0.499980 -0.204158
N4    N     N_R   0.147930 0.499970 0.500020 -0.205614
O1    O     O_R   0.618740 0.319660 0.500000 -0.598429
O2    O     O_R   0.381260 0.680340 0.500000 -0.597637
O3    O     O_R   0.381170 0.319630 0.500010 -0.550098
O4    O     O_R   0.618830 0.680370 0.499990 -0.539607
O5    O     O_R   0.631780 0.498870 0.613920 -0.594936
O6    O     O_R   0.368220 0.501130 0.386080 -0.592501
O7    O     O_R   0.394210 0.498840 0.613930 -0.535641
O8    O     O_R   0.605790 0.501160 0.386070 -0.553922
S1    S     S_3+6 0.833785 0.471583 0.911416 0.057993
O9    O     O_2   0.847935 0.347431 0.951028 -0.218151
O10   O     O_2   0.950702 0.487726 0.856822 -0.305017
O11   O     O_3   0.846757 0.581558 0.980205 -0.430694
H13   H     H_    0.836632 0.660551 0.950756 0.345981
S2    S     S_3+6 0.164987 0.525944 0.089139 0.058430
O12   O     O_2   0.140130 0.418874 0.034783 -0.167077
O13   O     O_2   0.048694 0.529885 0.144823 -0.308464
O14   O     O_3   0.163820 0.657071 0.035721 -0.474218
H14   H     H_    0.179319 0.723738 0.074563 0.334390
O15   O     O_3   0.166482 0.350042 0.601217 -0.577649
C27   C     C_3   0.099909 0.245558 0.632914 -0.027342
H15   H     H_    0.180299 0.171437 0.640426 0.176705
H16   H     H_    0.015268 0.205820 0.592769 0.116539
C28   C     C_3   0.049717 0.275094 0.714234 -0.324780
H17   H     H_    0.142941 0.289206 0.755684 0.241304
H18   H     H_    0.987711 0.361862 0.712262 0.229736
C29   C     C_3   0.959264 0.170973 0.744954 -0.830798
H19   H     H_    0.863180 0.158095 0.705520 0.240687
H20   H     H_    0.926481 0.194531 0.804203 0.295987
H21   H     H_    0.019970 0.083414 0.748951 0.253426
O16   O     O_3   0.838234 0.658510 0.403334 -0.587987
C30   C     C_3   0.885061 0.673366 0.326711 0.034979
H22   H     H_    0.791228 0.666901 0.285031 0.182976
H23   H     H_    0.958223 0.599578 0.309204 0.141873
C31   C     C_3   0.949073 0.802225 0.317084 -0.391470
H24   H     H_    0.865332 0.872760 0.321775 0.230492
H25   H     H_    0.031752 0.819790 0.364351 0.208125
C32   C     C_3   0.013593 0.816568 0.237956 -0.817930
H26   H     H_    0.102219 0.750784 0.233758 0.258923
H27   H     H_    0.054822 0.911938 0.231637 0.252578
H28   H     H_    0.932948 0.799195 0.189514 0.279501

loop_
_geom_bond_atom_site_label_1
_geom_bond_atom_site_label_2
_ccdc_geom_bond_type
Cu1   O4    S    
Cu2   O3    S    
N1    N2    D    
C8    N3    A    
C32   H26   S    
S1    O9    D    
C2    O2    A    
C20   N2    S    
Cu2   O2    S    
C19   C21   A    
Cu2   O7    S    
C31   H25   S    
C6    C25   A    
S2    O13   D    
C9    H11   S    
O11   H13   S    
C13   C23   A    
C10   H12   S    
C14   C24   A    
C32   H27   S    
Cu2   O6    S    
C23   H5    S    
C29   H19   S    
C18   C20   A    
Cu1   O1    S    
S2    O14   S    
C12   O8    A    
C7    C9    A    
S1    O10   D    
C9    N3    A    
O16   C30   S    
C10   N4    A    
C28   H17   S    
C27   C28   S    
C3    C25   A    
C4    C6    A    
C31   H24   S    
C1    O3    A    
C2    O4    A    
C16   H1    S    
Cu2   N4    S    
C24   H6    S    
C1    C6    S    
C28   H18   S    
C27   H16   S    
C30   H22   S    
C11   O5    A    
C4    C26   A    
C29   H21   S    
C8    O16   S    
C19   N1    S    
C16   C18   A    
C7    N4    A    
C30   H23   S    
C7    O15   S    
C25   H7    S    
C26   H8    S    
C12   C14   S    
C13   C15   A    
C14   C16   A    
C2    C5    S    
C32   H28   S    
Cu1   O8    S    
C15   H2    S    
S1    O11   S    
C15   C17   A    
C20   C22   A    
O15   C27   S    
C3    C5    A    
C22   S2    S    
C12   O6    A    
C28   C29   S    
C27   H15   S    
C21   C23   A    
S2    O12   D    
C21   S1    S    
C11   C13   S    
C31   C32   S    
C1    O1    A    
C17   C19   A    
C22   C24   A    
O14   H14   S    
C30   C31   S    
C11   O7    A    
C5    C26   A    
Cu1   N3    S    
C3    H9    S    
C8    C10   A    
Cu1   Cu2   S    
C17   H4    S    
C29   H20   S    
C18   H3    S    
C4    H10   S    
Cu1   O5    S    
