data_mof_unit_51182.cif
_audit_creation_date              2012-12-10T17:00:00-0500
_audit_creation_method            fapswitch 2.2
_symmetry_space_group_name_H-M    P1
_symmetry_Int_Tables_number       1
_space_group_crystal_system       triclinic
_cell_length_a                    15.059658
_cell_length_b                    15.12697
_cell_length_c                    10.026751
_cell_angle_alpha                 89.096539
_cell_angle_beta                  91.470873
_cell_angle_gamma                 89.460326
_cell_volume                      2283.01724927

loop_
_atom_site_label
_atom_site_type_symbol
_atom_type_description
_atom_site_fract_x
_atom_site_fract_y
_atom_site_fract_z
_atom_type_partial_charge
C1    C     C_R   0.378236 0.884247 0.498947 0.967605
C2    C     C_R   0.381048 0.118868 0.497644 0.944783
C3    C     C_R   0.881767 0.380833 0.498863 0.969050
C4    C     C_R   0.880816 0.618604 0.497535 0.961082
C5    C     C_R   0.622335 0.115159 0.500507 0.865744
C6    C     C_R   0.613547 0.876159 0.502465 0.872118
C7    C     C_R   0.118573 0.618909 0.500121 0.889653
C8    C     C_R   0.113512 0.376062 0.502006 0.868328
C9    C     C_2   0.671524 0.741300 0.409741 0.362828
C10   C     C_2   0.736014 0.197581 0.389279 0.393199
C11   C     C_2   0.177634 0.247017 0.400432 0.384095
C12   C     C_2   0.190675 0.740117 0.395988 0.334454
C13   C     C_2   0.663639 0.795517 0.513089 0.277927
C14   C     C_2   0.701796 0.166168 0.502768 0.272917
C15   C     C_2   0.161885 0.294166 0.509594 0.273758
C16   C     C_2   0.187747 0.681930 0.498172 0.274870
C17   C     C_2   0.242186 0.174399 0.409666 0.425558
C18   C     C_2   0.266307 0.797726 0.383877 0.425817
C19   C     C_2   0.737974 0.669986 0.417872 0.425967
C20   C     C_2   0.809960 0.258132 0.394203 0.415133
C21   C     C_2   0.314339 0.185463 0.488596 -0.361731
C22   C     C_2   0.298064 0.834605 0.495772 -0.357923
C23   C     C_2   0.813353 0.684381 0.488346 -0.363785
C24   C     C_2   0.813313 0.317200 0.492820 -0.407756
C25   C     C_2   0.558912 0.038617 0.928556 0.552032
C26   C     C_2   0.072344 0.498256 0.926947 0.565797
C27   C     C_2   0.569902 0.015181 0.075595 0.540144
C28   C     C_2   0.071280 0.485096 0.077493 0.491308
H1    H     H_    0.328271 0.246889 0.539449 0.150773
H2    H     H_    0.261461 0.831189 0.587846 0.155399
H3    H     H_    0.829378 0.747747 0.531770 0.145731
H4    H     H_    0.761377 0.323419 0.565333 0.172360
H5    H     H_    0.466933 0.948807 0.894989 0.155947
H6    H     H_    0.942415 0.484331 0.895908 0.161985
N1    N     N_2   0.501330 0.000000 0.852150 -0.220082
N2    N     N_2   0.001330 0.500000 0.852150 -0.222957
N3    N     N_2   0.501360 0.000000 0.147810 0.088854
N4    N     N_2   0.001360 0.500000 0.147810 0.064826
O1    O     O_R   0.409520 0.909540 0.613040 -0.636314
O2    O     O_R   0.409520 0.090460 0.613040 -0.590365
O3    O     O_R   0.909520 0.409540 0.613040 -0.628847
O4    O     O_R   0.909520 0.590460 0.613040 -0.611111
O5    O     O_R   0.409560 0.909540 0.386900 -0.547942
O6    O     O_R   0.409560 0.090460 0.386900 -0.582359
O7    O     O_R   0.909560 0.409540 0.386900 -0.612163
O8    O     O_R   0.909560 0.590460 0.386900 -0.559831
O9    O     O_R   0.590440 0.090460 0.613100 -0.519210
O10   O     O_R   0.590440 0.909540 0.613100 -0.586406
O11   O     O_R   0.090440 0.590460 0.613100 -0.551074
O12   O     O_R   0.090440 0.409540 0.613100 -0.532337
O13   O     O_R   0.590480 0.090460 0.386960 -0.558240
O14   O     O_R   0.590480 0.909540 0.386960 -0.585223
O15   O     O_R   0.090480 0.590460 0.386960 -0.603990
O16   O     O_R   0.090480 0.409540 0.386960 -0.560788
Zn1   Zn    Zn3+2 0.499970 0.000000 0.650990 1.050532
Zn2   Zn    Zn3+2 0.999970 0.500000 0.650990 1.053986
Zn3   Zn    Zn3+2 0.500030 0.000000 0.349010 1.117091
Zn4   Zn    Zn3+2 0.000030 0.500000 0.349010 1.081637
F1    F     F_    0.621136 0.753566 0.296260 -0.705280
F2    F     F_    0.700547 0.178111 0.267201 -0.646094
F3    F     F_    0.140782 0.270009 0.279293 -0.659665
F4    F     F_    0.125189 0.744345 0.299680 -0.694001
F5    F     F_    0.695952 0.771922 0.637211 -0.681740
F6    F     F_    0.744457 0.175475 0.623307 -0.664766
F7    F     F_    0.186296 0.263001 0.633809 -0.653124
F8    F     F_    0.253535 0.673899 0.593616 -0.671302
O17   O     O_3   0.224710 0.092292 0.354454 -0.650985
C29   C     C_3   0.214194 0.098003 0.213976 0.185240
H7    H     H_    0.259431 0.048224 0.171365 0.186412
H8    H     H_    0.233527 0.162772 0.169119 0.191177
C30   C     C_3   0.118794 0.074572 0.172933 -0.370652
H9    H     H_    0.103572 0.007188 0.211190 0.223422
H10   H     H_    0.071566 0.121754 0.217610 0.278696
C31   C     C_3   0.105514 0.076877 0.021537 -0.891309
H11   H     H_    0.117221 0.144566 0.981572 0.304591
H12   H     H_    0.036339 0.057812 0.994983 0.259454
H13   H     H_    0.151866 0.029684 0.974846 0.266307
O18   O     O_3   0.314190 0.797640 0.267230 -0.619196
C32   C     C_3   0.266634 0.841658 0.161780 0.154509
H14   H     H_    0.307757 0.897571 0.127594 0.201892
H15   H     H_    0.201427 0.870695 0.189840 0.153559
C33   C     C_3   0.253376 0.778599 0.045331 -0.317558
H16   H     H_    0.318837 0.751456 0.016302 0.240482
H17   H     H_    0.211163 0.722653 0.076589 0.250507
C34   C     C_3   0.209301 0.825432 0.924646 -0.890680
H18   H     H_    0.143014 0.851850 0.950791 0.267622
H19   H     H_    0.200521 0.777833 0.842249 0.300649
H20   H     H_    0.251369 0.880625 0.889522 0.263130
O19   O     O_3   0.720787 0.586776 0.366587 -0.641587
C35   C     C_3   0.711180 0.591482 0.226146 0.183170
H21   H     H_    0.758259 0.639358 0.181182 0.166133
H22   H     H_    0.641752 0.610481 0.197462 0.203204
C36   C     C_3   0.730237 0.500130 0.170033 -0.371622
H23   H     H_    0.798618 0.479109 0.200636 0.268083
H24   H     H_    0.683016 0.451521 0.211663 0.222304
C37   C     C_3   0.721835 0.500488 0.018011 -0.872563
H25   H     H_    0.653110 0.519094 0.985035 0.272576
H26   H     H_    0.737221 0.433449 0.980847 0.257007
H27   H     H_    0.769197 0.547983 0.974171 0.296992
O20   O     O_3   0.878361 0.249476 0.304427 -0.608343
C38   C     C_3   0.851939 0.282658 0.176180 0.181433
H28   H     H_    0.891935 0.342177 0.154142 0.160637
H29   H     H_    0.780671 0.303278 0.166282 0.152186
C39   C     C_3   0.872085 0.213469 0.071491 -0.367157
H30   H     H_    0.944053 0.196599 0.076789 0.237133
H31   H     H_    0.834016 0.152617 0.092649 0.264076
C40   C     C_3   0.847648 0.247274 0.930916 -0.798876
H32   H     H_    0.775322 0.262047 0.922004 0.298223
H33   H     H_    0.864268 0.195915 0.857437 0.301963
H34   H     H_    0.885403 0.308040 0.907201 0.238146
F9    F     F_    0.613471 0.099908 0.875048 -0.608131
F10   F     F_    0.151669 0.501285 0.865835 -0.623198
O21   O     O_3   0.652255 0.020329 0.141177 -0.568629
C41   C     C_3   0.720807 0.978529 0.070275 0.045045
H35   H     H_    0.785088 0.000771 0.114159 0.181091
H36   H     H_    0.722017 0.998258 0.963331 0.188279
C42   C     C_3   0.717598 0.877726 0.086577 -0.398000
H37   H     H_    0.728709 0.860006 0.193564 0.264630
H38   H     H_    0.651518 0.853108 0.053215 0.243532
C43   C     C_3   0.789077 0.832838 0.005478 -0.831299
H39   H     H_    0.779081 0.849092 0.897662 0.295202
H40   H     H_    0.785184 0.760051 0.019177 0.276753
H41   H     H_    0.856119 0.854645 0.039110 0.258492
O22   O     O_3   0.146278 0.449792 0.141944 -0.580419
C44   C     C_3   0.212971 0.514754 0.151169 0.123766
H42   H     H_    0.185459 0.580402 0.178796 0.152256
H43   H     H_    0.247080 0.521529 0.054756 0.202115
C45   C     C_3   0.282102 0.485920 0.257892 -0.344783
H44   H     H_    0.250468 0.481775 0.356583 0.226184
H45   H     H_    0.308636 0.419349 0.233992 0.245222
C46   C     C_3   0.358840 0.550939 0.266443 -0.863918
H46   H     H_    0.392810 0.555372 0.169562 0.267099
H47   H     H_    0.407725 0.528084 0.344608 0.279335
H48   H     H_    0.333994 0.617469 0.293064 0.292932
F11   F     F_    0.421863 0.017674 0.090359 -0.673558
F12   F     F_    0.940121 0.554613 0.092209 -0.657268

loop_
_geom_bond_atom_site_label_1
_geom_bond_atom_site_label_2
_ccdc_geom_bond_type
O10   Zn1   S    
C36   H23   S    
C8    O12   A    
C10   F2    S    
C46   H48   S    
C45   H44   S    
C39   H31   S    
C41   H35   S    
C25   F9    S    
C4    O8    A    
C34   H18   S    
C5    O9    A    
C38   H28   S    
C6    O10   A    
N2    Zn2   S    
C36   C37   S    
C9    C19   S    
C42   H38   S    
C15   F7    S    
C37   H27   S    
C30   H10   S    
C9    C13   D    
O4    Zn2   S    
N4    Zn4   S    
C11   C15   D    
C1    O5    A    
O1    Zn1   S    
C20   C24   D    
C10   C20   S    
C29   H7    S    
C31   H13   S    
C37   H26   S    
C44   C45   S    
C40   H32   S    
N3    F11   S    
O13   Zn3   S    
N4    F12   S    
C43   H41   S    
C1    C22   S    
C38   H29   S    
O8    Zn4   S    
C40   H33   S    
C3    C24   S    
C39   H30   S    
C43   H40   S    
C34   H19   S    
O7    Zn4   S    
C17   O17   S    
C31   H11   S    
N1    Zn1   S    
O17   C29   S    
C12   C16   D    
C7    O11   A    
C10   C14   D    
C42   C43   S    
C2    O6    A    
C32   H15   S    
C4    C23   S    
O5    Zn3   S    
O18   C32   S    
C11   F3    S    
C21   H1    S    
C3    O7    A    
O12   Zn2   S    
C9    F1    S    
C23   H3    S    
C19   C23   D    
C24   H4    S    
O3    Zn2   S    
C19   O19   S    
C32   C33   S    
C12   F4    S    
C35   H22   S    
C13   F5    S    
C28   N4    D    
O6    Zn3   S    
C18   O18   S    
O2    Zn1   S    
C14   F6    S    
C37   H25   S    
C2    C21   S    
C5    C14   S    
C31   H12   S    
C25   N1    D    
C27   O21   S    
C26   N2    D    
C7    C16   S    
C8    C15   S    
C33   H17   S    
C44   H42   S    
C40   H34   S    
C25   C27   S    
C7    O15   A    
C8    O16   A    
C46   H46   S    
C33   C34   S    
C45   C46   S    
C26   F10   S    
C43   H39   S    
C35   C36   S    
O9    Zn1   S    
O21   C41   S    
O16   Zn4   S    
C34   H20   S    
C11   C17   S    
C22   H2    S    
C18   C22   D    
C46   H47   S    
C45   H45   S    
C30   C31   S    
C41   H36   S    
O15   Zn4   S    
C28   O22   S    
C38   C39   S    
O11   Zn2   S    
C26   C28   S    
C30   H9    S    
C42   H37   S    
C6    C13   S    
C35   H21   S    
C4    O4    A    
C27   N3    D    
C29   C30   S    
O20   C38   S    
H5    N1    S    
H6    N2    S    
C17   C21   D    
C41   C42   S    
C3    O3    A    
O14   Zn3   S    
C1    O1    A    
C32   H14   S    
C2    O2    A    
C16   F8    S    
C36   H24   S    
C33   H16   S    
C12   C18   S    
C44   H43   S    
C29   H8    S    
C5    O13   A    
C6    O14   A    
O19   C35   S    
C39   C40   S    
N3    Zn3   S    
O22   C44   S    
C20   O20   S    
