data_mof_unit_45565.cif
_audit_creation_date              2012-12-10T18:59:18-0500
_audit_creation_method            fapswitch 2.2
_symmetry_space_group_name_H-M    P1
_symmetry_Int_Tables_number       1
_space_group_crystal_system       triclinic
_cell_length_a                    11.025917
_cell_length_b                    10.77921
_cell_length_c                    9.566398
_cell_angle_alpha                 90.835918
_cell_angle_beta                  91.354949
_cell_angle_gamma                 89.330099
_cell_volume                      1136.46075918

loop_
_atom_site_label
_atom_site_type_symbol
_atom_type_description
_atom_site_fract_x
_atom_site_fract_y
_atom_site_fract_z
_atom_type_partial_charge
C1    C     C_R   0.502926 0.262729 0.499283 0.818045
C2    C     C_R   0.069738 0.603269 0.596245 0.105403
C3    C     C_R   0.129310 0.521208 0.501054 -0.061192
C4    C     C_R   0.060779 0.448345 0.407822 -0.180171
C5    C     C_R   0.935090 0.448635 0.412105 -0.138954
C6    C     C_R   0.872152 0.524196 0.507141 -0.080224
C7    C     C_R   0.429602 0.067801 0.586732 0.147648
C8    C     C_R   0.507125 0.129638 0.499807 -0.114731
C9    C     C_R   0.591209 0.062259 0.420362 -0.161144
C10   C     C_R   0.590701 0.932602 0.422132 -0.126390
C11   C     C_R   0.505265 0.871111 0.501997 -0.082939
C12   C     C_R   0.262617 0.507121 0.499564 0.752276
C13   C     C_R   0.427799 0.939691 0.586817 0.242861
C14   C     C_3   0.292362 0.939110 0.584046 -0.490021
C15   C     C_3   0.294799 0.079157 0.587026 -0.481403
C16   C     C_R   0.439921 0.590226 0.073850 0.006186
C17   C     C_R   0.555479 0.406688 0.073869 0.703622
C18   C     C_R   0.554588 0.406313 0.925392 -0.100555
C19   C     C_R   0.439872 0.590486 0.926204 0.083896
C20   C     C_3   0.464962 0.726957 0.927606 0.354394
C21   C     C_3   0.462723 0.726237 0.084646 0.373103
C22   C     C_R   0.499808 0.737609 0.500495 0.806132
C23   C     C_R   0.737433 0.512085 0.502343 0.760839
C24   C     C_R   0.136176 0.678566 0.693941 -0.305255
C25   C     C_R   0.078219 0.766186 0.778710 -0.228420
C26   C     C_R   0.956597 0.788511 0.759046 0.531560
C27   C     C_R   0.886516 0.702341 0.684282 -0.144280
C28   C     C_R   0.939905 0.608537 0.597197 -0.033044
Cu1   Cu    Cu3+1 0.499990 0.499980 0.640670 1.001700
Cu2   Cu    Cu3+1 0.500010 0.500020 0.359330 1.058239
H1    H     H_    0.105217 0.386345 0.334416 0.164101
H2    H     H_    0.256737 0.901529 0.680670 0.246258
H3    H     H_    0.256102 0.121615 0.490251 0.203636
H4    H     H_    0.261952 0.120832 0.686345 0.225532
H5    H     H_    0.600713 0.332231 0.869882 0.188797
H6    H     H_    0.552459 0.754986 0.890108 0.188159
H7    H     H_    0.387321 0.780504 0.131639 0.162697
H8    H     H_    0.233139 0.673842 0.705552 0.230015
H9    H     H_    0.886216 0.386639 0.341178 0.182674
H10   H     H_    0.655396 0.109552 0.356376 0.201051
H11   H     H_    0.655176 0.880651 0.360089 0.215115
H12   H     H_    0.252864 0.899030 0.485522 0.198849
N1    N     N_R   0.500790 0.500930 0.147930 -0.218344
N2    N     N_R   0.500790 0.500890 0.852020 -0.243342
O1    O     O_R   0.500000 0.319640 0.618810 -0.583377
O2    O     O_R   0.500010 0.319680 0.381230 -0.523032
O3    O     O_R   0.319640 0.499980 0.618820 -0.578514
O4    O     O_R   0.319650 0.500020 0.381230 -0.579919
O5    O     O_R   0.499990 0.680320 0.618770 -0.550333
O6    O     O_R   0.500000 0.680360 0.381190 -0.548613
O7    O     O_R   0.680350 0.499980 0.618770 -0.564740
O8    O     O_R   0.680360 0.500020 0.381180 -0.525617
F1    F     F_    0.615803 0.314775 0.142208 -0.649312
F2    F     F_    0.373908 0.796858 0.867838 -0.696001
F3    F     F_    0.576339 0.752417 0.141719 -0.664914
C29   C     C_2   0.136932 0.820194 0.905416 1.083253
O9    O     O_2   0.172498 0.751275 0.998207 -0.550496
O10   O     O_R   0.145060 0.948582 0.925794 -0.686310
H13   H     H_    0.111357 0.997189 0.843459 0.312182
F4    F     F_    0.902388 0.877664 0.839873 -0.630383
C30   C     C_2   0.770269 0.692654 0.747027 0.954447
O11   O     O_2   0.695267 0.774821 0.727905 -0.583196
O12   O     O_R   0.759566 0.604931 0.852342 -0.724458
H14   H     H_    0.697174 0.626758 0.923938 0.326952

loop_
_geom_bond_atom_site_label_1
_geom_bond_atom_site_label_2
_ccdc_geom_bond_type
C26   C27   A    
C24   H8    S    
C17   N1    A    
C15   H4    S    
C16   C21   S    
C18   N2    A    
C1    C8    S    
C9    C10   A    
C11   C22   S    
C23   O7    A    
C19   C20   S    
C25   C29   S    
C14   H12   S    
C19   N2    A    
C12   O4    A    
C30   O11   D    
C7    C15   S    
C17   C18   A    
Cu2   O6    S    
C7    C8    A    
Cu1   O5    S    
C13   C14   S    
C20   C21   S    
C10   H11   S    
C12   O3    A    
C11   C13   A    
C16   N1    A    
C1    O1    A    
C23   O8    A    
Cu1   Cu2   S    
Cu1   O3    S    
C22   O5    A    
C6    C23   S    
Cu2   O4    S    
C29   O10   S    
C2    C3    A    
C10   C11   A    
C5    H9    S    
Cu1   N2    S    
C2    C24   A    
C5    C6    A    
Cu2   N1    S    
C1    O2    A    
O10   H13   S    
C4    H1    S    
C29   O9    D    
Cu1   O7    S    
O12   H14   S    
C20   H6    S    
C17   F1    S    
C22   O6    A    
C7    C13   A    
C21   H7    S    
C24   C25   A    
C20   F2    S    
C18   H5    S    
Cu1   O1    S    
C27   C28   A    
C21   F3    S    
Cu2   O8    S    
C14   C15   S    
C4    C5    A    
C2    C28   A    
C3    C12   S    
C27   C30   S    
C25   C26   A    
C26   F4    S    
Cu2   O2    S    
C9    H10   S    
C6    C28   A    
C3    C4    A    
C30   O12   S    
C14   H2    S    
C8    C9    A    
C15   H3    S    
C16   C19   A    
