data_mof_unit_33146.cif
_audit_creation_date              2012-12-10T18:41:01-0500
_audit_creation_method            fapswitch 2.2
_symmetry_space_group_name_H-M    P1
_symmetry_Int_Tables_number       1
_space_group_crystal_system       triclinic
_cell_length_a                    15.028381
_cell_length_b                    14.058446
_cell_length_c                    19.40495
_cell_angle_alpha                 90.086236
_cell_angle_beta                  92.459355
_cell_angle_gamma                 89.822258
_cell_volume                      4095.99422312

loop_
_atom_site_label
_atom_site_type_symbol
_atom_type_description
_atom_site_fract_x
_atom_site_fract_y
_atom_site_fract_z
_atom_type_partial_charge
C1    C     C_R   0.330558 0.500328 0.500459 0.785372
C2    C     C_R   0.669440 0.500107 0.499550 0.784958
C3    C     C_R   0.184929 0.480128 0.440755 -0.170719
C4    C     C_R   0.815069 0.478657 0.559138 -0.162185
C5    C     C_R   0.807615 0.531518 0.440305 -0.201490
C6    C     C_R   0.192318 0.530580 0.560262 -0.198370
C7    C     C_R   0.234552 0.501902 0.500951 0.015219
C8    C     C_R   0.765443 0.501350 0.499122 0.014017
C9    C     C_R   0.048957 0.508785 0.500186 0.102631
C10   C     C_R   0.950995 0.508799 0.500291 0.100011
C11   C     C_R   0.558209 0.106963 0.543716 -0.308466
C12   C     C_R   0.424694 0.893917 0.479030 -0.308727
C13   C     C_R   0.440170 0.106809 0.458456 -0.308908
C14   C     C_R   0.574433 0.893585 0.522759 -0.309399
C15   C     C_R   0.560410 0.207355 0.541156 0.167379
C16   C     C_R   0.426054 0.793528 0.476554 0.167006
C17   C     C_R   0.439485 0.207269 0.459191 0.167496
C18   C     C_R   0.573463 0.793112 0.524418 0.167801
C19   C     C_R   0.498969 0.054332 0.501396 0.116019
C20   C     C_R   0.499414 0.946279 0.501089 0.119257
C21   C     C_R   0.502991 0.500044 0.367842 0.795686
C22   C     C_R   0.496319 0.500114 0.632086 0.796096
C23   C     C_R   0.468082 0.416352 0.742448 -0.238164
C24   C     C_R   0.496180 0.585332 0.255186 -0.237651
C25   C     C_R   0.526463 0.416833 0.256254 -0.235790
C26   C     C_R   0.490594 0.586190 0.744242 -0.239545
C27   C     C_R   0.461952 0.415521 0.814196 0.006065
C28   C     C_R   0.494126 0.586025 0.183182 0.007223
C29   C     C_R   0.522014 0.414705 0.184160 0.005863
C30   C     C_R   0.484192 0.587660 0.815775 0.006896
C31   C     C_R   0.471689 0.501611 0.851484 -0.008839
C32   C     C_R   0.504267 0.499593 0.146986 -0.005849
C33   C     C_R   0.486024 0.500641 0.707346 -0.064278
C34   C     C_R   0.508382 0.500578 0.292128 -0.061723
C35   C     C_R   0.405760 0.523990 0.966040 -0.179058
C36   C     C_R   0.568301 0.473421 0.032111 -0.166198
C37   C     C_R   0.413957 0.523119 0.037809 -0.157248
C38   C     C_R   0.560048 0.474284 0.960353 -0.152101
C39   C     C_R   0.495359 0.498196 0.071093 0.104726
C40   C     C_R   0.478955 0.500093 0.927201 0.119375
C41   C     C_R   0.092508 0.481782 0.440527 -0.193500
C42   C     C_R   0.907502 0.480563 0.559555 -0.192970
C43   C     C_R   0.900120 0.535690 0.440911 -0.183375
C44   C     C_R   0.099772 0.534497 0.559856 -0.183063
Cu1   Cu    Cu3+1 0.500000 0.596430 0.500000 0.945024
Cu2   Cu    Cu3+1 0.500000 0.403570 0.500000 0.945697
H1    H     H_    0.456856 0.351065 0.714020 0.150493
H2    H     H_    0.489916 0.651912 0.282154 0.150261
H3    H     H_    0.543404 0.352581 0.284249 0.147982
H4    H     H_    0.498669 0.652705 0.717631 0.150744
H5    H     H_    0.342531 0.542783 0.940786 0.112798
H6    H     H_    0.631561 0.454464 0.057313 0.127058
H7    H     H_    0.357062 0.541850 0.067518 0.124824
H8    H     H_    0.616839 0.455468 0.930546 0.122868
H9    H     H_    0.055439 0.461330 0.393820 0.120799
H10   H     H_    0.944615 0.459219 0.606041 0.121680
H11   H     H_    0.931641 0.560581 0.395198 0.119553
H12   H     H_    0.068172 0.558316 0.605935 0.119404
H13   H     H_    0.217969 0.463524 0.393745 0.145594
H14   H     H_    0.781968 0.460903 0.605812 0.146358
H15   H     H_    0.768941 0.552165 0.394301 0.122527
H16   H     H_    0.230964 0.550270 0.606489 0.122944
H17   H     H_    0.604577 0.070799 0.578998 0.138973
H18   H     H_    0.363800 0.930472 0.463053 0.135950
H19   H     H_    0.394526 0.070488 0.422781 0.139502
H20   H     H_    0.634960 0.929864 0.539539 0.135485
N1    N     N_R   0.500000 0.258690 0.500000 -0.204579
N2    N     N_R   0.500000 0.741310 0.500000 -0.204296
O1    O     O_R   0.371460 0.581430 0.500010 -0.572335
O2    O     O_R   0.628540 0.418570 0.499990 -0.580583
O3    O     O_R   0.628540 0.581430 0.499990 -0.572407
O4    O     O_R   0.371460 0.418570 0.500010 -0.581245
O5    O     O_R   0.500020 0.581470 0.400190 -0.589460
O6    O     O_R   0.499980 0.418530 0.599810 -0.584659
O7    O     O_R   0.499980 0.581470 0.599810 -0.589960
O8    O     O_R   0.500020 0.418530 0.400190 -0.582965
C45   C     C_R   0.446080 0.323509 0.848705 0.117230
C46   C     C_R   0.369656 0.310148 0.886715 -0.122468
C47   C     C_R   0.353495 0.222069 0.917049 -0.142088
C48   C     C_R   0.413264 0.146750 0.909530 -0.115507
C49   C     C_R   0.489530 0.159534 0.871953 -0.121515
C50   C     C_R   0.505808 0.247429 0.841415 -0.159590
H21   H     H_    0.321952 0.367291 0.891887 0.112778
H22   H     H_    0.294426 0.212066 0.946174 0.113725
H23   H     H_    0.400559 0.078574 0.932962 0.103670
H24   H     H_    0.535873 0.101251 0.866256 0.119566
H25   H     H_    0.564941 0.256266 0.812238 0.113127
C51   C     C_R   0.483458 0.678674 0.147499 0.110983
C52   C     C_R   0.408181 0.735554 0.157915 -0.172097
C53   C     C_R   0.399646 0.824583 0.126292 -0.134837
C54   C     C_R   0.466571 0.857845 0.084813 -0.111517
C55   C     C_R   0.541982 0.801938 0.074649 -0.114359
C56   C     C_R   0.550331 0.712447 0.105546 -0.120965
H26   H     H_    0.356185 0.710816 0.190345 0.114968
H27   H     H_    0.341373 0.868004 0.134238 0.121879
H28   H     H_    0.459949 0.926920 0.060589 0.103895
H29   H     H_    0.594214 0.828086 0.043068 0.124784
H30   H     H_    0.609466 0.670227 0.097758 0.118483
C57   C     C_R   0.531705 0.321881 0.149367 0.108784
C58   C     C_R   0.613595 0.273483 0.153333 -0.173734
C59   C     C_R   0.622136 0.184784 0.121525 -0.134108
C60   C     C_R   0.548741 0.143368 0.086590 -0.103436
C61   C     C_R   0.466696 0.190586 0.083463 -0.117523
C62   C     C_R   0.458228 0.279952 0.114186 -0.131302
H31   H     H_    0.670710 0.304695 0.180665 0.121151
H32   H     H_    0.685527 0.147940 0.124250 0.121096
H33   H     H_    0.555374 0.074560 0.062246 0.106860
H34   H     H_    0.409493 0.157696 0.057626 0.116761
H35   H     H_    0.394304 0.315862 0.111422 0.112865
C63   C     C_R   0.493642 0.680329 0.851389 0.119488
C64   C     C_R   0.575853 0.727642 0.853256 -0.155310
C65   C     C_R   0.583370 0.818807 0.881760 -0.147864
C66   C     C_R   0.508834 0.863464 0.908041 -0.123310
C67   C     C_R   0.426874 0.816623 0.906562 -0.112313
C68   C     C_R   0.419080 0.725452 0.878065 -0.129688
H36   H     H_    0.633685 0.694305 0.831966 0.115125
H37   H     H_    0.646813 0.855119 0.883032 0.120380
H38   H     H_    0.514733 0.934128 0.929920 0.103211
H39   H     H_    0.369231 0.851340 0.926950 0.116426
H40   H     H_    0.354685 0.691056 0.875354 0.108479
C69   C     C_R   0.634912 0.250799 0.581413 0.171191
C70   C     C_R   0.627035 0.267831 0.652096 -0.138031
C71   C     C_R   0.702385 0.287828 0.694347 -0.164692
C72   C     C_R   0.786869 0.285252 0.667090 -0.145041
C73   C     C_R   0.795864 0.264159 0.597343 -0.152852
C74   C     C_R   0.720272 0.247876 0.554508 -0.140644
H41   H     H_    0.563328 0.260322 0.674932 0.117952
H42   H     H_    0.695703 0.301893 0.748704 0.125500
H43   H     H_    0.845376 0.298845 0.700055 0.124309
H44   H     H_    0.861402 0.260809 0.576399 0.139079
H45   H     H_    0.728363 0.229068 0.500975 0.124039
C75   C     C_R   0.344238 0.750897 0.445848 0.165966
C76   C     C_R   0.340647 0.723394 0.376416 -0.115827
C77   C     C_R   0.260208 0.694287 0.344319 -0.178735
C78   C     C_R   0.182047 0.695957 0.380794 -0.110432
C79   C     C_R   0.184411 0.726048 0.449520 -0.115108
C80   C     C_R   0.265097 0.753761 0.481988 -0.160685
H46   H     H_    0.399310 0.728534 0.346745 0.116921
H47   H     H_    0.258066 0.672519 0.290772 0.121607
H48   H     H_    0.119609 0.674261 0.355776 0.120227
H49   H     H_    0.123735 0.727942 0.477596 0.131250
H50   H     H_    0.265937 0.778421 0.534919 0.118819
C81   C     C_R   0.371736 0.251192 0.412375 0.166605
C82   C     C_R   0.283037 0.255603 0.432299 -0.139667
C83   C     C_R   0.214066 0.273448 0.383300 -0.166439
C84   C     C_R   0.233207 0.289061 0.314397 -0.147898
C85   C     C_R   0.320963 0.282580 0.293891 -0.144656
C86   C     C_R   0.389361 0.260535 0.342348 -0.131365
H51   H     H_    0.267096 0.241608 0.485240 0.129638
H52   H     H_    0.145786 0.275751 0.398851 0.139932
H53   H     H_    0.179863 0.304101 0.276715 0.122956
H54   H     H_    0.335514 0.290896 0.240103 0.132433
H55   H     H_    0.455221 0.245343 0.325087 0.118636
C87   C     C_R   0.653955 0.749847 0.557150 0.164174
C88   C     C_R   0.654080 0.721620 0.626339 -0.111751
C89   C     C_R   0.732866 0.691138 0.660434 -0.178303
C90   C     C_R   0.812817 0.691980 0.626236 -0.115479
C91   C     C_R   0.813921 0.722934 0.557859 -0.114487
C92   C     C_R   0.734899 0.752178 0.523401 -0.160483
H56   H     H_    0.593917 0.726943 0.654329 0.119182
H57   H     H_    0.732250 0.668887 0.713784 0.123546
H58   H     H_    0.873971 0.669084 0.652770 0.120352
H59   H     H_    0.875992 0.724252 0.531580 0.131893
H60   H     H_    0.736711 0.777351 0.470757 0.118678

loop_
_geom_bond_atom_site_label_1
_geom_bond_atom_site_label_2
_ccdc_geom_bond_type
C80   H50   S    
C59   C60   A    
C10   C42   A    
C14   C18   A    
C64   C65   A    
C4    C8    A    
Cu2   O8    S    
C67   C68   A    
C53   C54   A    
C71   C72   A    
C13   H19   S    
Cu1   Cu2   S    
C21   O8    A    
C11   C19   A    
C58   H31   S    
C90   C91   A    
C73   C74   A    
C30   C63   S    
C74   H45   S    
C89   C90   A    
C35   C37   A    
C66   C67   A    
C29   C32   A    
C3    C7    A    
C26   H4    S    
C83   C84   A    
C47   H22   S    
C12   H18   S    
Cu1   O3    S    
C18   N2    A    
C81   C82   A    
C21   O5    A    
C70   H41   S    
C31   C40   S    
Cu1   O5    S    
C32   C39   S    
C52   H26   S    
C63   C64   A    
C41   H9    S    
C61   C62   A    
C85   C86   A    
C42   H10   S    
C54   H28   S    
C83   H52   S    
C11   C15   A    
C46   H21   S    
C12   C16   A    
C44   H12   S    
C75   C76   A    
C23   C33   A    
C28   C51   S    
C61   H34   S    
C16   N2    A    
Cu1   O7    S    
C23   C27   A    
C9    C10   S    
Cu2   O4    S    
C67   H39   S    
C18   C87   S    
C25   C34   A    
C37   H7    S    
C66   H38   S    
C1    O1    A    
C57   C62   A    
C5    C43   A    
C76   H46   S    
C6    C44   A    
C4    H14   S    
C81   C86   A    
C22   O7    A    
C73   H44   S    
C65   C66   A    
C55   H29   S    
C49   C50   A    
C25   C29   A    
C78   H48   S    
C17   N1    A    
C1    O4    A    
C23   H1    S    
C29   C57   S    
C27   C31   A    
C24   H2    S    
C14   C20   A    
C78   C79   A    
C77   H47   S    
C13   C19   A    
C46   C47   A    
C48   C49   A    
C21   C34   S    
C75   C80   A    
C45   C46   A    
Cu1   O1    S    
C24   C34   A    
C84   H53   S    
C48   H23   S    
C76   C77   A    
C26   C33   A    
C57   C58   A    
C38   H8    S    
C28   C32   A    
C30   C31   A    
C15   N1    A    
C12   C20   A    
Cu1   N2    S    
C14   H20   S    
C49   H24   S    
C5    H15   S    
C60   H33   S    
C87   C88   A    
C6    C7    A    
C91   H59   S    
C56   H30   S    
C89   H57   S    
C26   C30   A    
C35   H5    S    
C91   C92   A    
C86   H55   S    
C22   O6    A    
C2    O3    A    
Cu2   O6    S    
C87   C92   A    
C84   C85   A    
C88   H56   S    
C59   H32   S    
C22   C33   S    
C51   C56   A    
C3    C41   A    
C9    C44   A    
C15   C69   S    
C82   H51   S    
C10   C43   A    
C1    C7    S    
C36   C39   A    
C2    C8    S    
C24   C28   A    
C82   C83   A    
C27   C45   S    
C36   H6    S    
C5    C8    A    
C69   C70   A    
C77   C78   A    
C9    C41   A    
C13   C17   A    
C65   H37   S    
C17   C81   S    
C64   H36   S    
C6    H16   S    
C19   C20   S    
C36   C38   A    
C85   H54   S    
C52   C53   A    
Cu2   N1    S    
C37   C39   A    
C38   C40   A    
C71   H42   S    
C62   H35   S    
C4    C42   A    
C45   C50   A    
C63   C68   A    
C55   C56   A    
C79   H49   S    
C72   H43   S    
C35   C40   A    
C60   C61   A    
C16   C75   S    
C25   H3    S    
Cu2   O2    S    
C43   H11   S    
C47   C48   A    
C69   C74   A    
C51   C52   A    
C68   H40   S    
C88   C89   A    
C92   H60   S    
C79   C80   A    
C58   C59   A    
C70   C71   A    
C2    O2    A    
C11   H17   S    
C90   H58   S    
C53   H27   S    
C54   C55   A    
C50   H25   S    
C72   C73   A    
C3    H13   S    
