data_mof_unit_39435.cif
_audit_creation_date              2012-12-11T17:07:01-0500
_audit_creation_method            fapswitch 2.2
_symmetry_space_group_name_H-M    P1
_symmetry_Int_Tables_number       1
_space_group_crystal_system       triclinic
_cell_length_a                    8.474124
_cell_length_b                    14.961251
_cell_length_c                    16.373924
_cell_angle_alpha                 98.028191
_cell_angle_beta                  93.171777
_cell_angle_gamma                 97.546784
_cell_volume                      2032.04505692

loop_
_atom_site_label
_atom_site_type_symbol
_atom_type_description
_atom_site_fract_x
_atom_site_fract_y
_atom_site_fract_z
_atom_type_partial_charge
Ba1   Ba    Ba6+2 0.163640 0.544330 0.462610 1.666449
Ba2   Ba    Ba6+2 0.646540 0.455660 0.537320 1.603999
C1    C     C_3   0.370101 0.725746 0.177780 -0.275517
C2    C     C_R   0.084891 0.080668 0.546052 -0.107809
C3    C     C_R   0.956290 0.891847 0.532761 -0.098603
C4    C     C_3   0.975129 0.793466 0.294929 0.334439
C5    C     C_R   0.104866 0.928171 0.576271 0.592116
C6    C     C_R   0.167579 0.019046 0.581109 -0.112806
C7    C     C_R   0.891237 0.796950 0.523327 0.074501
C8    C     C_R   0.741921 0.768339 0.479746 -0.308163
C9    C     C_R   0.915848 0.205109 0.476531 0.051016
C10   C     C_R   0.849657 0.110866 0.467095 -0.028577
C11   C     C_R   0.934149 0.048606 0.503542 -0.002119
C12   C     C_3   0.481269 0.779164 0.249676 0.357388
C13   C     C_R   0.700931 0.077053 0.424296 -0.043293
C14   C     C_R   0.633020 0.986424 0.421561 -0.094788
C15   C     C_R   0.715843 0.923230 0.455851 -0.009819
C16   C     C_3   0.019985 0.888597 0.272903 -0.327932
C17   C     C_R   0.869143 0.954173 0.496847 -0.056712
C18   C     C_R   0.650804 0.829978 0.449304 -0.017818
C19   C     C_R   0.061692 0.234949 0.521526 -0.284733
C20   C     C_R   0.617672 0.541490 0.271236 -0.367971
C21   C     C_R   0.467463 0.492849 0.242720 -0.013110
C22   C     C_R   0.414765 0.485133 0.158577 0.527811
C23   C     C_3   0.618297 0.747157 0.705842 0.280278
C24   C     C_R   0.512880 0.526608 0.102629 0.181323
C25   C     C_R   0.666807 0.570586 0.132325 -0.238200
C26   C     C_R   0.720491 0.576934 0.215856 -0.013995
C27   C     C_R   0.378690 0.532431 0.854003 -0.194195
C28   C     C_3   0.718600 0.310998 0.277053 0.263129
C29   C     C_R   0.326848 0.529079 0.770571 0.023270
C30   C     C_R   0.276964 0.492589 0.908708 0.251128
C31   C     C_R   0.167926 0.494141 0.742618 -0.233561
C32   C     C_R   0.073436 0.445708 0.793223 0.033051
C33   C     C_R   0.126025 0.446882 0.876438 -0.062981
C34   C     C_3   0.706352 0.801758 0.785819 0.500297
C35   C     C_3   0.619602 0.245386 0.207115 -0.284119
C36   C     C_3   0.147397 0.744643 0.723177 0.364899
C37   C     C_3   0.165027 0.830275 0.787345 -0.226488
C38   C     C_3   0.212236 0.259528 0.318598 0.305246
C39   C     C_3   0.111766 0.187998 0.253293 0.546351
C40   C     C_3   0.300599 0.211525 0.378853 -0.280956
C41   C     C_3   0.584736 0.857823 0.219508 -0.378935
C42   C     C_3   0.568063 0.813582 0.649729 -0.325745
C43   C     C_3   0.765273 0.739536 0.843843 -0.295961
C44   C     C_3   0.733806 0.193949 0.659747 -0.214061
C45   C     C_3   0.807645 0.190250 0.745167 0.376608
C46   C     C_3   0.950407 0.138511 0.735015 -0.279530
C47   C     C_3   0.466865 0.330550 0.791422 -0.320335
C48   C     C_3   0.091127 0.516343 0.664055 -0.208966
C49   C     C_3   0.830305 0.379891 0.240108 -0.282676
C50   C     C_3   0.692236 0.130559 0.791800 -0.296443
C51   C     C_3   0.336429 0.252062 0.760672 0.240026
C52   C     C_3   0.294058 0.202845 0.834963 0.461957
C53   C     C_R   0.148226 0.173982 0.554018 0.031514
F1    F     F_    0.207280 0.131279 0.211772 -0.702108
F2    F     F_    0.833313 0.861579 0.767338 -0.745467
F3    F     F_    0.180927 0.244118 0.878399 -0.702674
F4    F     F_    0.195751 0.878783 0.616141 -0.749605
F5    F     F_    0.270859 0.435361 0.131852 -0.658574
H1    H     H_    0.561202 0.732148 0.270785 -0.021445
H2    H     H_    0.131214 0.301602 0.352414 -0.047843
H3    H     H_    0.304547 0.664606 0.198027 0.142544
H4    H     H_    0.050444 0.221892 0.207359 0.046711
H5    H     H_    0.019983 0.145876 0.282867 -0.037635
H6    H     H_    0.439042 0.703478 0.124823 0.058147
H7    H     H_    0.696618 0.703410 0.672089 0.069234
H8    H     H_    0.623384 0.843100 0.819230 0.041682
H9    H     H_    0.282718 0.768490 0.156695 0.145144
H10   H     H_    0.947957 0.896889 0.216457 0.124696
H11   H     H_    0.662535 0.059718 0.758362 0.097028
H12   H     H_    0.543114 0.191815 0.232855 0.161379
H13   H     H_    0.745625 0.127451 0.854737 0.141112
H14   H     H_    0.580329 0.157536 0.799754 0.101056
H15   H     H_    0.232168 0.282251 0.738445 0.017330
H16   H     H_    0.398930 0.204871 0.879293 0.033668
H17   H     H_    0.051998 0.787495 0.350610 0.090573
H18   H     H_    0.250630 0.129634 0.813967 0.021257
H19   H     H_    0.282685 0.040062 0.614595 0.145793
H20   H     H_    0.515854 0.966368 0.390013 0.110736
H21   H     H_    0.633668 0.119905 0.392747 0.102707
H22   H     H_    0.690801 0.697348 0.473894 0.071912
H23   H     H_    0.542309 0.282549 0.170911 0.122702
H24   H     H_    0.112990 0.305937 0.527787 0.060122
H25   H     H_    0.498836 0.563767 0.875225 0.104632
H26   H     H_    0.746062 0.598772 0.089802 0.117786
H27   H     H_    0.847923 0.785528 0.309386 -0.068358
H28   H     H_    0.049308 0.411993 0.916255 0.158579
H29   H     H_    0.660156 0.545180 0.335339 0.096097
H30   H     H_    0.997345 0.940538 0.324719 0.068753
H31   H     H_    0.148338 0.899965 0.261274 0.167097
H32   H     H_    0.637023 0.346804 0.316325 0.057383
H33   H     H_    0.348415 0.262283 0.433140 0.130613
H34   H     H_    0.698958 0.211335 0.164755 0.108757
H35   H     H_    0.220436 0.154855 0.398093 0.034862
H36   H     H_    0.400823 0.181865 0.349975 0.141211
H37   H     H_    0.509309 0.906226 0.197285 0.142137
H38   H     H_    0.669622 0.895152 0.270496 0.090781
H39   H     H_    0.655011 0.831410 0.168444 0.090266
H40   H     H_    0.500203 0.774616 0.593245 0.123921
H41   H     H_    0.490328 0.859413 0.681667 0.142157
H42   H     H_    0.673580 0.856749 0.632212 0.104908
H43   H     H_    0.662346 0.699003 0.866568 0.053879
H44   H     H_    0.840771 0.692429 0.811946 0.117330
H45   H     H_    0.245047 0.752265 0.682598 0.133522
H46   H     H_    0.835781 0.781372 0.898355 0.105068
H47   H     H_    0.827288 0.216140 0.620604 0.058477
H48   H     H_    0.674222 0.125431 0.630607 0.105977
H49   H     H_    0.651907 0.244907 0.664082 0.182097
H50   H     H_    0.042376 0.176513 0.704215 0.056168
H51   H     H_    0.995001 0.124225 0.795788 0.176387
H52   H     H_    0.915408 0.071139 0.695643 0.076735
H53   H     H_    0.482779 0.377956 0.745688 0.153152
H54   H     H_    0.439314 0.367538 0.850741 0.109150
H55   H     H_    0.578337 0.304286 0.804957 0.148181
H56   H     H_    0.164274 0.687829 0.757950 -0.047724
H57   H     H_    0.968607 0.531896 0.673644 0.141891
H58   H     H_    0.147548 0.580167 0.646694 0.090440
H59   H     H_    0.093217 0.460152 0.612400 0.123185
H60   H     H_    0.879327 0.435946 0.290031 0.132902
H61   H     H_    0.930174 0.348541 0.212644 0.147423
H62   H     H_    0.766341 0.406537 0.190010 0.046628
H63   H     H_    0.131965 0.889324 0.759627 0.202156
H64   H     H_    0.291059 0.846992 0.813315 0.031124
H65   H     H_    0.089304 0.818768 0.838948 0.121644
N1    N     N_2   0.465427 0.525250 0.016797 -0.225951
N2    N     N_2   0.323490 0.492635 0.994321 -0.123708
O1    O     O_2   0.162600 0.722340 0.548210 -0.423753
O2    O     O_2   0.761556 0.440557 0.792961 -0.498344
O3    O     O_3   0.850156 0.277551 0.795649 -0.568600
O4    O     O_3   0.890740 0.608910 0.545450 -0.502064
O5    O     O_3   0.431610 0.453580 0.401810 -0.493223
O6    O     O_2   0.628260 0.544210 0.698310 -0.467029
O7    O     O_3   0.478419 0.698395 0.727599 -0.708499
O8    O     O_2   0.465182 0.167820 0.543539 -0.499614
O9    O     O_3   0.389895 0.189724 0.698257 -0.658950
O10   O     O_3   0.394140 0.666560 0.400120 -0.474000
O11   O     O_2   0.324022 0.827176 0.464669 -0.444856
O12   O     O_3   0.326133 0.310541 0.278414 -0.617295
O13   O     O_3   0.993132 0.726642 0.681729 -0.616360
O14   O     O_3   0.386789 0.814888 0.311209 -0.598166
O15   O     O_2   0.182040 0.455730 0.301660 -0.438199
O16   O     O_3   0.971540 0.620730 0.357730 -0.497516
O17   O     O_2   0.043181 0.557299 0.207673 -0.426445
O18   O     O_3   0.999704 0.728104 0.228062 -0.596738
O19   O     O_2   0.647690 0.277600 0.451760 -0.480348
O20   O     O_3   0.919560 0.391080 0.454480 -0.492359
O21   O     O_3   0.416160 0.333430 0.599820 -0.482060
O22   O     O_3   0.811636 0.260080 0.320455 -0.665949
O23   O     O_3   0.378690 0.546410 0.598120 -0.467894
O24   O     O_3   0.838760 0.379260 0.642200 -0.510124
P1    P     P_3+3 0.987090 0.708160 0.571840 1.034788
P2    P     P_3+3 0.349530 0.428340 0.313070 1.046457
P3    P     P_3+3 0.931866 0.619654 0.251676 0.965820
P4    P     P_3+3 0.823210 0.291830 0.428100 0.953273
P5    P     P_3+3 0.879266 0.381256 0.751038 0.921505
P6    P     P_3+3 0.442097 0.784929 0.407370 0.956970
P7    P     P_3+3 0.460377 0.579835 0.700217 0.922555
P8    P     P_3+3 0.351706 0.217795 0.598764 0.879235

loop_
_geom_bond_atom_site_label_1
_geom_bond_atom_site_label_2
_ccdc_geom_bond_type
C16   H10   S    
C46   H50   S    
C28   C49   S    
C7    P1    S    
Ba2   O23   S    
Ba2   P4    S    
C37   H65   S    
C48   H57   S    
C47   H53   S    
Ba2   O4    S    
C23   H7    S    
Ba1   O1    S    
C2    C6    A    
Ba1   O5    S    
C37   H63   S    
C5    C6    A    
C13   H21   S    
C51   C52   S    
C24   C25   A    
N1    N2    D    
C40   H36   S    
C16   H31   S    
C30   N2    S    
C1    H9    S    
C41   H39   S    
C32   C33   A    
C27   C30   A    
C50   H14   S    
C36   C37   S    
O12   P2    S    
Ba2   O21   S    
C13   C14   A    
C40   H33   S    
C38   O12   S    
C15   C18   A    
C38   H2    S    
Ba1   P1    S    
Ba1   Ba2   S    
C24   N1    S    
C2    C11   A    
Ba1   O15   S    
C43   H43   S    
O9    P8    S    
O1    P1    D    
O19   P4    D    
C8    C18   A    
C14   C15   A    
C44   H48   S    
C6    H19   S    
Ba2   O5    S    
C21   C22   A    
C41   H38   S    
O20   P4    S    
C7    C8    A    
O13   P1    S    
C27   H25   S    
C9    P4    S    
C38   C40   S    
C47   H54   S    
C12   O14   S    
C20   C26   A    
C26   P3    S    
O4    P1    S    
C51   H15   S    
C51   O9    S    
C23   C42   S    
C5    F4    S    
C49   H60   S    
O5    P2    S    
C4    C16   S    
Ba2   O6    S    
O8    P8    D    
C11   C17   A    
C45   O3    S    
C48   H59   S    
C16   H30   S    
C30   C33   A    
C34   C43   S    
C28   H32   S    
C34   F2    S    
C3    C5    A    
C4    O18   S    
C42   H42   S    
C4    H17   S    
O16   P3    S    
C39   H5    S    
C31   C48   S    
C12   H1    S    
C8    H22   S    
C4    H27   S    
C40   H35   S    
C28   C35   S    
C14   H20   S    
O21   P8    S    
C25   H26   S    
C39   F1    S    
C3    C7    A    
Ba1   O16   S    
C43   H44   S    
C36   H56   S    
C33   H28   S    
C45   C46   S    
C19   H24   S    
C22   F5    S    
C44   H47   S    
C29   C31   A    
C31   C32   A    
Ba1   O23   S    
O24   P5    S    
Ba1   P2    S    
C23   O7    S    
C1    C12   S    
C52   H16   S    
O18   P3    S    
O14   P6    S    
C38   C39   S    
C47   H55   S    
C50   H13   S    
C10   C13   A    
C32   P5    S    
C18   P6    S    
C21   P2    S    
C2    C53   A    
C49   H61   S    
Ba1   O20   S    
C1    H6    S    
Ba1   O10   S    
C43   H46   S    
C19   C53   A    
C52   F3    S    
Ba2   O24   S    
C44   C45   S    
O23   P7    S    
C46   H52   S    
C48   H58   S    
C41   H37   S    
C22   C24   A    
Ba1   O4    S    
O2    P5    D    
C42   H41   S    
C34   H8    S    
C45   C50   S    
C3    C17   A    
C1    H3    S    
Ba2   O20   S    
Ba2   O19   S    
O10   P6    S    
C36   H45   S    
O22   P4    S    
C27   C29   A    
C50   H11   S    
C35   H12   S    
C42   H40   S    
O11   P6    D    
C47   C51   S    
C53   P8    S    
C15   C17   A    
C20   H29   S    
C9    C19   A    
C35   H34   S    
O7    P7    S    
O15   P2    D    
O17   P3    D    
O6    P7    D    
C29   P7    S    
C37   H64   S    
C23   C34   S    
C46   H51   S    
C10   C11   A    
C44   H49   S    
C25   C26   A    
C49   H62   S    
C36   O13   S    
C20   C21   A    
C35   H23   S    
O3    P5    S    
C39   H4    S    
C28   O22   S    
C9    C10   A    
C12   C41   S    
C52   H18   S    
