data_mof_unit_66310.cif
_audit_creation_date              2012-12-10T19:07:50-0500
_audit_creation_method            fapswitch 2.2
_symmetry_space_group_name_H-M    P1
_symmetry_Int_Tables_number       1
_space_group_crystal_system       monoclinic
_cell_length_a                    37.197088
_cell_length_b                    30.288417
_cell_length_c                    21.638253
_cell_angle_alpha                 90.0
_cell_angle_beta                  54.466971
_cell_angle_gamma                 90.0
_cell_volume                      19838.7844977

loop_
_atom_site_label
_atom_site_type_symbol
_atom_type_description
_atom_site_fract_x
_atom_site_fract_y
_atom_site_fract_z
_atom_type_partial_charge
C1    C     C_R   0.086281 0.499965 0.413638 0.866806
C2    C     C_R   0.975007 0.528039 0.243745 -0.133132
C3    C     C_R   0.481089 0.342565 0.969190 0.575663
C4    C     C_R   0.018854 0.842562 0.030910 0.575711
C5    C     C_R   0.981146 0.842562 0.969090 0.575712
C6    C     C_R   0.500000 0.586291 0.000000 0.888336
C7    C     C_R   0.000000 0.086291 0.000000 0.888333
C8    C     C_R   0.040666 0.296527 0.960250 -0.006263
C9    C     C_R   0.959334 0.296527 0.039750 -0.006263
C10   C     C_R   0.540667 0.796527 0.960156 -0.006243
C11   C     C_R   0.459333 0.796527 0.039844 -0.006243
C12   C     C_R   0.040076 0.342532 0.960839 -0.116132
C13   C     C_R   0.524997 0.028036 0.756251 -0.133130
C14   C     C_R   0.959924 0.342532 0.039161 -0.116134
C15   C     C_R   0.540076 0.842532 0.960746 -0.116151
C16   C     C_R   0.459923 0.842532 0.039253 -0.116151
C17   C     C_R   0.000000 0.365497 0.000000 -0.125909
C18   C     C_R   0.500000 0.865497 0.000000 -0.125869
C19   C     C_R   0.518920 0.296793 0.030570 -0.137515
C20   C     C_R   0.481080 0.296793 0.969430 -0.137515
C21   C     C_R   0.018862 0.796790 0.030672 -0.137524
C22   C     C_R   0.981138 0.796790 0.969329 -0.137523
C23   C     C_R   0.000000 0.273641 0.000000 -0.082528
C24   C     C_R   0.475004 0.028036 0.243748 -0.133129
C25   C     C_R   0.500000 0.773641 0.000000 -0.082528
C26   C     C_R   0.500070 0.703163 0.056095 -0.165156
C27   C     C_R   0.499930 0.703163 0.943905 -0.165156
C28   C     C_R   0.000038 0.203163 0.056127 -0.165158
C29   C     C_R   0.999962 0.203163 0.943873 -0.165158
C30   C     C_R   0.500077 0.657410 0.056156 -0.140395
C31   C     C_R   0.499923 0.657410 0.943844 -0.140396
C32   C     C_R   0.000045 0.157410 0.056187 -0.140401
C33   C     C_R   0.999955 0.157410 0.943813 -0.140401
C34   C     C_R   0.500000 0.634299 0.000000 -0.038210
C35   C     C_3   0.056703 0.565517 0.729749 0.384426
C36   C     C_R   0.000000 0.134299 0.000000 -0.038188
C37   C     C_R   0.500000 0.273972 1.000000 0.001279
C38   C     C_R   1.000000 0.773969 0.000000 0.001240
C39   C     C_R   0.959866 0.703141 0.037161 0.618862
C40   C     C_R   0.040133 0.703141 0.962839 0.618864
C41   C     C_R   0.459863 0.203143 0.037269 0.618865
C42   C     C_R   0.540137 0.203143 0.962731 0.618866
C43   C     C_R   0.023934 0.529085 0.695300 -0.128712
C44   C     C_R   0.976068 0.529087 0.304698 -0.128711
C45   C     C_R   0.523936 0.029084 0.695299 -0.128716
C46   C     C_3   0.943302 0.565521 0.270246 0.384423
C47   C     C_R   0.476065 0.029085 0.304701 -0.128715
C48   C     C_R   0.998834 0.499547 0.686672 -0.143253
C49   C     C_R   0.001166 0.499546 0.313328 -0.143256
C50   C     C_R   0.498834 0.999547 0.686672 -0.143250
C51   C     C_R   0.501166 0.999547 0.313328 -0.143252
C52   C     C_R   0.973113 0.468314 0.744458 -0.249113
C53   C     C_R   0.026885 0.468313 0.255544 -0.249111
C54   C     C_R   0.473112 0.968316 0.744459 -0.249116
C55   C     C_R   0.526888 0.968315 0.255541 -0.249116
C56   C     C_R   0.972966 0.468226 0.809363 0.641804
C57   C     C_3   0.556707 0.065514 0.729745 0.384429
C58   C     C_R   0.027032 0.468224 0.190638 0.641802
C59   C     C_R   0.472964 0.968227 0.809365 0.641805
C60   C     C_R   0.527036 0.968227 0.190636 0.641805
C61   C     C_2   0.366432 0.434073 0.210376 0.614165
C62   C     C_2   0.633567 0.434068 0.789633 0.614156
C63   C     C_2   0.866432 0.934071 0.210372 0.614130
C64   C     C_2   0.133568 0.934071 0.789628 0.614129
C65   C     C_2   0.083793 0.272846 0.918025 0.449204
C66   C     C_2   0.916207 0.272846 0.081975 0.449204
C67   C     C_2   0.583794 0.772846 0.917834 0.449200
C68   C     C_3   0.443295 0.065515 0.270254 0.384426
C69   C     C_2   0.416206 0.772846 0.082166 0.449199
C70   C     C_2   0.098251 0.554120 0.585188 0.490954
C71   C     C_2   0.901752 0.554127 0.414808 0.490954
C72   C     C_2   0.598255 0.054114 0.585184 0.490959
C73   C     C_2   0.401746 0.054116 0.414815 0.490958
C74   C     C_3   0.055762 0.566515 0.659229 0.482144
C75   C     C_3   0.944243 0.566519 0.340766 0.482149
C76   C     C_3   0.555766 0.066511 0.659225 0.482145
C77   C     C_R   0.913719 0.499965 0.586362 0.866803
C78   C     C_3   0.444235 0.066512 0.340774 0.482146
C79   C     C_R   0.202966 0.460220 0.285711 -0.049942
C80   C     C_R   0.797034 0.460220 0.714295 -0.049939
C81   C     C_R   0.702966 0.960220 0.285709 -0.049946
C82   C     C_R   0.297034 0.960220 0.714291 -0.049946
C83   C     C_R   0.157200 0.460395 0.331628 -0.195340
C84   C     C_R   0.842800 0.460395 0.668378 -0.195336
C85   C     C_R   0.657200 0.960395 0.331626 -0.195340
C86   C     C_R   0.342800 0.960395 0.668374 -0.195340
C87   C     C_R   0.134298 0.499878 0.365337 -0.066277
C88   C     C_R   0.586281 0.999965 0.413638 0.866806
C89   C     C_R   0.865702 0.499877 0.634663 -0.066277
C90   C     C_R   0.634298 0.999877 0.365336 -0.066278
C91   C     C_R   0.365702 0.999877 0.634664 -0.066277
C92   C     C_R   0.157595 0.539190 0.352554 -0.146165
C93   C     C_R   0.842404 0.539189 0.647442 -0.146182
C94   C     C_R   0.657596 0.039190 0.352554 -0.146160
C95   C     C_R   0.342404 0.039190 0.647446 -0.146163
C96   C     C_R   0.203401 0.538875 0.307226 -0.048393
C97   C     C_R   0.796599 0.538874 0.692770 -0.048395
C98   C     C_R   0.703401 0.038875 0.307226 -0.048389
C99   C     C_R   0.413719 0.999965 0.586362 0.866806
C100  C     C_R   0.296599 0.038875 0.692774 -0.048390
C101  C     C_R   0.226109 0.499381 0.273841 0.227506
C102  C     C_R   0.773891 0.499381 0.726159 0.227505
C103  C     C_R   0.726109 0.999381 0.273840 0.227505
C104  C     C_R   0.273891 0.999381 0.726160 0.227505
C105  C     C_R   0.999780 0.499936 0.620183 0.901240
C106  C     C_R   0.000219 0.499936 0.379817 0.901239
C107  C     C_R   0.499781 0.999936 0.620183 0.901241
C108  C     C_R   0.500219 0.999936 0.379817 0.901240
C109  C     C_R   0.297446 0.527174 0.163760 0.523352
C110  C     C_R   0.999631 0.498600 0.815025 -0.183200
C111  C     C_R   0.702554 0.527177 0.836236 0.523353
C112  C     C_R   0.797446 0.027176 0.163761 0.523345
C113  C     C_R   0.202554 0.027176 0.836239 0.523345
C114  C     C_R   0.343145 0.526479 0.117942 0.587536
C115  C     C_R   0.656855 0.526482 0.882054 0.587533
C116  C     C_R   0.843145 0.026480 0.117943 0.587539
C117  C     C_R   0.156855 0.026480 0.882057 0.587539
C118  C     C_R   0.365961 0.497323 0.134057 -0.432482
C119  C     C_R   0.634039 0.497323 0.865943 -0.432479
C120  C     C_R   0.865961 0.997323 0.134057 -0.432494
C121  C     C_R   0.000369 0.498600 0.184975 -0.183196
C122  C     C_R   0.134039 0.997323 0.865943 -0.432495
C123  C     C_R   0.342807 0.467856 0.196335 -0.252184
C124  C     C_R   0.657193 0.467853 0.803669 -0.252184
C125  C     C_R   0.842807 0.967854 0.196333 -0.252197
C126  C     C_R   0.157193 0.967854 0.803666 -0.252196
C127  C     C_R   0.296564 0.469540 0.243027 0.636300
C128  C     C_R   0.703436 0.469537 0.756978 0.636302
C129  C     C_R   0.796564 0.969538 0.243025 0.636304
C130  C     C_R   0.203436 0.969538 0.756975 0.636302
C131  C     C_R   0.274141 0.498924 0.226401 -0.342521
C132  C     C_R   0.499631 0.998600 0.815025 -0.183200
C133  C     C_R   0.725859 0.498924 0.773600 -0.342522
C134  C     C_R   0.774141 0.998924 0.226400 -0.342521
C135  C     C_R   0.225859 0.998924 0.773600 -0.342521
C136  C     C_R   1.000000 0.634266 0.000000 -0.233948
C137  C     C_R   0.500000 0.134267 0.000000 -0.233959
C138  C     C_R   1.000000 0.726074 0.000000 -0.144798
C139  C     C_R   0.500000 0.226076 1.000000 -0.144817
C140  C     C_R   0.500000 0.725792 0.000000 0.022059
C141  C     C_R   0.000000 0.225793 0.000000 0.022067
C142  C     C_R   0.000000 0.413580 0.000000 0.902283
C143  C     C_R   0.500369 0.998600 0.184975 -0.183199
C144  C     C_R   0.500000 0.913580 0.000000 0.902276
C145  C     C_R   0.959907 0.657368 0.037227 -0.251418
C146  C     C_R   0.040093 0.657368 0.962773 -0.251422
C147  C     C_R   0.459903 0.157369 0.037335 -0.251432
C148  C     C_R   0.540097 0.157369 0.962665 -0.251433
C149  C     C_R   0.999930 0.499715 0.880162 0.930535
C150  C     C_R   0.000070 0.499715 0.119838 0.930538
C151  C     C_R   0.499930 0.999715 0.880162 0.930534
C152  C     C_R   0.500070 0.999715 0.119838 0.930534
C153  C     C_R   0.000000 0.586227 0.000000 0.916285
C154  C     C_R   0.024995 0.528037 0.756253 -0.133131
C155  C     C_R   0.500000 0.086227 0.000000 0.916281
C156  C     C_R   0.500000 0.365728 1.000000 -0.349721
C157  C     C_R   1.000000 0.865726 0.000000 -0.349803
C158  C     C_R   0.500000 0.413712 0.000000 0.923403
C159  C     C_R   0.000000 0.913711 0.000000 0.923284
C160  C     C_R   0.413838 0.498985 0.086153 0.964097
C161  C     C_R   0.586162 0.498985 0.913847 0.964101
C162  C     C_R   0.913837 0.998985 0.086153 0.964059
C163  C     C_R   0.086163 0.998985 0.913847 0.964060
C164  C     C_R   0.518911 0.342565 0.030810 0.575663
F1    F     F_    0.275850 0.554997 0.146453 -0.590870
F2    F     F_    0.726933 0.442475 0.695619 -0.591061
F3    F     F_    0.773066 0.942478 0.304386 -0.591061
F4    F     F_    0.226934 0.942478 0.695614 -0.591061
F5    F     F_    0.538153 0.364042 0.059649 -0.607515
F6    F     F_    0.461847 0.364042 0.940351 -0.607514
F7    F     F_    0.038041 0.864037 0.059848 -0.607460
F8    F     F_    0.961958 0.864037 0.940152 -0.607459
F9    F     F_    0.947814 0.438280 0.865192 -0.638085
F10   F     F_    0.052182 0.438276 0.134812 -0.638087
F11   F     F_    0.447811 0.938282 0.865195 -0.638083
F12   F     F_    0.724150 0.555003 0.853540 -0.590870
F13   F     F_    0.552188 0.938281 0.134806 -0.638084
F14   F     F_    0.920759 0.725072 0.074349 -0.618659
F15   F     F_    0.079241 0.725072 0.925651 -0.618660
F16   F     F_    0.420753 0.225074 0.074563 -0.618645
F17   F     F_    0.579247 0.225074 0.925437 -0.618643
F18   F     F_    0.096672 0.551996 0.714622 -0.632929
F19   F     F_    0.903331 0.552003 0.285374 -0.632931
F20   F     F_    0.596675 0.051990 0.714619 -0.632930
F21   F     F_    0.403326 0.051992 0.285380 -0.632930
F22   F     F_    0.036201 0.604348 0.655371 -0.595629
F23   F     F_    0.775850 0.054999 0.146455 -0.590871
F24   F     F_    0.963807 0.604350 0.344622 -0.595629
F25   F     F_    0.536207 0.104346 0.655364 -0.595630
F26   F     F_    0.463795 0.104346 0.344634 -0.595630
F27   F     F_    0.224150 0.054999 0.853545 -0.590871
F28   F     F_    0.365266 0.554943 0.058440 -0.589358
F29   F     F_    0.634733 0.554949 0.941552 -0.589363
F30   F     F_    0.865267 0.054945 0.058443 -0.589353
F31   F     F_    0.134733 0.054945 0.941557 -0.589353
F32   F     F_    0.273066 0.442481 0.304389 -0.591062
H1    H     H_    0.952973 0.444627 0.739797 0.188710
H2    H     H_    0.071397 0.640112 0.933590 0.219653
H3    H     H_    0.428596 0.140113 0.066605 0.219672
H4    H     H_    0.571404 0.140113 0.933395 0.219672
H5    H     H_    0.533498 0.279072 0.054436 0.207210
H6    H     H_    0.466501 0.279072 0.945564 0.207211
H7    H     H_    0.033394 0.779069 0.054617 0.207232
H8    H     H_    0.966605 0.779069 0.945384 0.207232
H9    H     H_    0.070990 0.360551 0.930646 0.213760
H10   H     H_    0.929010 0.360551 0.069354 0.213760
H11   H     H_    0.570992 0.860551 0.930480 0.213739
H12   H     H_    0.047024 0.444624 0.260206 0.188712
H13   H     H_    0.429008 0.860551 0.069520 0.213739
H14   H     H_    0.500126 0.720972 0.099466 0.164506
H15   H     H_    0.499874 0.720972 0.900534 0.164506
H16   H     H_    0.000069 0.220972 0.099523 0.164501
H17   H     H_    0.999931 0.220972 0.900477 0.164501
H18   H     H_    0.500141 0.640232 0.099985 0.178986
H19   H     H_    0.499858 0.640232 0.900015 0.178986
H20   H     H_    0.000084 0.140232 0.100043 0.178972
H21   H     H_    0.999916 0.140232 0.899957 0.178972
H22   H     H_    0.042227 0.595045 0.767022 0.127911
H23   H     H_    0.452970 0.944629 0.739800 0.188707
H24   H     H_    0.957780 0.595048 0.232971 0.127910
H25   H     H_    0.542233 0.095043 0.767017 0.127911
H26   H     H_    0.457769 0.095044 0.232982 0.127911
H27   H     H_    0.220369 0.429643 0.259221 0.175962
H28   H     H_    0.779631 0.429644 0.740788 0.175964
H29   H     H_    0.720369 0.929643 0.259219 0.175960
H30   H     H_    0.279631 0.929643 0.740782 0.175960
H31   H     H_    0.139822 0.429763 0.340261 0.179325
H32   H     H_    0.860178 0.429764 0.659748 0.179323
H33   H     H_    0.639822 0.929763 0.340259 0.179324
H34   H     H_    0.547029 0.944628 0.260201 0.188707
H35   H     H_    0.360178 0.929763 0.659741 0.179324
H36   H     H_    0.140499 0.570016 0.378044 0.210650
H37   H     H_    0.859501 0.570015 0.621948 0.210655
H38   H     H_    0.640499 0.070016 0.378045 0.210650
H39   H     H_    0.359501 0.070016 0.621954 0.210650
H40   H     H_    0.400434 0.425504 0.166204 0.035572
H41   H     H_    0.599564 0.425503 0.833804 0.035571
H42   H     H_    0.900435 0.925504 0.166202 0.035573
H43   H     H_    0.099565 0.925504 0.833798 0.035573
H44   H     H_    0.085074 0.237068 0.916573 0.096055
H45   H     H_    0.221149 0.569253 0.298579 0.181236
H46   H     H_    0.914926 0.237068 0.083428 0.096055
H47   H     H_    0.585074 0.737068 0.916394 0.096047
H48   H     H_    0.414926 0.737068 0.083606 0.096045
H49   H     H_    0.115034 0.523612 0.580384 0.065487
H50   H     H_    0.884967 0.523620 0.419614 0.065483
H51   H     H_    0.615035 0.023605 0.580382 0.065488
H52   H     H_    0.384965 0.023607 0.419617 0.065488
H53   H     H_    0.778851 0.569252 0.701413 0.181238
H54   H     H_    0.721149 0.069253 0.298580 0.181237
H55   H     H_    0.278851 0.069253 0.701419 0.181237
H56   H     H_    0.928603 0.640112 0.066410 0.219653
O1    O     O_R   0.065460 0.536930 0.434540 -0.601355
O2    O     O_R   0.565500 0.499990 0.986230 -0.547209
O3    O     O_R   0.934500 0.999990 0.013770 -0.547225
O4    O     O_R   0.065500 0.999990 0.986230 -0.547226
O5    O     O_R   0.500010 0.565450 0.051710 -0.615558
O6    O     O_R   0.499990 0.565450 0.948290 -0.615557
O7    O     O_R   0.000010 0.065450 0.051710 -0.615555
O8    O     O_R   0.999990 0.065450 0.948290 -0.615553
O9    O     O_R   0.065420 0.463020 0.434580 -0.628157
O10   O     O_R   0.934580 0.463020 0.565420 -0.628155
O11   O     O_R   0.565420 0.963020 0.434580 -0.628156
O12   O     O_R   0.934540 0.536930 0.565460 -0.601356
O13   O     O_R   0.434580 0.963020 0.565420 -0.628156
O14   O     O_R   0.000000 0.536930 0.591610 -0.564064
O15   O     O_R   0.000000 0.536930 0.408390 -0.564064
O16   O     O_R   0.500000 0.036930 0.591610 -0.564067
O17   O     O_R   0.500000 0.036930 0.408390 -0.564066
O18   O     O_R   0.999960 0.463020 0.591650 -0.629226
O19   O     O_R   0.000040 0.463020 0.408350 -0.629226
O20   O     O_R   0.499960 0.963020 0.591650 -0.629225
O21   O     O_R   0.500040 0.963020 0.408350 -0.629225
O22   O     O_R   0.963030 0.434450 0.036960 -0.612422
O23   O     O_R   0.565460 0.036930 0.434540 -0.601357
O24   O     O_R   0.036970 0.434450 0.963040 -0.612422
O25   O     O_R   0.463030 0.934450 0.036960 -0.612419
O26   O     O_R   0.536970 0.934450 0.963040 -0.612420
O27   O     O_R   0.963010 0.499910 0.945370 -0.585946
O28   O     O_R   0.036990 0.499910 0.054630 -0.585950
O29   O     O_R   0.463010 0.999910 0.945370 -0.585933
O30   O     O_R   0.536990 0.999910 0.054630 -0.585935
O31   O     O_R   0.036930 0.499960 0.871460 -0.582361
O32   O     O_R   0.963070 0.499960 0.128540 -0.582362
O33   O     O_R   0.536930 0.999960 0.871460 -0.582368
O34   O     O_R   0.434540 0.036930 0.565460 -0.601357
O35   O     O_R   0.463070 0.999960 0.128540 -0.582368
O36   O     O_R   0.963000 0.565380 0.037000 -0.619760
O37   O     O_R   0.037000 0.565380 0.963000 -0.619762
O38   O     O_R   0.463000 0.065380 0.037000 -0.619765
O39   O     O_R   0.537000 0.065380 0.963000 -0.619766
O40   O     O_R   0.499940 0.434520 0.051770 -0.577417
O41   O     O_R   0.500060 0.434520 0.948230 -0.577416
O42   O     O_R   0.999940 0.934520 0.051770 -0.577354
O43   O     O_R   0.000060 0.934520 0.948230 -0.577354
O44   O     O_2   0.348209 0.415057 0.271308 -0.450784
O45   O     O_R   0.434510 0.499990 0.117200 -0.648396
O46   O     O_2   0.651792 0.415044 0.728707 -0.450780
O47   O     O_2   0.848208 0.915049 0.271300 -0.450771
O48   O     O_2   0.151792 0.915049 0.728700 -0.450771
O49   O     O_2   0.118681 0.293094 0.884077 -0.519770
O50   O     O_2   0.881318 0.293094 0.115922 -0.519770
O51   O     O_2   0.618684 0.793094 0.883791 -0.519788
O52   O     O_2   0.381316 0.793094 0.116209 -0.519789
O53   O     O_2   0.114116 0.578171 0.529922 -0.516629
O54   O     O_2   0.885889 0.578179 0.470072 -0.516629
O55   O     O_2   0.614122 0.078164 0.529918 -0.516633
O56   O     O_R   0.565490 0.499990 0.882800 -0.648394
O57   O     O_2   0.385880 0.078166 0.470081 -0.516633
O58   O     O_R   0.934510 0.999990 0.117200 -0.648378
O59   O     O_R   0.065490 0.999990 0.882800 -0.648378
O60   O     O_R   0.434500 0.499990 0.013770 -0.547202
Zn1   Zn    Zn3+2 0.000000 0.549330 0.500000 1.140964
Zn2   Zn    Zn3+2 0.500020 0.499990 0.930910 1.095905
Zn3   Zn    Zn3+2 0.999980 0.999990 0.069090 1.095933
Zn4   Zn    Zn3+2 0.000020 0.999990 0.930910 1.095933
Zn5   Zn    Zn3+2 0.500000 0.049330 0.500000 1.140950
Zn6   Zn    Zn3+2 0.000000 0.450620 0.500000 1.006072
Zn7   Zn    Zn3+2 0.500000 0.950620 0.500000 1.006071
Zn8   Zn    Zn3+2 0.950620 0.499900 0.049380 1.102468
Zn9   Zn    Zn3+2 0.049380 0.499900 0.950620 1.102467
Zn10  Zn    Zn3+2 0.450620 0.999900 0.049380 1.102473
Zn11  Zn    Zn3+2 0.549380 0.999900 0.950620 1.102473
Zn12  Zn    Zn3+2 0.499980 0.499990 0.069090 1.095902

loop_
_geom_bond_atom_site_label_1
_geom_bond_atom_site_label_2
_ccdc_geom_bond_type
C1    C87   S    
O35   Zn10  S    
C104  C135  S    
C41   F16   S    
C118  C160  S    
C55   H34   S    
C35   C154  S    
C158  O40   A    
C119  C161  S    
C57   H25   S    
C77   C89   S    
C106  O15   A    
C86   H35   S    
C57   C76   S    
C108  O17   A    
C69   O52   D    
C159  O43   A    
C151  O29   A    
C92   H36   S    
C22   C38   A    
C29   C33   A    
C100  C104  A    
C8    C23   A    
C161  O2    A    
C145  H56   S    
C7    O7    A    
C40   C138  A    
C64   O48   D    
O20   Zn7   S    
O41   Zn2   S    
C58   F10   S    
C42   F17   S    
O26   Zn11  S    
C27   C31   A    
C28   C32   A    
C25   C140  S    
C85   H33   S    
C108  O21   A    
C120  C125  A    
C148  H4    S    
C97   H53   S    
C60   F13   S    
C67   O51   D    
C17   C142  S    
O31   Zn9   S    
C29   H17   S    
C48   C105  S    
C85   C90   A    
C39   C145  A    
C11   C69   S    
C38   C138  S    
C63   C125  S    
O32   Zn8   S    
C14   H10   S    
C50   C107  S    
C39   F14   S    
C2    C121  A    
C105  O18   A    
C107  O20   A    
C88   O23   A    
C68   H26   S    
C112  C134  A    
C53   C58   A    
O6    Zn2   S    
C69   H48   S    
C49   C106  S    
C33   H21   S    
C12   H9    S    
C156  C158  S    
C13   C45   A    
C136  C153  S    
C45   C50   A    
C49   C53   A    
C3    C156  A    
C13   C132  A    
O9    Zn6   S    
C162  O58   A    
C51   C55   A    
C127  C131  A    
C70   H49   S    
O42   Zn3   S    
C125  C129  A    
C48   C52   A    
O17   Zn5   S    
C113  C135  A    
C126  C130  A    
C23   C141  S    
O15   Zn1   S    
C136  C146  A    
C15   C18   A    
C21   H7    S    
C137  C148  A    
C75   F24   S    
C160  O45   A    
C33   C36   A    
C62   C124  S    
O3    Zn4   S    
O37   Zn9   S    
C82   H30   S    
C62   H41   S    
C6    O5    A    
O30   Zn11  S    
C32   C36   A    
C16   H13   S    
C60   C143  A    
C31   H19   S    
C11   C25   A    
C24   C143  A    
C19   H5    S    
C137  C155  S    
C21   C38   A    
C2    C44   A    
C144  O25   A    
C43   C154  A    
C19   C37   A    
C120  C162  S    
C116  F30   S    
C39   C138  A    
C106  O19   A    
C161  O56   A    
C14   C17   A    
C151  O33   A    
C71   O54   D    
C46   C75   S    
C152  O30   A    
C54   C59   A    
C46   H24   S    
C30   C34   A    
C111  F12   S    
O14   Zn1   S    
C9    C23   A    
C65   O49   D    
C116  C120  A    
C80   C102  A    
C146  H2    S    
C117  C122  A    
C70   C74   S    
C117  F31   S    
C123  C127  A    
C4    C157  A    
C8    C12   A    
C61   O44   D    
C29   C141  A    
C149  O31   A    
C31   C34   A    
C26   H14   S    
C109  C114  A    
C113  C117  A    
C10   C25   A    
O27   Zn8   S    
C26   C30   A    
C115  C119  A    
C93   C97   A    
C112  C116  A    
C81   C103  A    
C99   O34   A    
C82   C104  A    
C158  O41   A    
C79   H27   S    
C63   O47   D    
C40   C146  A    
C61   C123  S    
C102  C133  S    
C20   H6    S    
C20   C37   A    
O43   Zn4   S    
C5    F8    S    
C149  O27   A    
C89   C93   A    
C96   H45   S    
C91   C95   A    
C32   H20   S    
C130  F4    S    
O34   Zn5   S    
C107  O16   A    
C79   C101  A    
C28   C141  A    
C47   C78   S    
C91   C99   S    
C55   C60   A    
C57   F20   S    
C15   H11   S    
O7    Zn3   S    
C83   C87   A    
C35   C74   S    
O25   Zn10  S    
C7    C36   S    
C147  H3    S    
C130  C135  A    
C80   C84   A    
C100  H55   S    
C42   C148  A    
C112  F23   S    
C54   H23   S    
C50   C54   A    
C45   C76   S    
C103  C134  S    
C26   C140  A    
C86   C91   A    
C94   C98   A    
C98   C103  A    
O18   Zn6   S    
O5    Zn12  S    
O1    Zn1   S    
C153  O37   A    
C12   C17   A    
C109  C131  A    
C65   H44   S    
C73   O57   D    
C97   C102  A    
C124  C128  A    
C157  C159  S    
C96   C101  A    
C7    O8    A    
C1    O1    A    
C90   C94   A    
O58   Zn3   S    
C68   C78   S    
C59   C132  A    
C77   O10   A    
O36   Zn8   S    
C98   H54   S    
C67   H47   S    
C95   C100  A    
C47   C51   A    
C93   H37   S    
C119  C124  A    
C6    C34   S    
C9    C14   A    
C70   O53   D    
O12   Zn1   S    
C80   H28   S    
C40   F15   S    
C11   C16   A    
O8    Zn4   S    
C3    C20   A    
C150  O32   A    
O11   Zn7   S    
C109  F1    S    
O28   Zn9   S    
C101  C131  S    
C143  C152  S    
C88   C90   S    
C64   C126  S    
C155  O38   A    
C163  O59   A    
C142  O24   A    
C66   O50   D    
C58   C121  A    
C53   H12   S    
C137  C147  A    
C94   H38   S    
C162  O3    A    
O40   Zn12  S    
C3    F6    S    
C22   H8    S    
C28   H16   S    
C56   F9    S    
C6    O6    A    
C18   C144  S    
C82   C86   A    
C127  F32   S    
O21   Zn7   S    
C79   C83   A    
O22   Zn8   S    
O23   Zn5   S    
O60   Zn2   S    
C118  C123  A    
C150  O28   A    
C41   C139  A    
C24   C68   S    
C129  C134  A    
O2    Zn12  S    
C13   C57   S    
C132  C151  S    
C144  O26   A    
C52   H1    S    
C71   H50   S    
C74   F22   S    
C44   C49   A    
C4    C21   A    
C77   O12   A    
C78   F26   S    
C159  O42   A    
C92   C96   A    
C72   C76   S    
C110  C149  S    
O38   Zn10  S    
C63   H42   S    
C152  O35   A    
C73   H52   S    
C83   H31   S    
C10   C67   S    
C2    C46   S    
C35   F18   S    
C81   H29   S    
C72   H51   S    
C59   F11   S    
C10   C15   A    
C30   H18   S    
C121  C150  S    
C9    C66   S    
C64   H43   S    
C76   F25   S    
C72   O55   D    
O33   Zn11  S    
C160  O60   A    
C5    C22   A    
C51   C108  S    
C73   C78   S    
C43   C48   A    
C142  O22   A    
C136  C145  A    
C43   C74   S    
C115  F29   S    
O59   Zn4   S    
C128  F2    S    
C164  F5    S    
C95   H39   S    
C56   C110  A    
O45   Zn12  S    
C113  F27   S    
C114  F28   S    
C129  F3    S    
O24   Zn9   S    
C111  C133  A    
C66   H46   S    
C105  O14   A    
C122  C163  S    
C46   F19   S    
C122  C126  A    
C44   C75   S    
C110  C154  A    
O4    Zn3   S    
C41   C147  A    
O39   Zn11  S    
C153  O36   A    
C27   H15   S    
C114  C118  A    
C4    F7    S    
O56   Zn2   S    
C1    O9    A    
C68   F21   S    
C62   O46   D    
C84   C89   A    
C84   H32   S    
C35   H22   S    
C87   C92   A    
C99   O13   A    
C155  O39   A    
C42   C139  A    
O13   Zn7   S    
C24   C47   A    
O29   Zn10  S    
C5    C157  A    
C27   C140  A    
O10   Zn6   S    
C128  C133  A    
C71   C75   S    
O16   Zn5   S    
O19   Zn6   S    
C19   C164  A    
C163  O4    A    
C81   C85   A    
C8    C65   S    
C156  C164  A    
C16   C18   A    
C37   C139  S    
C61   H40   S    
C111  C115  A    
C52   C56   A    
C88   O11   A    
