data_mof_unit_49327.cif
_audit_creation_date              2012-12-10T17:48:48-0500
_audit_creation_method            fapswitch 2.2
_symmetry_space_group_name_H-M    P1
_symmetry_Int_Tables_number       1
_space_group_crystal_system       triclinic
_cell_length_a                    15.743212
_cell_length_b                    10.715512
_cell_length_c                    9.907426
_cell_angle_alpha                 91.361411
_cell_angle_beta                  89.953537
_cell_angle_gamma                 91.613718
_cell_volume                      1670.21437827

loop_
_atom_site_label
_atom_site_type_symbol
_atom_type_description
_atom_site_fract_x
_atom_site_fract_y
_atom_site_fract_z
_atom_type_partial_charge
C1    C     C_R   0.507564 0.260941 0.498915 0.863902
C2    C     C_R   0.575081 0.075583 0.856758 -0.244250
C3    C     C_R   0.529826 0.963725 0.876093 0.062139
C4    C     C_R   0.338410 0.499659 0.500119 0.905395
C5    C     C_R   0.496718 0.897113 0.763355 -0.121001
C6    C     C_R   0.506965 0.943615 0.631212 0.066480
C7    C     C_R   0.535333 0.067308 0.618866 0.106480
C8    C     C_R   0.516325 0.128231 0.498092 -0.102460
C9    C     C_R   0.488929 0.061175 0.383128 -0.224903
C10   C     C_R   0.478096 0.934264 0.388180 -0.193804
C11   C     C_R   0.488846 0.874041 0.510082 -0.114988
C12   C     C_3   0.949363 0.418873 0.612138 -0.413862
C13   C     C_R   0.390986 0.333611 0.136421 -0.217798
C14   C     C_R   0.337843 0.250179 0.064767 -0.328865
C15   C     C_R   0.336796 0.250105 0.923956 0.468884
C16   C     C_R   0.494439 0.740067 0.502701 0.887906
C17   C     C_R   0.389613 0.334423 0.856399 -0.146497
C18   C     C_R   0.445710 0.418354 0.925907 0.076372
C19   C     C_R   0.446025 0.418172 0.070417 0.168743
C20   C     C_R   0.552575 0.577014 0.073417 -0.028538
C21   C     C_R   0.552486 0.577098 0.930261 -0.070258
C22   C     C_R   0.661609 0.500365 0.499940 0.905284
C23   C     C_3   0.917478 0.508838 0.504091 0.256530
C24   C     C_3   0.047269 0.418692 0.612282 -0.395484
C25   C     C_3   0.048410 0.463593 0.364429 -0.407491
C26   C     C_3   0.950496 0.463859 0.364308 -0.411237
C27   C     C_1   0.750507 0.502586 0.500249 -0.163953
C28   C     C_3   0.082960 0.508469 0.504270 0.245001
C29   C     C_2   0.517339 0.918154 0.014297 0.332429
C30   C     C_2   0.093339 0.702157 0.660073 0.435414
C31   C     C_2   0.914693 0.702432 0.660041 0.425298
C32   C     C_3   0.953074 0.644463 0.533453 -0.217898
C33   C     C_3   0.052792 0.644251 0.533502 -0.227744
C34   C     C_1   0.825829 0.505273 0.501597 -0.084239
C35   C     C_1   0.174437 0.504550 0.501945 -0.073785
C36   C     C_1   0.249634 0.501774 0.500610 -0.136331
C37   C     C_R   0.577824 0.127391 0.729338 -0.143510
H1    H     H_    0.924149 0.322401 0.590104 0.193328
H2    H     H_    0.595270 0.640380 0.128722 0.142550
H3    H     H_    0.068675 0.322127 0.590384 0.200719
H4    H     H_    0.387117 0.328973 0.243377 0.224833
H5    H     H_    0.297013 0.186016 0.119603 0.161363
H6    H     H_    0.384427 0.331204 0.749410 0.223146
H7    H     H_    0.595062 0.640562 0.877993 0.143675
H8    H     H_    0.073399 0.525544 0.284030 0.174993
H9    H     H_    0.069966 0.367552 0.340024 0.187343
H10   H     H_    0.925080 0.367954 0.339781 0.186076
H11   H     H_    0.928210 0.525990 0.283896 0.170522
H12   H     H_    0.071650 0.445899 0.714354 0.163609
H13   H     H_    0.074807 0.702466 0.447664 0.172319
H14   H     H_    0.550678 0.964206 0.098265 0.061463
H15   H     H_    0.251647 0.115546 0.911529 0.346385
H16   H     H_    0.082105 0.661167 0.757744 0.048060
H17   H     H_    0.924175 0.661356 0.757688 0.045276
H18   H     H_    0.925859 0.446101 0.714164 0.158151
H19   H     H_    0.933528 0.702827 0.447648 0.169353
H20   H     H_    0.474378 0.106691 0.289733 0.171166
H21   H     H_    0.612150 0.215525 0.718573 0.161967
H22   H     H_    0.604564 0.126082 0.941253 0.135828
H23   H     H_    0.459193 0.813474 0.781846 0.207840
H24   H     H_    0.460036 0.883176 0.296742 0.213850
N1    N     N_R   0.499210 0.498800 0.142780 -0.117336
N2    N     N_R   0.499180 0.498720 0.857170 -0.120042
O1    O     O_R   0.500000 0.316780 0.614690 -0.646547
O2    O     O_3   0.284633 0.169327 0.849105 -0.750933
O3    O     O_2   0.139204 0.795580 0.653208 -0.542869
O4    O     O_2   0.872582 0.796021 0.653221 -0.561555
O5    O     O_R   0.499990 0.316750 0.385360 -0.647670
O6    O     O_R   0.377150 0.500020 0.614720 -0.626486
O7    O     O_R   0.377140 0.499990 0.385380 -0.626823
O8    O     O_R   0.500010 0.683250 0.614640 -0.633321
O9    O     O_R   0.500000 0.683220 0.385310 -0.601412
O10   O     O_R   0.622860 0.500010 0.614620 -0.620027
O11   O     O_R   0.622850 0.499980 0.385280 -0.618831
O12   O     O_2   0.468636 0.830354 0.036420 -0.588693
Zn1   Zn    Zn3+2 0.500010 0.500020 0.653130 0.945122
Zn2   Zn    Zn3+2 0.499990 0.499980 0.346870 0.956252

loop_
_geom_bond_atom_site_label_1
_geom_bond_atom_site_label_2
_ccdc_geom_bond_type
C4    C36   S    
C1    C8    S    
N1    Zn2   S    
C35   C36   T    
C16   O9    A    
C4    O7    A    
C7    C8    A    
C25   C28   S    
C31   O4    D    
C12   C23   S    
C5    C6    A    
C18   N2    A    
N2    Zn1   S    
C19   N1    A    
C15   O2    S    
O5    Zn2   S    
C1    O5    A    
O6    Zn1   S    
C18   C19   A    
C23   C26   S    
C3    C29   S    
C28   C35   S    
C8    C9    A    
O11   Zn2   S    
C9    C10   A    
C37   H21   S    
C5    H23   S    
C26   H11   S    
C14   H5    S    
C13   C14   A    
O7    Zn2   S    
C12   H1    S    
C16   O8    A    
C13   H4    S    
C4    O6    A    
C27   C34   T    
C7    C37   A    
C30   H16   S    
C13   C19   A    
C6    C11   A    
C20   H2    S    
C2    H22   S    
C25   C26   S    
C17   H6    S    
O9    Zn2   S    
C21   H7    S    
C11   C16   S    
C31   C32   S    
C23   C34   S    
C17   C18   A    
O1    Zn1   S    
C30   O3    D    
C26   H10   S    
C28   C33   S    
C22   C27   S    
O10   Zn1   S    
C10   H24   S    
C22   O11   A    
C1    O1    A    
C25   H8    S    
C29   H14   S    
C24   H12   S    
C15   C17   A    
C30   C33   S    
C24   C28   S    
C3    C5    A    
C6    C7    A    
C29   O12   D    
C12   C24   S    
C23   C32   S    
C2    C3    A    
C33   H13   S    
C32   C33   S    
C2    C37   A    
O8    Zn1   S    
C24   H3    S    
C9    H20   S    
C31   H17   S    
C20   N1    A    
C21   N2    A    
C12   H18   S    
C10   C11   A    
C20   C21   A    
C14   C15   A    
C22   O10   A    
C25   H9    S    
C32   H19   S    
H15   O2    S    
