data_mof_unit_7333.cif
_audit_creation_date              2012-12-11T14:46:25-0500
_audit_creation_method            fapswitch 2.2
_symmetry_space_group_name_H-M    P1
_symmetry_Int_Tables_number       1
_space_group_crystal_system       triclinic
_cell_length_a                    17.449976
_cell_length_b                    17.549482
_cell_length_c                    6.929744
_cell_angle_alpha                 89.999509
_cell_angle_beta                  89.396782
_cell_angle_gamma                 89.999961
_cell_volume                      2122.03360781

loop_
_atom_site_label
_atom_site_type_symbol
_atom_type_description
_atom_site_fract_x
_atom_site_fract_y
_atom_site_fract_z
_atom_type_partial_charge
O1    O     O_R   0.796490 0.328940 0.373020 -0.526032
O2    O     O_R   0.203510 0.671060 0.626980 -0.524698
O3    O     O_R   0.203510 0.828940 0.626980 -0.526036
O4    O     O_R   0.796490 0.171060 0.373020 -0.524700
O5    O     O_R   0.805560 0.173330 0.702970 -0.526753
O6    O     O_R   0.194440 0.826670 0.297030 -0.528922
O7    O     O_R   0.194440 0.673330 0.297030 -0.526746
O8    O     O_R   0.805560 0.326670 0.702970 -0.528927
O9    O     O_R   0.658440 0.172360 0.870170 -0.533415
O10   O     O_R   0.341560 0.827640 0.129830 -0.534471
O11   O     O_R   0.341560 0.672360 0.129830 -0.533415
O12   O     O_R   0.658440 0.327640 0.870170 -0.534469
C1    C     C_R   0.822924 0.145016 0.533321 0.803785
C2    C     C_R   0.176901 0.854809 0.466626 0.801888
C3    C     C_R   0.177076 0.645015 0.466680 0.803795
C4    C     C_R   0.823099 0.354809 0.533372 0.801876
O13   O     O_3   0.679200 0.250000 0.537050 -0.383902
O14   O     O_3   0.320800 0.750000 0.462950 -0.383906
V1    V     V_3+5 0.736420 0.250000 0.813120 1.636245
V2    V     V_3+5 0.263580 0.750000 0.186880 1.636273
O15   O     O_R   0.649370 0.327980 0.199650 -0.538285
O16   O     O_R   0.350630 0.672020 0.800350 -0.538030
O17   O     O_R   0.350630 0.827980 0.800350 -0.538286
O18   O     O_R   0.649370 0.172020 0.199650 -0.538027
C5    C     C_R   0.629709 0.353749 0.030666 0.772005
C6    C     C_R   0.370319 0.646275 0.969332 0.774358
C7    C     C_R   0.370291 0.853749 0.969333 0.771996
C8    C     C_R   0.629681 0.146275 0.030669 0.774359
H1    H     H_    0.961546 0.136439 0.680198 0.176708
H2    H     H_    0.036997 0.862538 0.323857 0.197433
H3    H     H_    0.038455 0.636436 0.319791 0.176792
H4    H     H_    0.963001 0.362538 0.676154 0.197395
V3    V     V_3+5 0.718510 0.250000 0.312740 1.615460
V4    V     V_3+5 0.281490 0.750000 0.687260 1.615463
O19   O     O_3   0.775740 0.250000 0.038930 -0.358201
O20   O     O_3   0.224260 0.750000 0.961070 -0.358197
C9    C     C_1   0.573479 0.083646 0.019717 -0.117946
C10   C     C_1   0.426514 0.916361 0.980302 -0.113648
C11   C     C_1   0.426521 0.583646 0.980285 -0.117961
C12   C     C_1   0.573486 0.416361 0.019696 -0.113661
C13   C     C_1   0.527205 0.031072 0.007688 0.066846
C14   C     C_1   0.472795 0.968928 0.992343 0.067682
C15   C     C_1   0.472795 0.531072 0.992313 0.066844
C16   C     C_1   0.527205 0.468928 0.007655 0.067682
C17   C     C_R   0.877626 0.079976 0.514385 -0.212891
C18   C     C_R   0.122229 0.919829 0.484939 -0.212932
C19   C     C_R   0.122375 0.579975 0.485621 -0.212907
C20   C     C_R   0.877772 0.419827 0.515054 -0.212869
C21   C     C_R   0.078197 0.032254 0.665809 0.248895
C22   C     C_R   0.922669 0.968617 0.330560 0.324669
C23   C     C_R   0.921811 0.532247 0.334167 0.248720
C24   C     C_R   0.077329 0.468618 0.669456 0.324675
C25   C     C_R   0.138620 0.982882 0.605331 0.379165
C26   C     C_R   0.861964 0.017785 0.390359 0.371725
C27   C     C_R   0.861385 0.482877 0.394644 0.379159
C28   C     C_R   0.138035 0.517786 0.609658 0.371748
C29   C     C_R   0.049706 0.913935 0.403025 -0.177978
C30   C     C_R   0.949829 0.085568 0.598154 -0.154346
C31   C     C_R   0.950294 0.413934 0.596979 -0.178039
C32   C     C_R   0.050173 0.585566 0.401842 -0.154322
C33   C     C_R   0.993350 0.970809 0.430926 -0.038905
C34   C     C_R   0.006845 0.029390 0.568045 -0.033127
C35   C     C_R   0.006650 0.470808 0.569079 -0.038892
C36   C     C_R   0.993159 0.529386 0.431948 -0.033055
S1    S     S_3+6 0.089282 0.092201 0.873567 0.115015
O21   O     O_2   0.014745 0.101420 0.981962 -0.346548
O22   O     O_2   0.146194 0.059205 0.011406 -0.233098
O23   O     O_3   0.120474 0.178225 0.801657 -0.371304
H5    H     H_    0.093037 0.188836 0.680202 0.351163
S2    S     S_3+6 0.912971 0.910554 0.119140 0.146169
O24   O     O_2   0.880289 0.834991 0.178570 -0.221022
O25   O     O_2   0.860400 0.946882 0.975692 -0.242490
O26   O     O_3   0.997357 0.895234 0.006078 -0.494921
H6    H     H_    0.019744 0.946464 0.987812 0.352232
S3    S     S_3+6 0.910736 0.592189 0.126391 0.115014
O27   O     O_2   0.985278 0.601392 0.018007 -0.346489
O28   O     O_2   0.853821 0.559196 0.988557 -0.233130
O29   O     O_3   0.879558 0.678222 0.198266 -0.371300
H7    H     H_    0.906842 0.688744 0.320009 0.351151
S4    S     S_3+6 0.087024 0.410562 0.880892 0.146155
O30   O     O_2   0.119725 0.335003 0.821491 -0.221050
O31   O     O_2   0.139579 0.446904 0.024350 -0.242486
O32   O     O_3   0.002635 0.395226 0.993931 -0.494927
H8    H     H_    0.980223 0.446449 0.012117 0.352241
S5    S     S_3+6 0.765323 0.999128 0.323465 0.103884
O33   O     O_2   0.750442 0.035922 0.131919 -0.322570
O34   O     O_2   0.751495 0.914866 0.307954 -0.232555
O35   O     O_3   0.703777 0.034660 0.489011 -0.511319
H9    H     H_    0.652281 0.026978 0.433442 0.347612
S6    S     S_3+6 0.235748 0.002504 0.665278 0.098886
O36   O     O_2   0.248935 0.086957 0.678067 -0.234913
O37   O     O_2   0.252951 0.966463 0.856446 -0.324916
O38   O     O_3   0.295767 0.966826 0.496422 -0.509776
H10   H     H_    0.347673 0.972986 0.550801 0.348153
S7    S     S_3+6 0.234675 0.499132 0.676570 0.103896
O39   O     O_2   0.249550 0.535928 0.868116 -0.322563
O40   O     O_2   0.248505 0.414871 0.692092 -0.232545
O41   O     O_3   0.296223 0.534664 0.511030 -0.511322
H11   H     H_    0.347718 0.526982 0.566607 0.347611
S8    S     S_3+6 0.764260 0.502501 0.334677 0.098831
O42   O     O_2   0.751077 0.586954 0.321865 -0.234993
O43   O     O_2   0.747061 0.466455 0.143513 -0.324910
O44   O     O_3   0.704236 0.466830 0.503531 -0.509770
H12   H     H_    0.652331 0.472989 0.449140 0.348156

loop_
_geom_bond_atom_site_label_1
_geom_bond_atom_site_label_2
_ccdc_geom_bond_type
O10   C7    A    
C30   C34   A    
C28   S7    S    
O38   H10   S    
C20   C27   A    
C13   C14   S    
S7    O39   D    
C3    C19   S    
C15   C16   S    
C4    C20   S    
S7    O41   S    
O1    V3    S    
C2    C18   S    
S5    O33   D    
C22   C26   A    
C21   S1    S    
C20   C31   A    
C23   S3    S    
C10   C14   T    
C5    C12   S    
C6    C11   S    
O15   V3    S    
C7    C10   S    
H2    C29   S    
C18   C25   A    
O26   H6    S    
O4    C1    A    
O13   V1    S    
C19   C32   A    
O9    V1    S    
O10   V2    S    
O23   H5    S    
S1    O22   D    
C27   S8    S    
S2    O24   D    
O17   C7    A    
C23   C27   A    
O2    V4    S    
O7    C3    A    
O8    C4    A    
O13   V3    S    
S4    O32   S    
S5    O34   D    
O16   V4    S    
C17   C30   A    
O8    V1    S    
S4    O31   D    
O29   H7    S    
C11   C15   T    
O11   C6    A    
O11   V2    S    
O7    V2    S    
S8    O44   S    
H3    C32   S    
S3    O27   D    
O6    C2    A    
S3    O28   D    
S6    O37   D    
O32   H8    S    
S1    O23   S    
S2    O26   S    
S8    O43   D    
O1    C4    A    
O35   H9    S    
O2    C3    A    
O14   V4    S    
O3    C2    A    
C17   C26   A    
O41   H11   S    
C18   C29   A    
C25   S6    S    
S6    O38   S    
S5    O35   S    
O15   C5    A    
O4    V3    S    
O17   V4    S    
C21   C34   A    
O5    C1    A    
C23   C36   A    
O18   C8    A    
S4    O30   D    
C24   C35   A    
C26   S5    S    
S7    O40   D    
C29   C33   A    
O5    V1    S    
O6    V2    S    
C31   C35   A    
O18   V3    S    
O3    V4    S    
O12   C5    A    
C32   C36   A    
C22   S2    S    
V1    O19   S    
C1    C17   S    
S6    O36   D    
C8    C9    S    
C21   C25   A    
O12   V1    S    
S8    O42   D    
V3    O19   S    
V4    O20   S    
O14   V2    S    
C9    C13   T    
C33   C34   A    
S3    O29   S    
C35   C36   A    
V2    O20   S    
C12   C16   T    
H1    C30   S    
S1    O21   D    
O16   C6    A    
O44   H12   S    
C22   C33   A    
S2    O25   D    
H4    C31   S    
C24   S4    S    
C24   C28   A    
O9    C8    A    
C19   C28   A    
