data_mof_unit_55899.cif
_audit_creation_date              2012-12-11T17:00:19-0500
_audit_creation_method            fapswitch 2.2
_symmetry_space_group_name_H-M    P1
_symmetry_Int_Tables_number       1
_space_group_crystal_system       triclinic
_cell_length_a                    6.963358
_cell_length_b                    13.601714
_cell_length_c                    20.220617
_cell_angle_alpha                 103.028227
_cell_angle_beta                  89.819452
_cell_angle_gamma                 90.57986
_cell_volume                      1865.77312324

loop_
_atom_site_label
_atom_site_type_symbol
_atom_type_description
_atom_site_fract_x
_atom_site_fract_y
_atom_site_fract_z
_atom_type_partial_charge
O1    O     O_R   0.506770 0.599700 0.449550 -0.538716
O2    O     O_R   0.179980 0.595740 0.587960 -0.547910
O3    O     O_R   0.004580 0.400300 0.550450 -0.545494
C1    C     C_R   0.347910 0.615800 0.615698 0.691061
O4    O     O_R   0.177380 0.611700 0.452380 -0.540898
O5    O     O_R   0.001970 0.416370 0.413900 -0.543392
C2    C     C_R   0.346910 0.638257 0.435720 0.695254
O6    O     O_R   0.509390 0.583630 0.586100 -0.538393
O7    O     O_3   0.337530 0.435890 0.487530 -0.373658
V1    V     V_3+5 0.064660 0.511890 0.502310 1.399179
O8    O     O_R   0.671950 0.404260 0.412040 -0.539226
C3    C     C_R   0.840650 0.382902 0.384762 0.715090
O9    O     O_R   0.674540 0.388300 0.547620 -0.540452
C4    C     C_R   0.842865 0.361371 0.563863 0.748235
V2    V     V_3+5 0.564030 0.488110 0.497690 1.415529
O10   O     O_3   0.841030 0.564110 0.512470 -0.373152
C5    C     C_R   0.871452 0.107585 0.607688 -0.232511
H1    H     H_    0.882368 0.029739 0.580492 0.130133
C6    C     C_R   0.851185 0.282523 0.602243 -0.063805
C7    C     C_R   0.849785 0.315999 0.929616 -0.165430
C8    C     C_R   0.840464 0.391594 0.893720 -0.118874
C9    C     C_R   0.842788 0.367636 0.822996 -0.139036
C10   C     C_R   0.856372 0.266081 0.785864 0.087101
C11   C     C_R   0.868211 0.189202 0.823151 0.002886
C12   C     C_R   0.858363 0.238489 0.713252 0.038962
C13   C     C_R   0.870802 0.134707 0.679342 0.032232
C14   C     C_R   0.885836 0.060169 0.717636 0.281173
C15   C     C_R   0.885030 0.088002 0.788215 -0.221167
C16   C     C_R   0.849243 0.310928 0.673035 -0.265554
C17   C     C_R   0.861968 0.180603 0.569109 0.276386
C18   C     C_R   0.863216 0.215098 0.895139 -0.056771
H2    H     H_    0.841079 0.390663 0.694885 0.100906
H3    H     H_    0.846416 0.336211 0.984605 0.098797
H4    H     H_    0.833493 0.430781 0.799326 0.101136
H5    H     H_    0.830761 0.469649 0.920927 0.123253
H6    H     H_    0.897359 0.028683 0.815685 0.128062
C19   C     C_R   0.707462 0.183100 0.227115 0.109344
C20   C     C_R   0.865678 0.183929 0.184260 -0.110511
C21   C     C_R   0.022161 0.246957 0.210420 -0.183906
H7    H     H_    0.145404 0.251511 0.178702 0.136933
C22   C     C_R   0.015562 0.310042 0.275981 -0.185124
H8    H     H_    0.134152 0.361310 0.292897 0.130301
C23   C     C_R   0.851818 0.312330 0.317319 -0.109480
C24   C     C_R   0.700995 0.245702 0.292169 0.116405
C25   C     C_3   0.495501 0.270180 0.285042 -0.415300
C26   C     C_3   0.502730 0.203549 0.214165 -0.416003
H9    H     H_    0.474316 0.351278 0.285550 0.164918
H10   H     H_    0.401774 0.239318 0.320283 0.175931
H11   H     H_    0.487513 0.246043 0.173507 0.168966
H12   H     H_    0.409312 0.135755 0.208360 0.169894
C27   C     C_R   0.508264 0.748094 0.706096 0.096105
C28   C     C_R   0.351701 0.684386 0.683959 -0.121025
C29   C     C_R   0.192891 0.690249 0.728104 -0.174346
H13   H     H_    0.070622 0.640747 0.713477 0.131525
C30   C     C_R   0.195318 0.755290 0.793112 -0.175340
H14   H     H_    0.075348 0.754331 0.826953 0.131450
C31   C     C_R   0.357227 0.815724 0.816014 -0.119809
C32   C     C_R   0.511397 0.811860 0.770762 0.113110
C33   C     C_3   0.715687 0.787776 0.781224 -0.395418
C34   C     C_3   0.712131 0.719174 0.710890 -0.399033
H15   H     H_    0.732344 0.746217 0.822321 0.161457
H16   H     H_    0.811748 0.854338 0.785219 0.199175
H17   H     H_    0.727416 0.637943 0.711183 0.158010
H18   H     H_    0.804509 0.746181 0.673660 0.189834
C35   C     C_R   0.412630 0.887363 0.387999 -0.164931
H19   H     H_    0.407039 0.838469 0.481717 0.099085
H20   H     H_    0.447234 0.010407 0.303989 0.125939
H21   H     H_    0.439476 0.965377 0.413380 0.107530
C36   C     C_R   0.359089 0.714720 0.395490 -0.030126
C37   C     C_R   0.320854 0.680498 0.067289 0.289861
C38   C     C_R   0.305387 0.605503 0.104107 -0.131095
C39   C     C_R   0.319611 0.628922 0.174605 -0.234298
C40   C     C_R   0.351203 0.729328 0.211310 0.080329
C41   C     C_R   0.370805 0.806027 0.173950 0.031891
C42   C     C_R   0.363858 0.756272 0.283802 0.087683
C43   C     C_R   0.398510 0.858818 0.316965 0.142890
C44   C     C_R   0.419869 0.932191 0.279130 -0.210170
C45   C     C_R   0.406412 0.906285 0.208936 -0.175994
C46   C     C_R   0.343535 0.685181 0.324822 -0.215468
C47   C     C_R   0.393826 0.815555 0.427003 -0.177351
C48   C     C_R   0.353413 0.781432 0.102151 -0.150741
H22   H     H_    0.317213 0.606140 0.303736 0.089520
H23   H     H_    0.304872 0.566257 0.198671 0.121172
H24   H     H_    0.279280 0.527897 0.077804 0.131761
H25   H     H_    0.424998 0.965803 0.182047 0.116061
O11   O     O_R   0.203450 0.916320 0.913910 -0.543380
O12   O     O_R   0.535520 0.888300 0.047620 -0.537676
O13   O     O_R   0.710860 0.083650 0.086100 -0.538596
C49   C     C_R   0.365893 0.860931 0.063631 0.697163
O14   O     O_R   0.532860 0.904250 0.912040 -0.541364
O15   O     O_R   0.708190 0.099710 0.949550 -0.537158
C50   C     C_R   0.364445 0.882118 0.885005 0.694535
O16   O     O_R   0.206120 0.900260 0.050460 -0.541129
O17   O     O_3   0.375280 0.064080 0.012470 -0.370881
V3    V     V_3+5 0.648180 0.988110 0.997690 1.412306
O18   O     O_R   0.038220 0.111740 0.952370 -0.540319
C51   C     C_R   0.870129 0.138040 0.935454 0.685507
O19   O     O_R   0.040880 0.095790 0.087940 -0.544412
C52   C     C_R   0.872313 0.117834 0.115037 0.696166
V4    V     V_3+5 0.148800 0.011950 0.002300 1.405774
O20   O     O_3   0.871820 0.935920 0.987530 -0.372656
N1    N     N_2   0.859196 0.150916 0.496933 -0.539714
H26   H     H_    0.781777 0.085360 0.478700 0.253276
C53   C     C_3   0.046559 0.147959 0.465457 -0.558262
H27   H     H_    0.136045 0.088964 0.479992 0.190888
H28   H     H_    0.120624 0.222217 0.480828 0.217158
H29   H     H_    0.030149 0.129868 0.409385 0.196812
N2    N     N_2   0.902466 0.955812 0.686498 -0.535817
H30   H     H_    0.807127 0.928875 0.647603 0.247847
C54   C     C_3   0.097615 0.922411 0.671706 -0.553979
H31   H     H_    0.097759 0.840180 0.648993 0.197775
H32   H     H_    0.183817 0.936948 0.719115 0.215509
H33   H     H_    0.164808 0.962182 0.635048 0.189836
N3    N     N_2   0.299151 0.653150 0.995316 -0.526647
H34   H     H_    0.245965 0.708523 0.973216 0.244159
C55   C     C_3   0.462322 0.601964 0.959147 -0.563337
H35   H     H_    0.429483 0.580002 0.904031 0.200678
H36   H     H_    0.494526 0.532367 0.976947 0.206338
H37   H     H_    0.590286 0.652797 0.966725 0.191050

loop_
_geom_bond_atom_site_label_1
_geom_bond_atom_site_label_2
_ccdc_geom_bond_type
C30   H14   S    
C31   C50   S    
C40   C42   A    
C22   H8    S    
H20   C44   S    
C1    O6    A    
C53   H28   S    
N3    H34   S    
O14   V3    S    
C21   C22   A    
C29   H13   S    
C37   N3    S    
C26   H11   S    
C13   C14   A    
C35   C43   A    
C1    C28   S    
C34   H17   S    
C5    C13   A    
C3    C23   S    
O5    C3    A    
C20   C21   A    
V2    O10   S    
N2    H30   S    
C40   C41   A    
C37   C48   A    
C54   H31   S    
O8    V2    S    
N2    C54   S    
O12   V3    S    
C10   C11   A    
C37   C38   A    
O1    V2    S    
O11   V4    S    
O7    V1    S    
C48   C49   S    
C25   H9    S    
O13   V3    S    
C33   C34   S    
C35   C47   A    
C8    C9    A    
C5    C17   A    
C22   C23   A    
O17   V3    S    
C53   H27   S    
C29   C30   A    
C12   C16   A    
C9    H4    S    
C33   H15   S    
C27   C28   A    
O13   C52   A    
C43   C44   A    
C21   H7    S    
O4    C2    A    
C20   C52   S    
C12   C13   A    
C44   C45   A    
O2    C1    A    
C42   C43   A    
C2    C36   S    
C19   C20   A    
O14   C50   A    
C54   H33   S    
O9    V2    S    
O17   V4    S    
C35   H21   S    
O18   C51   A    
C17   N1    S    
C5    H1    S    
C27   C32   A    
O15   C51   A    
N1    C53   S    
O16   V4    S    
O3    C4    A    
C7    H3    S    
C45   H25   S    
O6    V2    S    
O19   V4    S    
C30   C31   A    
C23   C24   A    
C36   C46   A    
C41   C48   A    
C6    C16   A    
C28   C29   A    
C38   H24   S    
C25   H10   S    
C33   H16   S    
O1    C2    A    
C4    C6    S    
C24   C25   S    
C11   C15   A    
C39   C40   A    
O5    V1    S    
C46   H22   S    
N3    C55   S    
O8    C3    A    
C8    H5    S    
C16   H2    S    
H19   C47   S    
C26   H12   S    
C55   H37   S    
C34   H18   S    
C19   C24   A    
O12   C49   A    
C32   C33   S    
C11   C18   A    
O4    V1    S    
O3    V1    S    
O11   C50   A    
C31   C32   A    
C14   N2    S    
O18   V4    S    
V4    O20   S    
C55   H36   S    
C55   H35   S    
C18   C51   S    
C49   O16   A    
N1    H26   S    
C54   H32   S    
C39   H23   S    
O15   V3    S    
C25   C26   S    
C38   C39   A    
C10   C12   A    
C7    C8    A    
C15   H6    S    
O19   C52   A    
C41   C45   A    
C14   C15   A    
C9    C10   A    
C36   C47   A    
V1    O10   S    
C27   C34   S    
C19   C26   S    
O9    C4    A    
C6    C17   A    
C42   C46   A    
C53   H29   S    
V3    O20   S    
O7    V2    S    
C7    C18   A    
O2    V1    S    
