data_mof_unit_16327.cif
_audit_creation_date              2012-12-10T17:12:36-0500
_audit_creation_method            fapswitch 2.2
_symmetry_space_group_name_H-M    P1
_symmetry_Int_Tables_number       1
_space_group_crystal_system       triclinic
_cell_length_a                    23.386799
_cell_length_b                    10.676028
_cell_length_c                    10.03702
_cell_angle_alpha                 90.528299
_cell_angle_beta                  89.029855
_cell_angle_gamma                 89.301564
_cell_volume                      2505.36752389

loop_
_atom_site_label
_atom_site_type_symbol
_atom_type_description
_atom_site_fract_x
_atom_site_fract_y
_atom_site_fract_z
_atom_type_partial_charge
C1    C     C_R   0.502074 0.262416 0.498740 0.949763
C2    C     C_R   0.121590 0.539701 0.435421 0.508289
C3    C     C_R   0.230425 0.480465 0.593456 -0.128440
C4    C     C_R   0.389011 0.497612 0.501016 0.846314
C5    C     C_R   0.288619 0.504429 0.608215 0.070973
C6    C     C_R   0.326712 0.477671 0.499045 -0.070360
C7    C     C_R   0.304773 0.424986 0.381255 -0.239221
C8    C     C_R   0.246817 0.403734 0.368576 -0.114471
C9    C     C_R   0.209705 0.433117 0.473974 0.303743
C10   C     C_R   0.761564 0.437211 0.603697 0.026502
C11   C     C_R   0.702052 0.451102 0.605179 -0.178437
C12   C     C_R   0.968050 0.206760 0.477307 0.054309
C13   C     C_R   0.673470 0.501526 0.495557 -0.188274
C14   C     C_R   0.705238 0.542554 0.383088 -0.039133
C15   C     C_R   0.764063 0.520312 0.378469 -0.042506
C16   C     C_R   0.494093 0.737239 0.501217 0.900919
C17   C     C_R   0.792288 0.469096 0.487203 0.175435
C18   C     C_2   0.483475 0.933014 0.392181 -0.193851
C19   C     C_2   0.475591 0.867012 0.504376 -0.043771
C20   C     C_2   0.482862 0.067954 0.392527 -0.166818
C21   C     C_2   0.506534 0.129763 0.493392 -0.355673
C22   C     C_2   0.539331 0.550038 0.927378 -0.058533
C23   C     C_R   0.029066 0.203064 0.474067 -0.037901
C24   C     C_2   0.544595 0.524137 0.073262 -0.153717
C25   C     C_R   0.610752 0.503186 0.498749 0.872309
C26   C     C_R   0.884428 0.562965 0.469208 0.499841
C27   C     C_R   0.878014 0.340124 0.475148 0.487606
C28   C     C_R   0.938700 0.325523 0.470466 -0.065259
C29   C     C_R   0.971116 0.436555 0.457956 -0.039787
C30   C     C_R   0.943376 0.555204 0.453815 0.004564
C31   C     C_3   0.935830 0.083266 0.491583 -0.321383
C32   C     C_3   0.915354 0.064379 0.636377 -0.306038
C33   C     C_3   0.880730 0.944987 0.650627 -0.737548
C34   C     C_R   0.060836 0.315484 0.462478 -0.116207
C35   C     C_2   0.679210 0.615987 0.274096 0.413246
C36   C     C_3   0.446735 0.921059 0.631289 -0.409843
C37   C     C_3   0.397052 0.841368 0.682498 -0.357515
C38   C     C_3   0.361380 0.911116 0.789014 -0.878062
C39   C     C_3   0.470860 0.386985 0.892002 -0.168959
C40   C     C_3   0.511986 0.275273 0.913855 -0.309032
C41   C     C_3   0.479555 0.152187 0.918827 -0.950787
C42   C     C_2   0.059567 0.080525 0.481207 0.476226
C43   C     C_3   0.305744 0.564166 0.738439 -0.417377
C44   C     C_3   0.309707 0.466658 0.848977 -0.322215
C45   C     C_R   0.031352 0.431169 0.451007 -0.023206
C46   C     C_3   0.327501 0.527020 0.980069 -0.889780
C47   C     C_2   0.791239 0.391866 0.724055 0.466558
C48   C     C_R   0.062255 0.543637 0.435517 -0.005626
C49   C     C_R   0.033615 0.658790 0.425015 -0.144097
C50   C     C_R   0.974792 0.664626 0.435310 -0.172426
C51   C     C_R   0.121555 0.318575 0.467791 0.504394
H1    H     H_    0.677762 0.421938 0.692176 0.203551
H2    H     H_    0.954058 0.755581 0.428942 0.180797
H3    H     H_    0.200284 0.503679 0.673455 0.136654
H4    H     H_    0.332504 0.400379 0.297352 0.164908
H5    H     H_    0.230533 0.367649 0.275614 0.142848
H6    H     H_    0.843289 0.947548 0.584022 0.290745
H7    H     H_    0.907920 0.861865 0.625631 0.270599
H8    H     H_    0.865084 0.936387 0.755163 0.246829
H9    H     H_    0.952996 0.057988 0.702166 0.247387
H10   H     H_    0.888765 0.145090 0.672085 0.243864
H11   H     H_    0.900869 0.076373 0.419089 0.245330
H12   H     H_    0.789133 0.548044 0.292067 0.190938
H13   H     H_    0.962376 0.000841 0.461539 0.175611
H14   H     H_    0.639223 0.666704 0.290388 0.077721
H15   H     H_    0.388581 0.937709 0.874164 0.266022
H16   H     H_    0.341569 0.996800 0.746852 0.272127
H17   H     H_    0.326791 0.849612 0.826279 0.257300
H18   H     H_    0.368978 0.814974 0.598696 0.227001
H19   H     H_    0.414463 0.755534 0.728687 0.246135
H20   H     H_    0.479168 0.928464 0.710557 0.201795
H21   H     H_    0.428457 0.015643 0.613626 0.233449
H22   H     H_    0.448193 0.153774 0.003227 0.263764
H23   H     H_    0.497158 0.888496 0.299007 0.169792
H24   H     H_    0.456568 0.136905 0.824335 0.266529
H25   H     H_    0.510090 0.073127 0.932781 0.262530
H26   H     H_    0.544754 0.269821 0.832608 0.245357
H27   H     H_    0.534705 0.286318 0.009220 0.228847
H28   H     H_    0.440957 0.399660 0.976889 0.129414
H29   H     H_    0.441775 0.361975 0.810539 0.218017
H30   H     H_    0.086116 0.048198 0.397767 0.093375
H31   H     H_    0.368942 0.575583 0.967207 0.254958
H32   H     H_    0.294433 0.595813 0.015178 0.276380
H33   H     H_    0.332362 0.453626 0.056751 0.241550
H34   H     H_    0.464687 0.115865 0.307718 0.179668
H35   H     H_    0.267529 0.421563 0.864207 0.226484
H36   H     H_    0.341375 0.392714 0.819692 0.220865
H37   H     H_    0.346234 0.614161 0.728705 0.218446
H38   H     H_    0.273491 0.637233 0.767820 0.206619
H39   H     H_    0.837555 0.389687 0.727419 0.052892
H40   H     H_    0.527225 0.082255 0.575135 0.159993
H41   H     H_    0.571250 0.609332 0.881414 0.157882
H42   H     H_    0.586530 0.526703 0.117103 0.188329
H43   H     H_    0.462374 0.534398 0.112365 0.179992
H44   H     H_    0.056592 0.745516 0.412295 0.199018
N1    N     N_R   0.853253 0.456791 0.479340 -0.353342
N2    N     N_R   0.149548 0.429322 0.455435 -0.349398
N3    N     N_2   0.500610 0.501330 0.852150 -0.113356
N4    N     N_2   0.500630 0.501360 0.147810 -0.206252
O1    O     O_R   0.499990 0.319060 0.613040 -0.633407
O2    O     O_R   0.583840 0.500020 0.613040 -0.609548
O3    O     O_R   0.583850 0.500060 0.386900 -0.624549
O4    O     O_2   0.857980 0.676181 0.473921 -0.581989
O5    O     O_2   0.702922 0.623258 0.165117 -0.559805
O6    O     O_2   0.056294 0.016975 0.581503 -0.560770
O7    O     O_2   0.764267 0.357056 0.821882 -0.556265
O8    O     O_2   0.843197 0.240732 0.475001 -0.576262
O9    O     O_2   0.152780 0.213844 0.488847 -0.556315
O10   O     O_2   0.151551 0.646019 0.418732 -0.551645
O11   O     O_R   0.500010 0.319100 0.386900 -0.596249
O12   O     O_R   0.416150 0.499940 0.613100 -0.642510
O13   O     O_R   0.416160 0.499980 0.386960 -0.616628
O14   O     O_R   0.499990 0.680900 0.613100 -0.619125
O15   O     O_R   0.500010 0.680940 0.386960 -0.626135
Zn1   Zn    Zn3+2 0.499990 0.499970 0.650990 0.919196
Zn2   Zn    Zn3+2 0.500010 0.500030 0.349010 0.937304

loop_
_geom_bond_atom_site_label_1
_geom_bond_atom_site_label_2
_ccdc_geom_bond_type
C51   N2    A    
C2    O10   S    
C1    C21   S    
C33   H7    S    
C22   N3    D    
C37   H18   S    
C24   N4    D    
C7    H4    S    
C16   O14   A    
C8    H5    S    
C7    C8    A    
C42   H30   S    
C12   C23   A    
C34   C51   A    
C37   C38   S    
C23   C42   S    
C12   C28   A    
C43   H37   S    
C36   C37   S    
C32   H10   S    
C19   C36   S    
C5    C6    A    
C26   O4    S    
C3    H3    S    
C25   O3    A    
C35   H14   S    
C10   C17   A    
C18   C19   D    
C11   H1    S    
C46   H31   S    
C38   H15   S    
C2    N2    A    
C51   O9    S    
C9    N2    S    
C44   H36   S    
C18   C20   S    
C36   H20   S    
C47   O7    D    
C4    O13   A    
C33   H8    S    
C13   C14   A    
C31   H11   S    
C13   C25   S    
C27   N1    A    
O1    Zn1   S    
C44   H35   S    
C1    O1    A    
C44   C46   S    
C26   N1    A    
C30   C50   A    
C50   H2    S    
C38   H16   S    
C4    C6    S    
C35   O5    D    
N4    Zn2   S    
C17   N1    S    
C8    C9    A    
C39   N3    S    
C2    C48   A    
C14   C35   S    
C29   C45   A    
C39   H28   S    
C43   C44   S    
C29   C30   A    
C3    C9    A    
C1    O11   A    
C41   H24   S    
O12   Zn1   S    
C31   C32   S    
C27   O8    S    
C23   C34   A    
C20   H34   S    
C34   C45   A    
C43   H38   S    
C49   H44   S    
C46   H33   S    
C48   C49   A    
C4    O12   A    
C38   H17   S    
C26   C30   A    
C12   C31   S    
O2    Zn1   S    
C47   H39   S    
C40   H27   S    
C32   H9    S    
O11   Zn2   S    
O13   Zn2   S    
C21   H40   S    
C45   C48   A    
C15   C17   A    
C28   C29   A    
C33   H6    S    
C14   C15   A    
C31   H13   S    
C3    C5    A    
C16   O15   A    
O15   Zn2   S    
C6    C7    A    
C15   H12   S    
C39   H29   S    
C24   H42   S    
C32   C33   S    
C41   H25   S    
C11   C13   A    
C25   O2    A    
N3    Zn1   S    
H43   N4    S    
C16   C19   S    
C22   C24   S    
C5    C43   S    
C42   O6    D    
O3    Zn2   S    
C10   C11   A    
C41   H22   S    
C46   H32   S    
C39   C40   S    
C20   C21   D    
C18   H23   S    
C49   C50   A    
C10   C47   S    
C22   H41   S    
C40   H26   S    
C40   C41   S    
O14   Zn1   S    
C37   H19   S    
C36   H21   S    
C27   C28   A    
