data_mof_unit_51759.cif
_audit_creation_date              2012-12-10T17:13:13-0500
_audit_creation_method            fapswitch 2.2
_symmetry_space_group_name_H-M    P1
_symmetry_Int_Tables_number       1
_space_group_crystal_system       triclinic
_cell_length_a                    11.841187
_cell_length_b                    12.937555
_cell_length_c                    13.793974
_cell_angle_alpha                 87.134903
_cell_angle_beta                  93.004102
_cell_angle_gamma                 101.58108
_cell_volume                      2065.63320416

loop_
_atom_site_label
_atom_site_type_symbol
_atom_type_description
_atom_site_fract_x
_atom_site_fract_y
_atom_site_fract_z
_atom_type_partial_charge
C1    C     C_R   0.477940 0.299602 0.503149 0.836955
C2    C     C_R   0.522088 0.700853 0.498777 0.861313
C3    C     C_R   0.531198 0.030865 0.463482 -0.086024
C4    C     C_R   0.489184 0.976621 0.551266 -0.095320
C5    C     C_R   0.025339 0.376940 0.561059 0.275336
C6    C     C_R   0.974696 0.620743 0.425599 0.302741
C7    C     C_R   0.147173 0.395996 0.566840 -0.020700
C8    C     C_R   0.851125 0.603929 0.430519 -0.001325
C9    C     C_R   0.155320 0.549158 0.463106 0.594762
C10   C     C_R   0.846143 0.449863 0.532300 0.603092
C11   C     C_R   0.032596 0.542641 0.469035 -0.226349
C12   C     C_R   0.967274 0.455599 0.520560 -0.278228
C13   C     C_R   0.520105 0.501659 0.681844 0.825849
C14   C     C_R   0.479673 0.495713 0.318342 0.819901
C15   C     C_1   0.465270 0.491819 0.215300 -0.149991
C16   C     C_1   0.534561 0.504371 0.784922 -0.131575
C17   C     C_2   0.449674 0.486692 0.023148 0.384680
C18   C     C_2   0.549897 0.509157 0.977144 0.384570
C19   C     C_1   0.543797 0.506723 0.871883 -0.071407
C20   C     C_1   0.455911 0.489122 0.128380 -0.086503
C21   C     C_R   0.533485 0.815184 0.493001 -0.116958
C22   C     C_R   0.467596 0.186441 0.514037 -0.137072
C23   C     C_R   0.452755 0.034216 0.625004 -0.027206
C24   C     C_R   0.587035 0.978431 0.397774 -0.016979
C25   C     C_R   0.439736 0.137690 0.604076 -0.269887
C26   C     C_R   0.585600 0.871237 0.413269 -0.292720
C27   C     C_R   0.511674 0.134007 0.442960 0.414529
C28   C     C_R   0.480757 0.865847 0.560427 0.411435
Cu1   Cu    Cu3+1 0.615220 0.507680 0.492970 1.019814
Cu2   Cu    Cu3+1 0.384780 0.492320 0.507030 0.978656
H1    H     H_    0.621812 0.830029 0.360367 0.195604
H2    H     H_    0.415620 0.183495 0.660568 0.184723
N1    N     N_R   0.788370 0.519230 0.482390 -0.271386
N2    N     N_R   0.211630 0.480770 0.517610 -0.292010
O1    O     O_R   0.581500 0.354430 0.495010 -0.508169
O2    O     O_R   0.418500 0.645570 0.504990 -0.531078
O3    O     O_R   0.386890 0.341450 0.506880 -0.598935
O4    O     O_R   0.613110 0.658550 0.493120 -0.570297
O5    O     O_R   0.611060 0.507430 0.631070 -0.593956
O6    O     O_R   0.388940 0.492570 0.368930 -0.600396
O7    O     O_R   0.416450 0.494450 0.642940 -0.540157
O8    O     O_R   0.583550 0.505550 0.357060 -0.518986
O9    O     O_3   0.653794 0.532643 0.032575 -0.579949
C29   C     C_3   0.751463 0.563407 0.975519 0.089202
H3    H     H_    0.744127 0.634454 0.928457 0.154590
H4    H     H_    0.762144 0.497629 0.930131 0.132486
C30   C     C_3   0.858675 0.591048 0.042273 -0.764921
H5    H     H_    0.868570 0.521709 0.090405 0.248845
H6    H     H_    0.936329 0.614455 0.998309 0.187735
H7    H     H_    0.851501 0.657744 0.087708 0.259781
O10   O     O_3   0.345749 0.462781 0.967805 -0.579176
C31   C     C_3   0.247394 0.441508 0.024767 0.068350
H8    H     H_    0.242485 0.511090 0.067461 0.135917
H9    H     H_    0.248781 0.371134 0.074393 0.140265
C32   C     C_3   0.139640 0.418425 0.958068 -0.736347
H10   H     H_    0.140715 0.348234 0.915185 0.269410
H11   H     H_    0.061559 0.402481 0.001957 0.184269
H12   H     H_    0.135837 0.487338 0.907495 0.249294
O11   O     O_3   0.418318 0.804983 0.632668 -0.567455
C33   C     C_3   0.298838 0.794082 0.608637 0.091037
H13   H     H_    0.277510 0.772116 0.531907 0.201722
H14   H     H_    0.269124 0.868700 0.619370 0.151094
C34   C     C_3   0.231715 0.708100 0.674490 -0.697139
H15   H     H_    0.246311 0.730738 0.751428 0.246310
H16   H     H_    0.138056 0.696877 0.654605 0.191096
H17   H     H_    0.260303 0.632458 0.666562 0.270142
O12   O     O_3   0.536322 0.185117 0.353736 -0.554972
C35   C     C_3   0.434125 0.171859 0.294180 0.028675
H18   H     H_    0.375754 0.221915 0.318792 0.137070
H19   H     H_    0.387642 0.087768 0.294400 0.140241
C36   C     C_3   0.464956 0.205970 0.190163 -0.726497
H20   H     H_    0.385050 0.204300 0.143867 0.190283
H21   H     H_    0.517652 0.287215 0.187672 0.260816
H22   H     H_    0.515340 0.151639 0.161059 0.259512
C37   C     C_2   0.440251 0.994896 0.727644 0.893961
O13   O     O_2   0.507853 0.943566 0.766026 -0.552279
O14   O     O_R   0.354135 0.020994 0.781820 -0.772098
H23   H     H_    0.355036 0.990891 0.851077 0.332813
C38   C     C_2   0.654114 0.031785 0.315243 0.921396
O15   O     O_2   0.724178 0.114056 0.326926 -0.579086
O16   O     O_R   0.641685 0.984489 0.225330 -0.788348
H24   H     H_    0.693167 0.027269 0.175135 0.330982
O17   O     O_3   0.784622 0.373313 0.593353 -0.529069
C39   C     C_3   0.810066 0.401540 0.691147 0.120821
H25   H     H_    0.794247 0.481586 0.703542 0.125960
H26   H     H_    0.901563 0.401618 0.713513 0.162036
C40   C     C_3   0.734449 0.321171 0.756626 -0.749705
H27   H     H_    0.753285 0.241450 0.748377 0.261531
H28   H     H_    0.751927 0.342504 0.833642 0.185662
H29   H     H_    0.641886 0.318917 0.736923 0.231871
O18   O     O_3   0.220576 0.628288 0.406928 -0.530942
C41   C     C_3   0.208754 0.602477 0.307916 0.143658
H30   H     H_    0.124111 0.612636 0.275570 0.139960
H31   H     H_    0.212914 0.518854 0.296751 0.117051
C42   C     C_3   0.304121 0.675808 0.252755 -0.758409
H32   H     H_    0.390432 0.663499 0.278212 0.235777
H33   H     H_    0.292035 0.663018 0.173647 0.185568
H34   H     H_    0.305188 0.759466 0.266275 0.247993
C43   C     C_2   0.791469 0.683551 0.385395 0.874893
O19   O     O_2   0.798241 0.767088 0.425298 -0.616771
O20   O     O_R   0.738153 0.668359 0.292937 -0.765435
H35   H     H_    0.708581 0.732304 0.265120 0.317275
C44   C     C_2   0.202212 0.321685 0.627873 0.971582
O21   O     O_2   0.197525 0.232064 0.601425 -0.605330
O22   O     O_R   0.250036 0.350763 0.719614 -0.746467
H36   H     H_    0.282618 0.292348 0.755773 0.328499
O23   O     O_3   0.964503 0.282866 0.600635 -0.565424
C45   C     C_3   0.924974 0.213238 0.524822 0.146702
H37   H     H_    0.999109 0.190890 0.490370 0.153084
H38   H     H_    0.872472 0.248946 0.468025 0.180793
C46   C     C_3   0.849227 0.113467 0.566462 -0.666349
H39   H     H_    0.770981 0.132753 0.596374 0.249545
H40   H     H_    0.822114 0.055936 0.508532 0.216942
H41   H     H_    0.897813 0.076852 0.625161 0.248778
O24   O     O_3   0.043061 0.718027 0.395027 -0.550784
C47   C     C_3   0.005844 0.762378 0.305286 0.094760
H42   H     H_    0.950117 0.818443 0.319470 0.198483
H43   H     H_    0.960794 0.701143 0.254927 0.129059
C48   C     C_3   0.106309 0.831878 0.253835 -0.817126
H44   H     H_    0.137446 0.786914 0.198113 0.224887
H45   H     H_    0.077224 0.899546 0.214304 0.208671
H46   H     H_    0.176830 0.864143 0.306901 0.270593

loop_
_geom_bond_atom_site_label_1
_geom_bond_atom_site_label_2
_ccdc_geom_bond_type
C21   C26   A    
C34   H16   S    
O20   H35   S    
Cu1   O8    S    
C42   H32   S    
C46   H39   S    
C39   C40   S    
C32   H10   S    
C9    O18   S    
C13   O7    A    
O16   H24   S    
C42   H34   S    
C30   H6    S    
O14   H23   S    
C45   H37   S    
C33   C34   S    
C8    C43   S    
C24   C26   A    
C35   C36   S    
C48   H46   S    
O24   C47   S    
Cu1   N1    S    
C10   O17   S    
C17   C20   S    
C47   H42   S    
C33   H14   S    
C18   C19   S    
O17   C39   S    
C29   H4    S    
C35   H18   S    
C22   C25   A    
Cu1   O4    S    
O23   C45   S    
Cu2   O7    S    
C10   N1    A    
C1    C22   S    
C29   C30   S    
C1    O3    A    
C14   O8    A    
C25   H2    S    
C34   H17   S    
O11   C33   S    
C7    C44   S    
C17   O10   S    
C3    C24   A    
C4    C28   A    
C31   H9    S    
C30   H7    S    
C48   H45   S    
C15   C20   T    
Cu2   N2    S    
O12   C35   S    
C30   H5    S    
C39   H25   S    
C5    C12   A    
C46   H40   S    
C6    C11   A    
C38   O16   S    
C4    C23   A    
C6    C8    A    
C41   C42   S    
O10   C31   S    
Cu2   O3    S    
C33   H13   S    
C37   O13   D    
Cu1   Cu2   S    
C37   O14   S    
C2    O4    A    
C24   C38   S    
C43   O19   D    
C11   C12   A    
Cu1   O5    S    
C2    C21   S    
C41   H31   S    
C17   C18   D    
Cu2   O6    S    
C44   O22   S    
C45   C46   S    
C9    C11   A    
C10   C12   A    
C43   O20   S    
C21   C28   A    
C22   C27   A    
C32   H11   S    
O9    C29   S    
C9    N2    A    
C7    N2    A    
C38   O15   D    
C32   H12   S    
C3    C4    A    
O18   C41   S    
C31   H8    S    
C1    O1    A    
C5    C7    A    
C5    O23   S    
C28   O11   S    
C2    O2    A    
C42   H33   S    
C29   H3    S    
C23   C37   S    
C36   H22   S    
C48   H44   S    
C31   C32   S    
O22   H36   S    
Cu1   O1    S    
C47   C48   S    
Cu2   O2    S    
C40   H28   S    
C13   C16   S    
C36   H20   S    
C18   O9    S    
C45   H38   S    
C16   C19   T    
C3    C27   A    
C41   H30   S    
C47   H43   S    
C46   H41   S    
C8    N1    A    
C23   C25   A    
C6    O24   S    
C13   O5    A    
C27   O12   S    
C14   O6    A    
C34   H15   S    
C26   H1    S    
C40   H27   S    
C35   H19   S    
C40   H29   S    
C36   H21   S    
C44   O21   D    
C14   C15   S    
C39   H26   S    
