data_mof_unit_13469.cif
_audit_creation_date              2012-12-11T17:39:35-0500
_audit_creation_method            fapswitch 2.2
_symmetry_space_group_name_H-M    P1
_symmetry_Int_Tables_number       1
_space_group_crystal_system       triclinic
_cell_length_a                    15.164681
_cell_length_b                    15.101583
_cell_length_c                    14.940036
_cell_angle_alpha                 108.676013
_cell_angle_beta                  109.861119
_cell_angle_gamma                 110.699667
_cell_volume                      2606.10459707

loop_
_atom_site_label
_atom_site_type_symbol
_atom_type_description
_atom_site_fract_x
_atom_site_fract_y
_atom_site_fract_z
_atom_type_partial_charge
C1    C     C_R   0.909258 0.913887 0.714152 -0.141990
C2    C     C_R   0.907167 0.684508 0.444661 -0.141529
C3    C     C_R   0.699550 0.788356 0.197711 -0.109595
C4    C     C_R   0.092568 0.298069 0.495147 -0.157530
C5    C     C_R   0.302056 0.005306 0.596590 -0.148368
C6    C     C_R   0.639374 0.691529 0.192672 0.139641
C7    C     C_R   0.363254 0.062505 0.563308 0.074753
C8    C     C_R   0.999574 0.676430 0.465003 0.042995
C9    C     C_R   0.000795 0.946415 0.177558 0.050993
C10   C     C_R   0.482181 0.671532 0.369616 -0.117660
C11   C     C_R   0.499757 0.776928 0.402588 -0.117730
C12   C     C_R   0.002891 0.301159 0.437219 0.058438
C13   C     C_R   0.520740 0.841526 0.507699 0.114455
C14   C     C_R   0.520956 0.797929 0.577943 -0.186459
C15   C     C_R   0.503279 0.692490 0.544578 -0.117763
C16   C     C_R   0.243645 0.220203 0.812338 -0.158164
C17   C     C_R   0.484217 0.629453 0.440630 -0.100325
C18   C     C_R   0.463915 0.971823 0.562040 -0.243241
C19   C     C_R   0.462133 0.066507 0.572734 0.085238
C20   C     C_R   0.543643 0.149930 0.573755 0.030316
C21   C     C_R   0.625863 0.135928 0.564305 -0.265200
C22   C     C_R   0.622988 0.038439 0.547424 0.073554
C23   C     C_R   0.266239 0.321355 0.822523 0.125776
C24   C     C_R   0.539894 0.953841 0.543497 0.014671
C25   C     C_R   0.525848 0.260279 0.484114 -0.182931
C26   C     C_R   0.508427 0.343034 0.476723 -0.113024
C27   C     C_R   0.505544 0.413658 0.561212 -0.113417
C28   C     C_R   0.736861 0.050037 0.459678 -0.146838
C29   C     C_R   0.523334 0.403771 0.654607 -0.162422
C30   C     C_R   0.545124 0.323543 0.665519 0.039128
C31   C     C_R   0.541534 0.248024 0.576841 0.051596
C32   C     C_R   0.814105 0.122206 0.083639 -0.120180
C33   C     C_R   0.888795 0.221374 0.182524 -0.140594
C34   C     C_R   0.704011 0.024353 0.528370 0.050692
C35   C     C_R   0.851925 0.284292 0.232674 0.125779
C36   C     C_R   0.739155 0.246474 0.181538 -0.198718
C37   C     C_R   0.664740 0.147287 0.082480 -0.115289
C38   C     C_R   0.702186 0.085250 0.033609 -0.087051
C39   C     C_R   0.929413 0.482888 0.352269 -0.249812
C40   C     C_R   0.242937 0.311669 0.720630 -0.146775
C41   C     C_R   0.004839 0.580770 0.452601 0.073066
C42   C     C_R   0.085213 0.586614 0.541221 0.017475
C43   C     C_R   0.088182 0.494043 0.526908 -0.236969
C44   C     C_R   0.009532 0.395050 0.429845 0.061171
C45   C     C_R   0.701158 0.695868 0.287658 -0.163123
C46   C     C_R   0.930969 0.388087 0.339432 0.022668
C47   C     C_R   0.275876 0.733713 0.695672 -0.196508
C48   C     C_R   0.348838 0.825799 0.800555 -0.116502
C49   C     C_R   0.308995 0.868055 0.864211 -0.095578
C50   C     C_R   0.196042 0.818013 0.823263 -0.122168
C51   C     C_R   0.122622 0.726174 0.718108 -0.117148
C52   C     C_R   0.744232 0.963401 0.557687 -0.111805
C53   C     C_R   0.162124 0.684034 0.653149 0.116433
C54   C     C_2   0.358887 0.519765 0.935495 -0.127168
C55   C     C_2   0.315894 0.420597 0.925794 -0.194979
C56   C     C_R   0.302499 0.093132 0.502274 -0.157351
C57   C     C_2   0.456775 0.615739 0.038192 -0.118896
C58   C     C_2   0.527134 0.603678 0.109891 -0.232431
C59   C     C_R   0.400491 0.199972 0.115272 -0.107390
C60   C     C_R   0.306485 0.100069 0.072159 -0.190113
C61   C     C_R   0.204101 0.091798 0.039967 0.114681
C62   C     C_R   0.197798 0.185628 0.055337 -0.122857
C63   C     C_R   0.292417 0.285945 0.101227 -0.143988
C64   C     C_R   0.910203 0.210057 0.407937 -0.119718
C65   C     C_R   0.393495 0.292932 0.129969 -0.125620
C66   C     C_R   0.105394 0.965066 0.084856 -0.224662
C67   C     C_R   0.090898 0.779647 0.527932 -0.108899
C68   C     C_R   0.005607 0.905694 0.076665 0.053001
C69   C     C_R   0.910252 0.834402 0.971780 0.026094
C70   C     C_R   0.913091 0.845107 0.883186 -0.242931
C71   C     C_R   0.007613 0.928536 0.900230 0.056622
C72   C     C_R   0.105933 0.988855 0.003320 0.003171
C73   C     C_R   0.812913 0.683355 0.000462 -0.150555
C74   C     C_R   0.717919 0.607562 0.988525 -0.075267
C75   C     C_R   0.617936 0.598023 0.930198 -0.100727
C76   C     C_R   0.091175 0.001399 0.801328 -0.137500
C77   C     C_R   0.612403 0.664254 0.883818 -0.157583
C78   C     C_R   0.909348 0.935278 0.187113 -0.130706
C79   C     C_R   0.707007 0.739458 0.894499 -0.171106
C80   C     C_R   0.808298 0.750154 0.953759 0.121510
C81   C     C_R   0.002431 0.951465 0.811229 0.054218
C82   C     C_R   0.572257 0.320581 0.769496 0.114437
C83   C     C_R   0.666811 0.318995 0.825563 -0.136188
C84   C     C_R   0.693079 0.318861 0.924798 -0.106006
C85   C     C_R   0.625775 0.321132 0.969167 -0.113858
C86   C     C_R   0.531752 0.322561 0.914059 -0.125150
C87   C     C_R   0.505164 0.322177 0.814679 -0.153939
C88   C     C_R   0.092163 0.023794 0.281148 -0.119931
H1    H     H_    0.825369 0.857093 0.686201 0.094497
H2    H     H_    0.466851 0.622406 0.288970 0.114779
H3    H     H_    0.497806 0.808539 0.346737 0.113559
H4    H     H_    0.176746 0.351288 0.520324 0.095367
H5    H     H_    0.536010 0.846075 0.658829 0.109301
H6    H     H_    0.504467 0.659799 0.599447 0.099900
H7    H     H_    0.398194 0.904943 0.555211 0.130988
H8    H     H_    0.690197 0.199635 0.566232 0.135938
H9    H     H_    0.523090 0.203065 0.415653 0.121704
H10   H     H_    0.494655 0.350804 0.404329 0.117894
H11   H     H_    0.489656 0.476341 0.554532 0.102388
H12   H     H_    0.328684 0.146605 0.471334 0.118847
H13   H     H_    0.520144 0.459034 0.718358 0.126314
H14   H     H_    0.644525 0.008521 0.957039 0.090939
H15   H     H_    0.253694 0.200117 0.876796 0.126129
H16   H     H_    0.843020 0.073960 0.045858 0.113207
H17   H     H_    0.975312 0.248983 0.220121 0.113020
H18   H     H_    0.708687 0.292956 0.219013 0.104752
H19   H     H_    0.577973 0.118458 0.043661 0.103304
H20   H     H_    0.870046 0.480869 0.284564 0.126999
H21   H     H_    0.146500 0.497801 0.597019 0.130116
H22   H     H_    0.307751 0.701941 0.646922 0.117502
H23   H     H_    0.175525 0.802537 0.558029 0.109706
H24   H     H_    0.436264 0.864368 0.832463 0.099604
H25   H     H_    0.365873 0.939287 0.945380 0.093887
H26   H     H_    0.165324 0.850240 0.872970 0.116589
H27   H     H_    0.715869 0.093307 0.418953 0.099568
H28   H     H_    0.035297 0.688249 0.687082 0.113982
H29   H     H_    0.336326 0.528995 0.863401 0.119487
H30   H     H_    0.333230 0.412328 0.998126 0.131488
H31   H     H_    0.480486 0.695159 0.044414 0.125732
H32   H     H_    0.506875 0.524763 0.103640 0.126980
H33   H     H_    0.466522 0.370574 0.164792 0.091030
H34   H     H_    0.824428 0.886298 0.123075 0.120270
H35   H     H_    0.479026 0.205736 0.139007 0.098605
H36   H     H_    0.313337 0.029470 0.064758 0.106861
H37   H     H_    0.120150 0.181490 0.034372 0.111892
H38   H     H_    0.287381 0.358411 0.115329 0.110353
H39   H     H_    0.251220 0.374680 0.699166 0.095005
H40   H     H_    0.182005 0.011615 0.161777 0.125775
H41   H     H_    0.839939 0.791509 0.802529 0.126098
H42   H     H_    0.890154 0.690516 0.046619 0.114173
H43   H     H_    0.721881 0.556467 0.024749 0.125864
H44   H     H_    0.544249 0.537737 0.919127 0.130190
H45   H     H_    0.176938 0.054295 0.306159 0.096324
H46   H     H_    0.534575 0.656486 0.838716 0.106717
H47   H     H_    0.701758 0.791109 0.859131 0.105979
H48   H     H_    0.733150 0.930049 0.609589 0.109839
H49   H     H_    0.825751 0.183015 0.354902 0.104036
H50   H     H_    0.173466 0.019853 0.848584 0.112910
H51   H     H_    0.672408 0.640718 0.316503 0.093105
H52   H     H_    0.720967 0.319456 0.793378 0.116343
H53   H     H_    0.766166 0.318098 0.967867 0.122517
H54   H     H_    0.646881 0.322943 0.046728 0.110928
H55   H     H_    0.480253 0.325163 0.949044 0.116878
H56   H     H_    0.822843 0.618738 0.401114 0.098341
H57   H     H_    0.433044 0.324206 0.773077 0.125128
H58   H     H_    0.670297 0.817346 0.143329 0.091622
H59   H     H_    0.329420 0.980389 0.655857 0.105800
H60   H     H_    0.470639 0.547873 0.414893 0.097678
N1    N     N_R   0.941940 0.944580 0.650780 -0.038860
N2    N     N_R   0.204460 0.150250 0.707090 -0.039389
N3    N     N_R   0.794270 0.003240 0.446420 -0.041154
N4    N     N_R   0.204920 0.207570 0.650770 -0.043500
N5    N     N_R   0.793810 0.945920 0.502740 -0.041173
N6    N     N_R   0.943620 0.152590 0.446420 -0.039705
N7    N     N_R   0.055110 0.000900 0.707100 -0.039290
N8    N     N_R   0.795080 0.792430 0.349230 -0.038689
N9    N     N_R   0.206190 0.054080 0.497260 -0.040439
N10   N     N_R   0.056380 0.847410 0.553580 -0.042346
N11   N     N_R   0.944890 0.999100 0.292900 -0.042542
N12   N     N_R   0.058060 0.055420 0.349220 -0.041794
N13   N     N_R   0.943200 0.791100 0.497260 -0.039670
N14   N     N_R   0.795540 0.849750 0.292910 -0.046898
N15   N     N_R   0.205730 0.996760 0.553580 -0.039428
N16   N     N_R   0.056800 0.208900 0.502740 -0.035818
Ni1   Ni    Ni4+2 0.869690 0.869690 0.500000 0.216193
Ni2   Ni    Ni4+2 0.130310 0.130310 0.500000 0.211487
Ni3   Ni    Ni4+2 0.129250 0.998840 0.629170 0.220415
Ni4   Ni    Ni4+2 0.870750 0.001160 0.370830 0.213226

loop_
_geom_bond_atom_site_label_1
_geom_bond_atom_site_label_2
_ccdc_geom_bond_type
C25   C31   A    
C66   C68   A    
C63   C65   A    
C30   C82   S    
C5    H59   S    
C6    C45   A    
C27   C29   A    
C2    H56   S    
C41   C42   A    
C6    C58   S    
C49   H25   S    
C35   C36   A    
C3    C6    A    
C54   C57   S    
C15   H6    S    
C39   C41   A    
C85   C86   A    
N8    Ni1   S    
C27   H11   S    
C26   C27   A    
C37   C38   A    
C18   C24   A    
C5    N15   A    
N6    N16   A    
C36   C37   A    
C88   H45   S    
C37   H19   S    
C76   C81   A    
C32   C38   A    
C9    C88   A    
C30   C31   A    
C12   C64   A    
C4    N16   A    
C10   C17   A    
C1    C81   A    
C23   C40   A    
C64   N6    A    
C45   H51   S    
N11   Ni4   S    
C40   N4    A    
C18   C19   A    
C73   C74   A    
C12   C44   S    
C60   H36   S    
N10   N13   A    
C21   C22   A    
C73   H42   S    
C66   C72   A    
C83   C84   A    
N7    Ni3   S    
C68   C69   A    
N10   Ni3   S    
C32   H16   S    
C1    N1    A    
C70   C71   A    
N12   Ni2   S    
C4    C12   A    
C29   C30   A    
N9    N15   A    
C14   H5    S    
C3    N14   A    
C47   C53   A    
C4    H4    S    
N3    N5    A    
N8    N14   A    
C59   C60   A    
C74   H43   S    
C18   H7    S    
N11   N12   A    
N6    Ni4   S    
C61   C62   A    
C7    C56   A    
C2    N13   A    
C83   H52   S    
C44   C46   A    
C86   H55   S    
C64   H49   S    
C77   C79   A    
C59   H35   S    
C39   H20   S    
C22   C34   S    
C74   C75   A    
C36   H18   S    
C17   H60   S    
N1    Ni1   S    
C8    C41   S    
C5    C7    A    
C86   C87   A    
C52   N5    A    
C40   H39   S    
C70   H41   S    
C13   C24   S    
C60   C61   A    
C50   H26   S    
N9    Ni2   S    
N15   Ni3   S    
C43   C44   A    
C62   C63   A    
C28   H27   S    
C56   N9    A    
C16   H15   S    
C47   C48   A    
C58   H32   S    
C50   C51   A    
C29   H13   S    
C45   N8    A    
C84   C85   A    
C75   C77   A    
C26   H10   S    
C39   C46   A    
N14   Ni4   S    
C61   C72   S    
C25   H9    S    
C48   C49   A    
C48   H24   S    
C82   C83   A    
C16   C23   A    
C65   H33   S    
C3    H58   S    
C52   H48   S    
C22   C24   A    
C77   H46   S    
C56   H12   S    
C75   H44   S    
C67   H23   S    
C15   C17   A    
C54   C55   D    
C1    H1    S    
N3    Ni4   S    
C87   H57   S    
N5    Ni1   S    
C34   C52   A    
C2    C8    A    
C85   H54   S    
C62   H37   S    
N4    Ni2   S    
C23   C55   S    
C21   H8    S    
C76   H50   S    
C47   H22   S    
C79   H47   S    
C76   N7    A    
C7    C19   S    
C51   H28   S    
C33   H17   S    
C57   H31   S    
C32   C33   A    
C19   C20   A    
N16   Ni2   S    
C25   C26   A    
C9    C68   S    
C71   C72   A    
C42   C53   S    
C59   C65   A    
C11   C13   A    
C57   C58   D    
C84   H53   S    
N2    Ni3   S    
C33   C35   A    
C73   C80   A    
C66   H40   S    
C67   N10   A    
N2    N4    A    
C9    C78   A    
C88   N12   A    
N1    N7    A    
C69   C70   A    
C78   H34   S    
C63   H38   S    
C10   C11   A    
C28   C34   A    
C79   C80   A    
C11   H3    S    
C78   N11   A    
C20   C21   A    
C10   H2    S    
C8    C67   A    
C38   H14   S    
C49   C50   A    
C42   C43   A    
C54   H29   S    
C14   C15   A    
C28   N3    A    
C69   C80   S    
C16   N2    A    
C43   H21   S    
C51   C53   A    
C13   C14   A    
C35   C46   S    
C55   H30   S    
N13   Ni1   S    
C82   C87   A    
C71   C81   S    
C20   C31   S    
