data_mof_unit_63170.cif
_audit_creation_date              2012-12-11T18:32:23-0500
_audit_creation_method            fapswitch 2.2
_symmetry_space_group_name_H-M    P1
_symmetry_Int_Tables_number       1
_space_group_crystal_system       triclinic
_cell_length_a                    8.298501
_cell_length_b                    14.43004
_cell_length_c                    18.809893
_cell_angle_alpha                 94.932057
_cell_angle_beta                  92.424518
_cell_angle_gamma                 91.387659
_cell_volume                      2241.21460163

loop_
_atom_site_label
_atom_site_type_symbol
_atom_type_description
_atom_site_fract_x
_atom_site_fract_y
_atom_site_fract_z
_atom_type_partial_charge
Ba1   Ba    Ba6+2 0.841340 0.543980 0.464170 1.723346
Ba2   Ba    Ba6+2 0.348470 0.456100 0.535830 1.691371
C1    C     C_3   0.417458 0.798052 0.179516 -0.211952
C2    C     C_3   0.430273 0.514862 0.240807 0.115386
C3    C     C_2   0.366020 0.526458 0.165636 -0.111399
C4    C     C_3   0.983207 0.742848 0.269133 0.375548
C5    C     C_2   0.210086 0.502350 0.146403 -0.076650
C6    C     C_2   0.102751 0.473954 0.204406 -0.132436
C7    C     C_1   0.158990 0.475424 0.272363 0.040372
C8    C     C_R   0.046092 0.494732 0.928532 0.461502
C9    C     C_R   0.149768 0.501752 0.069520 0.464358
C10   C     C_R   0.083833 0.526749 0.798429 -0.116595
C11   C     C_R   0.031503 0.517775 0.725448 0.062581
C12   C     C_3   0.487088 0.764040 0.248520 0.743630
C13   C     C_R   0.789050 0.435977 0.756045 0.010579
C14   C     C_R   0.840240 0.444551 0.828488 -0.133276
C15   C     C_R   0.990358 0.488285 0.850895 -0.086501
C16   C     C_3   0.951117 0.771721 0.194049 -0.333631
C17   C     C_R   0.888309 0.468434 0.704942 -0.291743
C18   C     C_R   0.693728 0.945010 0.547655 0.186497
C19   C     C_R   0.503246 0.806635 0.507730 0.031256
C20   C     C_R   0.353320 0.776223 0.475015 0.035928
C21   C     C_R   0.244827 0.838352 0.448338 -0.019860
C22   C     C_R   0.291224 0.932948 0.447681 0.297404
C23   C     C_3   0.460865 0.301670 0.320625 0.653394
C24   C     C_R   0.446265 0.964016 0.475569 -0.001597
C25   C     C_R   0.549694 0.903823 0.511553 -0.103681
C26   C     C_R   0.644913 0.093022 0.497430 -0.074164
C27   C     C_R   0.748609 0.034850 0.533475 0.009217
C28   C     C_3   0.212829 0.746377 0.625297 0.316984
C29   C     C_R   0.690193 0.188015 0.494752 0.004092
C30   C     C_R   0.837526 0.222612 0.525868 -0.273499
C31   C     C_R   0.944698 0.163903 0.556744 0.038932
C32   C     C_R   0.902784 0.070307 0.559026 -0.098682
C33   C     C_R   0.496351 0.056413 0.468508 0.035187
C34   C     C_3   0.378562 0.253219 0.253062 -0.190238
C35   C     C_3   0.245183 0.848280 0.652310 -0.000558
C36   C     C_3   0.911817 0.253541 0.316400 0.426545
C37   C     C_3   0.917797 0.152896 0.335014 -0.333547
C38   C     C_3   0.705744 0.656631 0.670586 0.328752
C39   C     C_3   0.716609 0.679999 0.751227 -0.315522
C40   C     C_3   0.097814 0.254722 0.733014 0.330900
C41   C     C_3   0.087750 0.222243 0.807787 0.217107
C42   C     C_3   0.579398 0.211637 0.704620 0.296216
C43   C     C_3   0.543410 0.117209 0.731293 -0.271268
C44   C     C_2   0.298180 0.516535 0.292912 -0.215376
H1    H     H_    0.315836 0.884283 0.613816 -0.000891
H2    H     H_    0.781382 0.747923 0.764506 0.176285
H3    H     H_    0.782291 0.626640 0.778416 0.040167
H4    H     H_    0.593494 0.683865 0.772010 0.153514
H5    H     H_    0.331957 0.854654 0.191676 0.110896
H6    H     H_    0.365451 0.334746 0.353088 -0.007918
H7    H     H_    0.292128 0.198508 0.267193 0.099126
H8    H     H_    0.311883 0.304164 0.222982 0.053987
H9    H     H_    0.469510 0.220121 0.218197 0.146122
H10   H     H_    0.352942 0.739826 0.146701 0.090133
H11   H     H_    0.065212 0.793647 0.171154 0.114380
H12   H     H_    0.130153 0.884302 0.658341 0.114679
H13   H     H_    0.179035 0.317535 0.736279 0.028749
H14   H     H_    0.974779 0.273156 0.714351 -0.048749
H15   H     H_    0.047569 0.280614 0.844556 0.054168
H16   H     H_    0.208956 0.202077 0.827923 0.071713
H17   H     H_    0.709617 0.216358 0.693405 -0.013345
H18   H     H_    0.506170 0.216260 0.654435 0.093244
H19   H     H_    0.553720 0.062192 0.686978 0.112931
H20   H     H_    0.418840 0.113934 0.750355 0.153031
H21   H     H_    0.868166 0.720095 0.290094 0.107487
H22   H     H_    0.629930 0.104429 0.775820 0.179744
H23   H     H_    0.816010 0.287067 0.346959 0.092549
H24   H     H_    0.450174 0.545500 0.126345 0.104845
H25   H     H_    0.978300 0.453387 0.190563 0.155701
H26   H     H_    0.195264 0.565005 0.814173 0.123364
H27   H     H_    0.762200 0.417671 0.867045 0.120614
H28   H     H_    0.326929 0.537026 0.348763 0.046752
H29   H     H_    0.847447 0.461791 0.649306 0.059112
H30   H     H_    0.990877 0.026265 0.582106 0.099423
H31   H     H_    0.066356 0.683639 0.266183 0.057688
H32   H     H_    0.871203 0.295336 0.524294 0.070128
H33   H     H_    0.418118 0.099907 0.439467 0.162152
H34   H     H_    0.010334 0.115032 0.303917 0.163253
H35   H     H_    0.896707 0.712011 0.159277 0.107171
H36   H     H_    0.866930 0.830370 0.195066 0.156999
H37   H     H_    0.329083 0.714287 0.613518 0.064917
H38   H     H_    0.132154 0.743117 0.576467 0.035163
H39   H     H_    0.394075 0.732642 0.335857 0.266695
H40   H     H_    0.582683 0.416486 0.341894 0.295380
H41   H     H_    0.030623 0.091221 0.788480 0.346063
H42   H     H_    0.377107 0.652035 0.436452 0.304082
H43   H     H_    0.078766 0.972361 0.414326 0.322459
H44   H     H_    0.798478 0.117259 0.322846 0.136829
H45   H     H_    0.949785 0.150516 0.392666 0.096606
H46   H     H_    0.828288 0.649222 0.650751 0.015171
H47   H     H_    0.634076 0.590779 0.658432 0.047739
H48   H     H_    0.515649 0.825331 0.148054 0.096540
I1    I     I_    0.600741 0.882696 0.309460 -0.482870
I2    I     I_    0.373042 0.862711 0.753970 -0.384979
I3    I     I_    0.863730 0.251965 0.203212 -0.416237
I4    I     I_    0.785929 0.910151 0.649898 -0.474592
N1    N     N_R   0.195460 0.529605 0.950428 -0.230924
N2    N     N_R   0.245922 0.532893 0.019080 -0.238641
N3    N     N_R   0.999999 0.467402 0.047750 -0.217849
N4    N     N_R   0.949636 0.463926 0.979024 -0.226921
O1    O     O_2   0.878750 0.447310 0.330740 -0.452494
O2    O     O_2   0.281093 0.169374 0.562152 -0.481397
O3    O     O_3   0.160753 0.183640 0.687356 -0.616101
O4    O     O_3   0.131030 0.448880 0.418060 -0.456814
O5    O     O_3   0.553640 0.613150 0.531430 -0.466350
O6    O     O_2   0.393070 0.270760 0.474720 -0.449373
O7    O     O_3   0.544201 0.235063 0.356365 -0.658524
O8    O     O_2   0.456013 0.455128 0.756281 -0.476286
O9    O     O_3   0.538401 0.281885 0.756604 -0.591466
O10   O     O_3   0.627390 0.618170 0.367170 -0.506347
O11   O     O_2   0.757575 0.551512 0.247934 -0.474090
O12   O     O_3   0.630424 0.730133 0.640352 -0.589834
O13   O     O_3   0.060936 0.297325 0.336769 -0.654285
O14   O     O_3   0.607177 0.699387 0.230213 -0.631605
O15   O     O_2   0.796630 0.729270 0.525320 -0.453880
O16   O     O_3   0.039210 0.666640 0.400620 -0.441991
O17   O     O_2   0.902759 0.830498 0.433596 -0.483651
O18   O     O_3   0.360013 0.726791 0.284773 -0.777127
O19   O     O_3   0.571296 0.368249 0.301107 -0.749178
O20   O     O_3   0.975788 0.147853 0.807628 -0.697263
O21   O     O_3   0.307225 0.684027 0.471405 -0.718534
O22   O     O_3   0.191192 0.996705 0.418662 -0.731839
O23   O     O_3   0.050158 0.818338 0.313450 -0.573359
O24   O     O_2   0.310950 0.552720 0.669300 -0.458827
O25   O     O_3   0.058670 0.551200 0.581940 -0.482497
O26   O     O_3   0.562310 0.381900 0.632830 -0.492542
O27   O     O_3   0.136731 0.701153 0.677680 -0.621395
O28   O     O_3   0.636050 0.386930 0.468580 -0.494324
O29   O     O_3   0.150490 0.333430 0.599380 -0.486083
P1    P     P_3+3 0.053470 0.419720 0.342720 1.006948
P2    P     P_3+3 0.625250 0.715650 0.546950 1.053742
P3    P     P_3+3 0.056659 0.788345 0.401947 1.036110
P4    P     P_3+3 0.136230 0.580350 0.657290 1.018454
P5    P     P_3+3 0.134717 0.212416 0.599238 0.978674
P6    P     P_3+3 0.600515 0.595982 0.273381 0.982173
P7    P     P_3+3 0.569226 0.270150 0.447730 0.925467
P8    P     P_3+3 0.586572 0.389906 0.726066 0.957140

loop_
_geom_bond_atom_site_label_1
_geom_bond_atom_site_label_2
_ccdc_geom_bond_type
O23   P3    S    
C38   C39   S    
N3    N4    A    
C12   I1    S    
C38   H47   S    
Ba1   P1    S    
O15   P2    D    
O9    P8    S    
C20   O21   S    
C2    C44   S    
C42   H18   S    
C13   C17   A    
C24   C25   A    
C26   C27   A    
O26   P8    S    
O25   P4    S    
C36   I3    S    
Ba1   O10   S    
C36   C37   S    
C8    C15   S    
C13   C14   A    
Ba2   O5    S    
C22   O22   S    
C16   H35   S    
Ba1   Ba2   S    
C19   P2    S    
C28   H37   S    
C34   H7    S    
Ba2   O28   S    
C2    P6    S    
O27   P4    S    
O12   P2    S    
C38   O12   S    
C29   C30   A    
C26   C33   A    
C14   C15   A    
C10   C15   A    
C21   C22   A    
C35   H1    S    
O1    P1    D    
Ba1   O1    S    
C37   H44   S    
C35   H12   S    
O16   P3    S    
C23   O7    S    
Ba1   O4    S    
C18   C27   A    
Ba2   O25   S    
C10   H26   S    
C36   H23   S    
C7    C44   D    
C19   C20   A    
C11   P4    S    
H40   O19   S    
H42   O21   S    
Ba1   P2    S    
C39   H3    S    
C31   C32   A    
C13   P8    S    
O13   P1    S    
C42   H17   S    
C4    C16   S    
O17   P3    D    
C11   C17   A    
C14   H27   S    
C5    C6    S    
O29   P5    S    
C40   H14   S    
C3    C5    D    
C1    H5    S    
C6    C7    D    
C4    H31   S    
C27   C32   A    
Ba2   O4    S    
C28   C35   S    
C9    N2    A    
H39   O18   S    
C5    C9    S    
C3    H24   S    
C1    H10   S    
C16   H11   S    
N1    N2    A    
C8    N4    A    
C43   H22   S    
Ba2   O29   S    
C9    N3    A    
Ba1   O15   S    
C38   H46   S    
C29   P7    S    
C41   O20   S    
C1    C12   S    
Ba1   O5    S    
O3    P5    S    
Ba2   O24   S    
C4    H21   S    
C18   C25   A    
O24   P4    D    
Ba1   O28   S    
C12   O18   S    
C43   H19   S    
C19   C25   A    
O11   P6    D    
C33   H33   S    
C40   C41   S    
O28   P7    S    
C39   H4    S    
C44   H28   S    
C42   C43   S    
C41   H15   S    
O14   P6    S    
C7    P1    S    
O8    P8    D    
C6    H25   S    
O2    P5    D    
C21   P3    S    
O10   P6    S    
C37   H45   S    
C26   C29   A    
Ba1   O25   S    
C4    O23   S    
C22   C24   A    
C2    C3    S    
C40   H13   S    
H41   O20   S    
H43   O22   S    
C28   O27   S    
Ba2   P4    S    
C30   C31   A    
C17   H29   S    
C23   H6    S    
O5    P2    S    
C34   H9    S    
C37   H34   S    
O6    P7    D    
C36   O13   S    
C31   P5    S    
C12   O14   S    
Ba2   O6    S    
C16   H36   S    
C39   H2    S    
C1    H48   S    
Ba1   O16   S    
C28   H38   S    
C8    N1    A    
C40   O3    S    
C34   H8    S    
O4    P1    S    
C23   C34   S    
C30   H32   S    
C42   O9    S    
C24   C33   A    
C18   I4    S    
C10   C11   A    
C35   I2    S    
C43   H20   S    
C20   C21   A    
O7    P7    S    
C23   O19   S    
C41   H16   S    
C32   H30   S    
Ba2   O26   S    
