data_mof_unit_50839.cif
_audit_creation_date              2012-12-10T19:04:10-0500
_audit_creation_method            fapswitch 2.2
_symmetry_space_group_name_H-M    P1
_symmetry_Int_Tables_number       1
_space_group_crystal_system       triclinic
_cell_length_a                    10.637237
_cell_length_b                    10.816095
_cell_length_c                    9.55803
_cell_angle_alpha                 89.849582
_cell_angle_beta                  90.484627
_cell_angle_gamma                 90.368977
_cell_volume                      1099.61774958

loop_
_atom_site_label
_atom_site_type_symbol
_atom_type_description
_atom_site_fract_x
_atom_site_fract_y
_atom_site_fract_z
_atom_type_partial_charge
C1    C     C_R   0.498149 0.262363 0.500077 0.800230
C2    C     C_3   0.958465 0.603070 0.436031 -0.208331
C3    C     C_3   0.039493 0.502570 0.365377 -0.132591
C4    C     C_3   0.122839 0.499291 0.497817 -0.009046
C5    C     C_R   0.493986 0.063224 0.625579 0.125999
C6    C     C_R   0.486975 0.129124 0.500128 -0.099445
C7    C     C_R   0.463699 0.064534 0.374944 -0.220188
C8    C     C_R   0.464011 0.935648 0.374734 -0.226342
C9    C     C_R   0.487344 0.870704 0.499754 -0.096363
C10   C     C_R   0.494108 0.935964 0.625365 0.129896
C11   C     C_3   0.590245 0.929655 0.739952 -0.478380
C12   C     C_R   0.259448 0.499640 0.499313 0.793907
C13   C     C_3   0.590283 0.069965 0.740090 -0.458774
C14   C     C_R   0.564254 0.589191 0.073971 0.195208
C15   C     C_R   0.425591 0.420920 0.074493 -0.135915
C16   C     C_R   0.424807 0.420889 0.925330 0.250686
C17   C     C_R   0.565030 0.588482 0.926652 0.163651
C18   C     C_3   0.702952 0.613166 0.921399 -0.479101
C19   C     C_3   0.702597 0.615040 0.080473 -0.071598
C20   C     C_R   0.498399 0.737615 0.499815 0.783729
C21   C     C_R   0.740609 0.500200 0.500616 0.788543
C22   C     C_3   0.042646 0.396225 0.563742 -0.222498
C23   C     C_3   0.957763 0.402449 0.433532 0.188717
C24   C     C_3   0.877407 0.500576 0.501803 0.006807
C25   C     C_3   0.961629 0.497176 0.633432 -0.166406
C26   C     C_3   0.044396 0.600006 0.567798 -0.156241
Cu1   Cu    Cu3+1 0.499990 0.499980 0.640670 0.957831
Cu2   Cu    Cu3+1 0.500010 0.500020 0.359330 0.937386
H1    H     H_    0.680630 0.889534 0.704819 0.191085
H2    H     H_    0.551882 0.109690 0.837805 0.195436
H3    H     H_    0.680645 0.111495 0.704985 0.192814
H4    H     H_    0.755424 0.533340 0.879444 0.186278
H5    H     H_    0.725265 0.703563 0.871639 0.198647
H6    H     H_    0.079192 0.310844 0.613878 0.133027
H7    H     H_    0.929807 0.495018 0.743436 0.136821
H8    H     H_    0.083476 0.681860 0.623349 0.133441
H9    H     H_    0.921763 0.687895 0.384950 0.141901
H10   H     H_    0.072941 0.502730 0.255654 0.138617
H11   H     H_    0.450776 0.112991 0.276598 0.160168
H12   H     H_    0.451425 0.887571 0.276281 0.162281
N1    N     N_R   0.500800 0.500930 0.147930 -0.199109
N2    N     N_R   0.500800 0.500890 0.852020 -0.176002
O1    O     O_R   0.500000 0.319640 0.618810 -0.551897
O2    O     O_R   0.500010 0.319680 0.381230 -0.585584
O3    O     O_R   0.316850 0.499950 0.618770 -0.554707
O4    O     O_R   0.316860 0.499990 0.381190 -0.591914
O5    O     O_R   0.499990 0.680320 0.618770 -0.576804
O6    O     O_R   0.500000 0.680360 0.381190 -0.592329
O7    O     O_R   0.683140 0.500010 0.618810 -0.593514
O8    O     O_R   0.683150 0.500050 0.381230 -0.576099
N3    N     N_3   0.906992 0.295310 0.359855 -0.594213
H13   H     H_    0.983208 0.241699 0.328879 0.209589
H14   H     H_    0.856460 0.242666 0.432288 0.204303
H15   H     H_    0.367361 0.355511 0.130743 0.137066
N4    N     N_3   0.345113 0.335995 0.851615 -0.526368
H16   H     H_    0.367272 0.246577 0.884935 0.181235
H17   H     H_    0.252298 0.353405 0.880386 0.189047
H18   H     H_    0.759169 0.539892 0.128951 0.194810
N5    N     N_3   0.732160 0.737434 0.137656 -0.580800
H19   H     H_    0.669045 0.803014 0.098181 0.220503
H20   H     H_    0.719087 0.733613 0.245826 0.236140
H21   H     H_    0.551458 0.888611 0.837361 0.194761

loop_
_geom_bond_atom_site_label_1
_geom_bond_atom_site_label_2
_ccdc_geom_bond_type
C4    C26   S    
N4    H16   S    
Cu1   N2    S    
C6    C7    A    
N3    H13   S    
Cu1   O1    S    
C4    C12   S    
C4    C22   S    
C9    C10   A    
Cu2   N1    S    
C9    C20   S    
C5    C13   S    
C2    H9    S    
C23   C24   S    
C11   H21   S    
Cu1   O3    S    
C21   O7    A    
C17   C18   S    
C16   N4    S    
N5    H19   S    
C2    C26   S    
C23   N3    S    
C13   H3    S    
C11   C13   S    
C14   C17   A    
Cu2   O4    S    
C20   O6    A    
Cu2   O8    S    
C25   H7    S    
C14   N1    A    
C26   H8    S    
C21   O8    A    
Cu2   O2    S    
C2    C3    S    
N4    H17   S    
C19   H18   S    
C2    C24   S    
C5    C6    A    
C22   H6    S    
C18   H5    S    
N5    H20   S    
C20   O5    A    
C18   H4    S    
C10   C11   S    
C15   N1    A    
C15   C16   A    
C15   H15   S    
C16   N2    A    
C13   H2    S    
C5    C10   A    
C8    H12   S    
C24   C25   S    
C11   H1    S    
C12   O4    A    
C18   C19   S    
C21   C24   S    
Cu1   O5    S    
Cu1   Cu2   S    
C12   O3    A    
C7    C8    A    
C7    H11   S    
C22   C23   S    
Cu2   O6    S    
C1    O2    A    
C19   N5    S    
C25   C26   S    
C17   N2    A    
C3    C23   S    
C14   C19   S    
C1    O1    A    
C3    C4    S    
Cu1   O7    S    
C3    H10   S    
C8    C9    A    
N3    H14   S    
C22   C25   S    
C1    C6    S    
