data_mof_unit_8043.cif
_audit_creation_date              2012-12-11T15:21:29-0500
_audit_creation_method            fapswitch 2.2
_symmetry_space_group_name_H-M    P1
_symmetry_Int_Tables_number       1
_space_group_crystal_system       triclinic
_cell_length_a                    8.215916
_cell_length_b                    12.657975
_cell_length_c                    18.991043
_cell_angle_alpha                 94.327483
_cell_angle_beta                  94.177234
_cell_angle_gamma                 98.10762
_cell_volume                      1942.70973659

loop_
_atom_site_label
_atom_site_type_symbol
_atom_type_description
_atom_site_fract_x
_atom_site_fract_y
_atom_site_fract_z
_atom_type_partial_charge
Ba1   Ba    Ba6+2 0.160910 0.552960 0.466220 1.676105
Ba2   Ba    Ba6+2 0.649260 0.447030 0.533730 1.651625
C1    C     C_3   0.418239 0.823297 0.198649 -0.331498
C2    C     C_3   0.425075 0.788539 0.273582 0.389400
C3    C     C_3   0.556062 0.773792 0.631557 0.274259
C4    C     C_3   0.553050 0.893417 0.642709 -0.334010
C5    C     C_3   0.872292 0.152506 0.693878 0.341373
C6    C     C_3   0.924850 0.060923 0.733262 -0.411682
C7    C     C_3   0.380709 0.209522 0.727782 0.362367
C8    C     C_3   0.406756 0.178705 0.803173 -0.363428
C9    C     C_R   0.076835 0.183605 0.527058 -0.292839
C10   C     C_R   0.732246 0.816211 0.474109 -0.293887
C11   C     C_R   0.703872 0.996981 0.447731 -0.022860
C12   C     C_3   0.944456 0.838470 0.267642 0.272073
C13   C     C_R   0.638911 0.888393 0.445111 -0.003046
C14   C     C_R   0.886487 0.850580 0.510441 0.061327
C15   C     C_R   0.951308 0.962679 0.516633 -0.058750
C16   C     C_R   0.859079 0.036984 0.483850 -0.051995
C17   C     C_R   0.923839 0.149077 0.489708 0.051025
C18   C     C_R   0.170085 0.111547 0.556352 -0.008661
C19   C     C_R   0.105972 0.002769 0.553423 -0.094570
C20   C     C_R   0.610541 0.550646 0.299460 -0.277848
C21   C     C_R   0.456849 0.492040 0.277212 0.061176
C22   C     C_R   0.399766 0.481899 0.205282 -0.118336
C23   C     C_3   0.972133 0.920608 0.213554 0.253055
C24   C     C_R   0.499729 0.527428 0.154760 -0.013961
C25   C     C_R   0.659336 0.580848 0.177892 -0.129078
C26   C     C_R   0.714471 0.590828 0.249918 0.010314
C27   C     C_R   0.480554 0.598339 0.034782 -0.080209
C28   C     C_R   0.427910 0.586320 0.962593 -0.077153
C29   C     C_R   0.336101 0.489768 0.931389 0.062183
C30   C     C_R   0.296398 0.405970 0.974583 -0.084476
C31   C     C_R   0.348698 0.418133 0.046969 -0.087488
C32   C     C_R   0.441742 0.514494 0.077997 0.057576
C33   C     C_R   0.126063 0.423151 0.828120 -0.138442
C34   C     C_3   0.750978 0.323143 0.323856 0.438399
C35   C     C_R   0.077622 0.414268 0.755316 0.018739
C36   C     C_R   0.340857 0.511696 0.733093 0.038512
C37   C     C_R   0.390709 0.521303 0.805533 -0.118274
C38   C     C_R   0.284251 0.476519 0.854053 -0.010212
C39   C     C_R   0.187512 0.454951 0.708141 -0.283720
C40   C     C_3   0.739816 0.307387 0.242974 0.428996
C41   C     C_3   0.045326 0.681838 0.678950 0.308268
C42   C     C_3   0.075933 0.710892 0.758479 -0.399589
C43   C     C_3   0.260337 0.226068 0.381429 0.313962
C44   C     C_3   0.292045 0.110609 0.370990 -0.285478
H1    H     H_    0.337750 0.713121 0.274114 0.076917
H2    H     H_    0.668442 0.227120 0.225223 0.111196
H3    H     H_    0.671865 0.369090 0.220903 -0.207646
H4    H     H_    0.155535 0.653581 0.658715 0.012247
H5    H     H_    0.938256 0.617289 0.668821 0.068823
H6    H     H_    0.188326 0.771234 0.770224 0.132659
H7    H     H_    0.092638 0.639101 0.786384 0.064317
H8    H     H_    0.968822 0.744531 0.778602 0.123340
H9    H     H_    0.127214 0.226713 0.386793 0.033753
H10   H     H_    0.333840 0.262470 0.430861 0.039519
H11   H     H_    0.288735 0.825114 0.178465 0.115813
H12   H     H_    0.216081 0.066886 0.324810 0.158837
H13   H     H_    0.263109 0.069183 0.418398 0.078018
H14   H     H_    0.423653 0.109699 0.362020 0.126697
H15   H     H_    0.551802 0.772764 0.288233 -0.063390
H16   H     H_    0.470862 0.765742 0.163239 0.054749
H17   H     H_    0.685055 0.759548 0.627225 0.015567
H18   H     H_    0.480220 0.744313 0.581268 0.060658
H19   H     H_    0.615326 0.925101 0.695181 0.125077
H20   H     H_    0.616796 0.934915 0.600828 0.064181
H21   H     H_    0.423536 0.909319 0.640838 0.136073
H22   H     H_    0.490119 0.904055 0.197596 0.201702
H23   H     H_    0.771756 0.120139 0.652449 0.085102
H24   H     H_    0.980271 0.188424 0.667323 -0.049184
H25   H     H_    0.951055 0.996230 0.694830 0.092596
H26   H     H_    0.037560 0.090140 0.768970 0.111981
H27   H     H_    0.826238 0.028329 0.765944 0.132317
H28   H     H_    0.248466 0.216610 0.716640 -0.072809
H29   H     H_    0.456669 0.288423 0.724190 0.089544
H30   H     H_    0.362042 0.237660 0.840445 0.066300
H31   H     H_    0.539797 0.177897 0.817511 0.152127
H32   H     H_    0.996304 0.874244 0.321059 0.056189
H33   H     H_    0.338133 0.098047 0.808061 0.111832
H34   H     H_    0.630500 0.049266 0.422414 0.106762
H35   H     H_    0.179834 0.950629 0.579064 0.101364
H36   H     H_    0.127680 0.267648 0.530628 0.063553
H37   H     H_    0.680733 0.732324 0.471076 0.068020
H38   H     H_    0.511226 0.564854 0.823838 0.073719
H39   H     H_    0.457863 0.653356 0.931301 0.062774
H40   H     H_    0.550550 0.673929 0.056855 0.065917
H41   H     H_    0.279048 0.437213 0.188875 0.097205
H42   H     H_    0.227822 0.330109 0.952101 0.061187
H43   H     H_    0.810121 0.814577 0.267587 -0.018745
H44   H     H_    0.319366 0.351072 0.078279 0.062990
H45   H     H_    0.039182 0.391738 0.864315 0.071881
H46   H     H_    0.743235 0.610302 0.139986 0.064452
H47   H     H_    0.149395 0.448694 0.652049 0.063172
H48   H     H_    0.655432 0.556332 0.354799 0.062169
H49   H     H_    0.105232 0.951816 0.214838 0.039059
H50   H     H_    0.930233 0.881282 0.159776 0.012286
H51   H     H_    0.628499 0.333603 0.340692 -0.135852
H52   H     H_    0.840307 0.396507 0.341143 0.029054
O1    O     O_2   0.160820 0.763040 0.533820 -0.462853
O2    O     O_3   0.304254 0.278024 0.321455 -0.599514
O3    O     O_3   0.025133 0.752032 0.247341 -0.632587
O4    O     O_2   0.649470 0.236890 0.466160 -0.483087
O5    O     O_3   0.919320 0.371390 0.464540 -0.503966
O6    O     O_3   0.424350 0.301430 0.591880 -0.481523
O7    O     O_3   0.799243 0.232411 0.352561 -0.574674
O8    O     O_3   0.382770 0.553920 0.582990 -0.481451
O9    O     O_3   0.848220 0.355290 0.626830 -0.481332
O10   O     O_2   0.737896 0.419105 0.749816 -0.491281
O11   O     O_3   0.813061 0.225081 0.742113 -0.593145
O12   O     O_3   0.890970 0.628600 0.535400 -0.494484
O13   O     O_3   0.427530 0.446070 0.416950 -0.503246
O14   O     O_2   0.637430 0.550200 0.669460 -0.461982
O15   O     O_3   0.493793 0.725145 0.690005 -0.642409
O16   O     O_2   0.509091 0.113724 0.550283 -0.497207
O17   O     O_3   0.428579 0.130996 0.680558 -0.599334
O18   O     O_3   0.385950 0.698560 0.408070 -0.494270
O19   O     O_2   0.298370 0.884831 0.450376 -0.486468
O20   O     O_3   0.014165 0.773424 0.646843 -0.646354
O21   O     O_3   0.381614 0.869274 0.320422 -0.589103
O22   O     O_2   0.172860 0.449730 0.330520 -0.425440
O23   O     O_3   0.962080 0.644700 0.373110 -0.478040
O24   O     O_2   0.030187 0.550606 0.250267 -0.459825
P1    P     P_3+3 0.986780 0.745970 0.554690 0.970889
P2    P     P_3+3 0.341450 0.417130 0.341310 1.021650
P3    P     P_3+3 0.931268 0.635808 0.280369 0.951431
P4    P     P_3+3 0.823520 0.254020 0.445250 1.006250
P5    P     P_3+3 0.868421 0.355833 0.719244 0.958605
P6    P     P_3+3 0.426929 0.837389 0.407101 0.967987
P7    P     P_3+3 0.462599 0.586057 0.670976 0.944397
P8    P     P_3+3 0.382214 0.162659 0.593924 0.943432
O25   O     O_3   0.901205 0.316287 0.220168 -0.576294
C45   C     C_3   0.894833 0.322722 0.146204 0.297839
H53   H     H_    0.870171 0.403363 0.132633 0.013623
H54   H     H_    0.800782 0.259699 0.117218 0.021231
H55   H     H_    0.016973 0.310704 0.127844 0.039467
S1    S     S_3+6 0.861847 0.030252 0.229277 -0.131988
O26   O     O_2   0.742108 0.008326 0.284727 -0.329818
O27   O     O_2   0.982950 0.128450 0.254203 -0.271055
O28   O     O_3   0.757380 0.050528 0.153245 -0.536143
H56   H     H_    0.841780 0.059242 0.118568 0.316755

loop_
_geom_bond_atom_site_label_1
_geom_bond_atom_site_label_2
_ccdc_geom_bond_type
O8    P7    S    
C44   H13   S    
O16   P8    D    
C34   C40   S    
C1    H22   S    
Ba1   O1    S    
C5    H24   S    
C5    C6    S    
C43   C44   S    
Ba2   O14   S    
C24   C25   A    
O15   P7    S    
C11   C16   A    
C33   C35   A    
C14   P1    S    
C22   C24   A    
C37   H38   S    
C16   C17   A    
C3    C4    S    
O12   P1    S    
Ba2   O4    S    
C30   H42   S    
Ba2   O9    S    
C29   C38   S    
C3    H17   S    
Ba1   Ba2   S    
C23   S1    S    
O5    P4    S    
C8    H30   S    
C42   H7    S    
C24   C32   S    
C4    H19   S    
C39   H47   S    
C10   C14   A    
C43   H10   S    
C14   C15   A    
O3    P3    S    
C21   C22   A    
C2    O21   S    
C34   H51   S    
Ba1   O18   S    
O14   P7    D    
C7    C8    S    
Ba1   O5    S    
Ba1   O8    S    
C44   H14   S    
O21   P6    S    
C42   H6    S    
C34   O7    S    
C11   H34   S    
C12   C23   S    
C20   C26   A    
C44   H12   S    
C20   H48   S    
S1    O28   S    
O19   P6    D    
C8    H31   S    
O11   P5    S    
C31   C32   A    
C9    H36   S    
C36   C37   A    
C9    C18   A    
Ba2   O13   S    
C6    H26   S    
C7    O17   S    
C36   P7    S    
C36   C39   A    
S1    O27   D    
C37   C38   A    
C45   H53   S    
C12   O3    S    
C41   O20   S    
C27   C32   A    
Ba2   O8    S    
C15   C19   A    
C5    O11   S    
C10   H37   S    
O22   P2    D    
O2    P2    S    
Ba1   O22   S    
C41   C42   S    
Ba1   P1    S    
C12   H43   S    
O23   P3    S    
C27   C28   A    
Ba1   O12   S    
C29   C30   A    
C10   C13   A    
Ba2   O6    S    
C8    H33   S    
C9    C17   A    
C15   C16   A    
C25   H46   S    
C40   H2    S    
C28   H39   S    
C43   H9    S    
C27   H40   S    
C40   O25   S    
C1    H11   S    
C4    H21   S    
C19   H35   S    
C23   H49   S    
C13   P6    S    
C11   C13   A    
C7    H28   S    
C1    C2    S    
Ba2   P4    S    
C26   P3    S    
O1    P1    D    
C1    H16   S    
Ba2   O12   S    
C6    H25   S    
C3    O15   S    
O13   P2    S    
C18   P8    S    
S1    O26   D    
O4    P4    D    
C43   O2    S    
C5    H23   S    
C34   H52   S    
O28   H56   S    
C41   H4    S    
C21   P2    S    
O7    P4    S    
C17   P4    S    
C30   C31   A    
O24   P3    D    
C33   C38   A    
Ba1   P2    S    
O9    P5    S    
C31   H44   S    
Ba1   O13   S    
C41   H5    S    
C28   C29   A    
Ba2   O5    S    
C45   H55   S    
C2    H15   S    
C6    H27   S    
O20   P1    S    
C12   H32   S    
O10   P5    D    
C35   C39   A    
C22   H41   S    
Ba1   O23   S    
C40   H3    S    
C42   H8    S    
C4    H20   S    
C18   C19   A    
C3    H18   S    
C23   H50   S    
C45   H54   S    
O18   P6    S    
C25   C26   A    
C20   C21   A    
O6    P8    S    
C7    H29   S    
C2    H1    S    
O25   C45   S    
C35   P5    S    
O17   P8    S    
C33   H45   S    
