data_mof_unit_43341.cif
_audit_creation_date              2013-03-05T15:40:02-0500
_audit_creation_method            fapswitch 2.2
_symmetry_space_group_name_H-M    P1
_symmetry_Int_Tables_number       1
_space_group_crystal_system       triclinic
_cell_length_a                    24.567013
_cell_length_b                    17.398109
_cell_length_c                    15.618519
_cell_angle_alpha                 90.335836
_cell_angle_beta                  129.300421
_cell_angle_gamma                 90.17254
_cell_volume                      5165.57982871

loop_
_atom_site_label
_atom_site_type_symbol
_atom_site_description
_atom_site_fract_x
_atom_site_fract_y
_atom_site_fract_z
_atom_type_partial_charge
C1    C     C_R   0.343335 0.368442 0.228857 -0.019866
C2    C     C_R   0.666866 0.395566 0.800662 0.002115
C3    C     C_R   0.838191 0.878251 0.213153 -0.058582
C4    C     C_R   0.167375 0.896445 0.801022 -0.003088
H1    H     H_    0.293761 0.357680 0.211212 0.114159
H2    H     H_    0.720305 0.402058 0.831122 0.169208
H3    H     H_    0.784801 0.874705 0.183141 0.118846
H4    H     H_    0.220505 0.902520 0.830025 0.164759
N1    N     N_R   0.389060 0.424180 0.294540 -0.049662
N2    N     N_R   0.610940 0.424180 0.705460 -0.063761
N3    N     N_R   0.889060 0.924180 0.294540 -0.045268
N4    N     N_R   0.110940 0.924180 0.705460 -0.065550
C5    C     C_R   0.604151 0.373527 0.409759 0.294009
C6    C     C_R   0.385863 0.396255 0.590527 0.329017
C7    C     C_R   0.103154 0.872238 0.409616 0.307305
C8    C     C_R   0.911106 0.858526 0.591379 0.312754
N5    N     N_R   0.579670 0.423790 0.443360 -0.097571
N6    N     N_R   0.420330 0.423790 0.556640 -0.097452
N7    N     N_R   0.079670 0.923790 0.443360 -0.095882
N8    N     N_R   0.920330 0.923790 0.556640 -0.101397
C9    C     C_R   0.673310 0.369122 0.594123 -0.088983
C10   C     C_R   0.312660 0.395406 0.407089 -0.100307
C11   C     C_R   0.172506 0.868189 0.594057 -0.099235
C12   C     C_R   0.837183 0.857964 0.407662 -0.067248
H5    H     H_    0.716274 0.358211 0.680381 0.156721
H6    H     H_    0.265054 0.399128 0.322363 0.155214
H7    H     H_    0.215429 0.857125 0.680265 0.153245
H8    H     H_    0.794740 0.843261 0.323061 0.120659
N9    N     N_R   0.625470 0.423490 0.556600 -0.068216
N10   N     N_R   0.374530 0.423490 0.443400 -0.069808
N11   N     N_R   0.125470 0.923490 0.556600 -0.068973
N12   N     N_R   0.874530 0.923490 0.443400 -0.066951
C13   C     C_R   0.576889 0.393103 0.801230 0.009582
C14   C     C_R   0.432592 0.366411 0.225241 0.001824
C15   C     C_R   0.079042 0.897745 0.804783 0.000440
C16   C     C_R   0.929673 0.872771 0.216336 0.011502
H9    H     H_    0.548040 0.394515 0.831727 0.205284
H10   H     H_    0.463897 0.352807 0.201291 0.185395
H11   H     H_    0.052576 0.905796 0.838617 0.203565
H12   H     H_    0.961110 0.860611 0.192232 0.180871
N13   N     N_R   0.555250 0.423100 0.705420 -0.068213
N14   N     N_R   0.444750 0.423100 0.294580 -0.068843
N15   N     N_R   0.055250 0.923100 0.705420 -0.080843
N16   N     N_R   0.944750 0.923100 0.294580 -0.070171
C17   C     C_R   0.370543 0.329602 0.186509 0.038721
C18   C     C_R   0.646999 0.376072 0.862843 -0.004556
C19   C     C_R   0.864265 0.841504 0.168083 0.056231
C20   C     C_R   0.148851 0.879395 0.865592 0.015374
C21   C     C_R   0.660089 0.334808 0.502785 -0.018284
C22   C     C_R   0.317636 0.379521 0.498065 -0.034740
C23   C     C_R   0.158642 0.833175 0.502626 -0.013117
C24   C     C_R   0.861336 0.814138 0.499003 -0.030282
C25   C     C_R   0.312819 0.601274 0.410720 0.321531
C26   C     C_R   0.684698 0.611309 0.591458 0.307476
C27   C     C_R   0.812620 0.100371 0.410627 0.329376
C28   C     C_R   0.179188 0.123100 0.590433 0.303909
N17   N     N_R   0.375210 0.577180 0.443400 -0.101744
N18   N     N_R   0.624790 0.577180 0.556600 -0.099442
N19   N     N_R   0.875210 0.077180 0.443400 -0.098382
N20   N     N_R   0.124790 0.077180 0.556600 -0.098379
C29   C     C_R   0.443396 0.643608 0.248607 -0.071387
C30   C     C_R   0.575406 0.616645 0.796592 -0.057197
C31   C     C_R   0.941226 0.142500 0.244558 -0.082841
C32   C     C_R   0.075531 0.114525 0.797950 -0.079198
H13   H     H_    0.479730 0.661047 0.235416 0.120038
H14   H     H_    0.546751 0.618332 0.827833 0.142717
H15   H     H_    0.974926 0.159305 0.226061 0.111519
H16   H     H_    0.046391 0.115430 0.828384 0.133194
N21   N     N_R   0.445430 0.577570 0.294580 -0.053680
N22   N     N_R   0.554570 0.577570 0.705420 -0.062617
N23   N     N_R   0.945430 0.077570 0.294580 -0.054088
N24   N     N_R   0.054570 0.077570 0.705420 -0.065526
C33   C     C_R   0.664266 0.617553 0.790991 -0.024101
C34   C     C_R   0.352008 0.640656 0.248126 0.006104
C35   C     C_R   0.165148 0.114793 0.794605 -0.032504
C36   C     C_R   0.850825 0.139573 0.246336 -0.000024
H17   H     H_    0.716147 0.621897 0.815700 0.197749
H18   H     H_    0.304002 0.653395 0.233260 0.178227
H19   H     H_    0.217785 0.117329 0.822257 0.201317
H20   H     H_    0.802598 0.151448 0.231369 0.173018
N25   N     N_R   0.611620 0.576500 0.705460 -0.071813
N26   N     N_R   0.388380 0.576500 0.294540 -0.057706
N27   N     N_R   0.111620 0.076500 0.705460 -0.072526
N28   N     N_R   0.888380 0.076500 0.294540 -0.059486
C37   C     C_R   0.389191 0.605243 0.594062 -0.121715
C38   C     C_R   0.609585 0.611522 0.407414 -0.146421
C39   C     C_R   0.888623 0.103197 0.594090 -0.127543
C40   C     C_R   0.103719 0.121972 0.406486 -0.138445
H21   H     H_    0.411446 0.603587 0.679742 0.164845
H22   H     H_    0.589055 0.610939 0.322435 0.150371
H23   H     H_    0.910214 0.098664 0.679370 0.139296
H24   H     H_    0.083077 0.125735 0.321705 0.152583
N29   N     N_R   0.421010 0.576890 0.556640 -0.073850
N30   N     N_R   0.578990 0.576890 0.443360 -0.070547
N31   N     N_R   0.921010 0.076890 0.556640 -0.073347
N32   N     N_R   0.078990 0.076890 0.443360 -0.068856
Ni1   Ni    Ni4+2 0.383200 0.500680 0.370150 0.299975
Ni2   Ni    Ni4+2 0.616800 0.500680 0.629850 0.297803
Ni3   Ni    Ni4+2 0.883200 0.000680 0.370150 0.307439
Ni4   Ni    Ni4+2 0.116800 0.000680 0.629850 0.289646
Ni5   Ni    Ni4+2 0.512440 0.500680 0.370150 0.295155
Ni6   Ni    Ni4+2 0.487560 0.500680 0.629850 0.283579
Ni7   Ni    Ni4+2 0.012440 0.000680 0.370150 0.297232
Ni8   Ni    Ni4+2 0.987560 0.000680 0.629850 0.260549
C41   C     C_R   0.319995 0.618545 0.504072 -0.022732
C42   C     C_R   0.675664 0.635215 0.498949 -0.009693
C43   C     C_R   0.819527 0.116953 0.503913 -0.015078
C44   C     C_R   0.164431 0.155497 0.497085 -0.011324
C45   C     C_R   0.386600 0.685307 0.222199 0.084609
C46   C     C_R   0.644496 0.641305 0.852009 0.150098
C47   C     C_R   0.884452 0.183855 0.218542 0.095580
C48   C     C_R   0.145181 0.137284 0.855878 0.158093
C49   C     C_2   0.729784 0.660429 0.414058 -0.111468
C50   C     C_2   0.277946 0.663577 0.599885 -0.084461
C51   C     C_2   0.163591 0.270770 0.412808 -0.136263
C52   C     C_2   0.777553 0.163387 0.599124 -0.085758
C53   C     C_2   0.728810 0.669974 0.498310 -0.109067
C54   C     C_2   0.263686 0.635065 0.508009 -0.118376
C55   C     C_2   0.200913 0.217177 0.491205 -0.068042
C56   C     C_2   0.763122 0.134564 0.507255 -0.106720
H25   H     H_    0.691306 0.623997 0.343543 0.175301
H26   H     H_    0.329278 0.658211 0.680485 0.156473
H27   H     H_    0.106848 0.265982 0.349348 0.148277
H28   H     H_    0.828686 0.157145 0.679830 0.153149
H29   H     H_    0.764544 0.709587 0.565932 0.185345
H30   H     H_    0.210398 0.638029 0.430608 0.201372
H31   H     H_    0.257808 0.220226 0.552821 0.194773
H32   H     H_    0.710109 0.138827 0.429464 0.200218
C57   C     C_2   0.199746 0.332353 0.404280 -0.078165
C58   C     C_2   0.731168 0.221012 0.589508 -0.113222
C59   C     C_2   0.774498 0.710276 0.406468 -0.028810
C60   C     C_2   0.230782 0.720129 0.590046 -0.112979
C61   C     C_2   0.259742 0.359899 0.496624 -0.119986
C62   C     C_2   0.700739 0.272643 0.507724 -0.093750
C63   C     C_2   0.834147 0.739586 0.498390 -0.071470
C64   C     C_2   0.199267 0.771151 0.507430 -0.089574
H33   H     H_    0.184065 0.342410 0.322987 0.152345
H34   H     H_    0.727930 0.225813 0.655518 0.183363
H35   H     H_    0.751645 0.731838 0.325125 0.150525
H36   H     H_    0.228083 0.725040 0.656619 0.183142
H37   H     H_    0.271089 0.352042 0.575396 0.200052
H38   H     H_    0.706726 0.269739 0.444709 0.202647
H39   H     H_    0.858138 0.712937 0.577453 0.195494
H40   H     H_    0.204756 0.768314 0.443848 0.203450
C65   C     C_2   0.697240 0.361860 0.981617 0.259335
C66   C     C_2   0.337643 0.263422 0.111119 0.132583
C67   C     C_2   0.200020 0.865200 0.984806 0.269611
C68   C     C_2   0.830672 0.776339 0.091541 0.134929
C69   C     C_2   0.744197 0.305360 0.015129 0.066616
C70   C     C_2   0.310356 0.204985 0.131456 0.074918
C71   C     C_2   0.247401 0.809004 0.018159 0.069258
C72   C     C_2   0.812110 0.713314 0.119520 0.074751
H41   H     H_    0.377399 0.768664 0.112094 0.182867
H42   H     H_    0.674874 0.725457 0.979983 0.142288
H43   H     H_    0.873763 0.266363 0.106475 0.181022
H44   H     H_    0.174383 0.219384 0.984922 0.146868
C73   C     C_2   0.361513 0.757581 0.161837 -0.215420
C74   C     C_2   0.693316 0.675665 0.962799 -0.330627
C75   C     C_2   0.858783 0.255645 0.157522 -0.229766
C76   C     C_2   0.193222 0.169742 0.968160 -0.319224
C77   C     C_2   0.303582 0.790989 0.135879 0.287479
C78   C     C_2   0.762345 0.657112 0.033676 0.387047
C79   C     C_2   0.801139 0.288740 0.132722 0.292254
C80   C     C_2   0.261745 0.149710 0.042708 0.384102
N33   N     N_R   0.289620 0.791789 0.212842 0.246680
O1    O     O_R   0.340915 0.801776 0.318210 -0.339138
O2    O     O_R   0.226051 0.781063 0.178300 -0.295323
N34   N     N_R   0.789948 0.586438 0.026511 0.275070
O3    O     O_R   0.857170 0.580075 0.079734 -0.277558
O4    O     O_R   0.750452 0.525462 0.979912 -0.393166
N35   N     N_R   0.788312 0.290218 0.211068 0.246580
O5    O     O_R   0.840258 0.300722 0.316045 -0.343676
O6    O     O_R   0.725078 0.279955 0.178122 -0.301283
N36   N     N_R   0.290453 0.079478 0.036710 0.277943
O7    O     O_R   0.250159 0.021361 0.977227 -0.414107
O8    O     O_R   0.358281 0.069756 0.103185 -0.277921
N37   N     N_R   0.733927 0.252391 0.934375 0.229169
O9    O     O_R   0.773247 0.256754 0.905540 -0.420389
O10   O     O_R   0.681391 0.204000 0.883348 -0.322522
N38   N     N_R   0.326372 0.195723 0.237065 0.249327
O11   O     O_R   0.282506 0.158863 0.242556 -0.321605
O12   O     O_R   0.388890 0.212093 0.328577 -0.348991
N39   N     N_R   0.237716 0.756924 0.937082 0.226882
O13   O     O_R   0.278323 0.761300 0.910659 -0.419733
O14   O     O_R   0.185006 0.708731 0.884287 -0.321354
N40   N     N_R   0.839424 0.698996 0.231448 0.243807
O15   O     O_R   0.807372 0.649847 0.248775 -0.343602
O16   O     O_R   0.902006 0.722887 0.315651 -0.367524
N41   N     N_R   0.701750 0.415265 0.057213 0.279822
O17   O     O_R   0.762542 0.441010 0.144150 -0.270668
O18   O     O_R   0.645182 0.447986 0.029743 -0.316769
N42   N     N_R   0.329479 0.266145 0.011144 0.242664
O19   O     O_R   0.324910 0.332198 0.968405 -0.318852
O20   O     O_R   0.336735 0.204475 0.971848 -0.297619
N43   N     N_R   0.204243 0.917448 0.061244 0.279383
O21   O     O_R   0.264921 0.943210 0.148449 -0.268792
O22   O     O_R   0.147514 0.948646 0.035208 -0.320756
N44   N     N_R   0.813763 0.783543 0.985084 0.243907
O23   O     O_R   0.805527 0.851413 0.943932 -0.324269
O24   O     O_R   0.817841 0.724499 0.937963 -0.320208
N45   N     N_R   0.588885 0.377052 0.304860 0.228586
O25   O     O_R   0.600456 0.318480 0.266395 -0.312989
O26   O     O_R   0.563270 0.439658 0.247079 -0.377435
N46   N     N_R   0.408799 0.406991 0.699928 0.220011
O27   O     O_R   0.396308 0.354419 0.744483 -0.319611
O28   O     O_R   0.442889 0.469019 0.756142 -0.429528
N47   N     N_R   0.088101 0.874978 0.304890 0.227701
O29   O     O_R   0.096468 0.814722 0.264744 -0.312929
O30   O     O_R   0.066633 0.938736 0.249537 -0.367179
N48   N     N_R   0.931220 0.849265 0.698885 0.219474
O31   O     O_R   0.951345 0.782849 0.747281 -0.333574
O32   O     O_R   0.925441 0.906813 0.746164 -0.373101
N49   N     N_R   0.247447 0.586572 0.302284 0.219830
O33   O     O_R   0.244040 0.535078 0.238297 -0.426143
O34   O     O_R   0.193781 0.631040 0.261523 -0.311383
N50   N     N_R   0.751500 0.595666 0.696365 0.233002
O35   O     O_R   0.760576 0.532045 0.747197 -0.395712
O36   O     O_R   0.804694 0.642082 0.738501 -0.302460
N51   N     N_R   0.747539 0.082842 0.303290 0.223066
O37   O     O_R   0.744554 0.027428 0.244116 -0.411777
O38   O     O_R   0.693241 0.126910 0.259352 -0.314501
N52   N     N_R   0.247628 0.117905 0.696008 0.228971
O39   O     O_R   0.268853 0.052543 0.747390 -0.373234
O40   O     O_R   0.291609 0.175430 0.735684 -0.303992

loop_
_geom_bond_atom_site_label_1
_geom_bond_atom_site_label_2
_geom_bond_distance
_ccdc_geom_bond_type
C12   C24   1.382691 A    
N35   O5    1.301820 A    
C40   N32   1.327246 A    
C7    N7    1.340821 A    
N33   O1    1.301821 A    
N15   Ni8   1.877792 S    
C27   N19   1.340995 A    
N19   Ni3   1.840392 S    
N45   O25   1.300418 A    
C6    N6    1.339717 A    
C15   H11   1.075443 S    
N18   Ni2   1.849215 S    
C25   C41   1.384244 A    
C7    N47   1.431499 S    
C21   C62   1.443216 S    
C29   C45   1.387043 A    
C15   N15   1.343554 A    
C36   N28   1.325925 A    
C34   C45   1.387554 A    
C9    C21   1.377996 A    
C33   C46   1.377614 A    
C38   C42   1.377749 A    
N49   O33   1.300559 A    
C2    C18   1.378306 A    
C26   N50   1.433048 S    
N35   O6    1.301738 A    
N10   Ni1   1.866213 S    
C35   C48   1.378749 A    
C35   H19   1.073606 S    
N9    Ni2   1.857463 S    
C77   N33   1.443921 S    
C1    H1    1.080331 S    
C76   C80   1.355133 D    
N50   O36   1.300367 A    
H42   C74   1.086927 S    
N4    N15   1.367814 A    
C59   C63   1.338065 D    
N39   O14   1.300967 A    
C55   H31   1.085176 S    
C51   C57   1.449307 S    
C56   H32   1.083979 S    
C40   C44   1.370639 A    
C60   C64   1.343294 D    
C32   C48   1.390628 A    
C18   C65   1.460347 S    
N51   O38   1.300335 A    
N25   Ni2   1.823176 S    
C20   C67   1.466396 S    
N5    N9    1.368709 A    
N13   Ni6   1.877792 S    
C30   N22   1.347254 A    
C16   C19   1.379073 A    
N3    Ni3   1.839787 S    
N6    Ni6   1.844264 S    
C73   C77   1.343306 D    
N2    Ni2   1.849150 S    
N22   N25   1.401332 A    
N5    Ni5   1.861124 S    
N36   O7    1.297447 A    
C28   C44   1.384207 A    
C65   C69   1.348697 D    
C47   C75   1.457174 S    
N21   N26   1.401221 A    
C38   N30   1.333787 A    
C66   C70   1.361362 D    
C37   N29   1.331807 A    
C40   H24   1.079543 S    
N30   Ni5   1.827431 S    
C14   N14   1.345631 A    
N37   O10   1.300908 A    
C39   N31   1.331642 A    
N1    Ni1   1.839787 S    
C67   N43   1.446441 S    
N44   O23   1.301508 A    
N6    N10   1.368603 A    
C11   H7    1.080553 S    
C4    N4    1.331861 A    
C52   H28   1.084077 S    
C46   C74   1.464444 S    
C4    H4    1.081508 S    
C10   C22   1.376637 A    
N34   O4    1.298747 A    
N7    N11   1.368709 A    
N33   O2    1.301755 A    
N17   N29   1.368705 A    
N2    N13   1.367814 A    
C31   C47   1.385533 A    
C13   C18   1.373765 A    
N45   O26   1.301189 A    
C44   C55   1.436285 S    
C66   N42   1.443900 S    
C2    H2    1.081634 S    
N19   N31   1.368705 A    
C34   N26   1.328445 A    
N8    N12   1.368603 A    
C37   C41   1.377799 A    
C15   C20   1.374297 A    
C33   N25   1.327423 A    
N16   Ni7   1.860569 S    
N38   O12   1.301778 A    
C45   C73   1.460234 S    
N49   O34   1.300289 A    
C31   H15   1.075574 S    
C51   H27   1.086573 S    
C39   H23   1.080806 S    
C30   H14   1.081479 S    
H43   C75   1.085772 S    
N47   O29   1.300501 A    
C8    C24   1.385484 A    
H44   C76   1.087149 S    
C1    N1    1.332896 A    
N50   O35   1.301073 A    
C72   N40   1.445147 S    
C38   H22   1.080676 S    
C1    C17   1.377822 A    
N51   O37   1.300878 A    
C59   H35   1.083178 S    
C37   H21   1.078992 S    
C27   N51   1.433691 S    
N24   Ni8   1.843791 S    
C71   C77   1.475940 S    
N7    Ni7   1.861124 S    
C13   H9    1.075820 S    
C57   H33   1.083747 S    
C28   N20   1.340725 A    
C6    N46   1.431067 S    
N42   O20   1.300654 A    
C67   C71   1.351613 D    
N39   O13   1.301042 A    
C12   N12   1.338110 A    
C49   C59   1.460577 S    
C29   H13   1.078567 S    
C62   H38   1.084289 S    
C23   C64   1.441785 S    
C11   C23   1.377947 A    
C7    C23   1.392483 A    
C30   C46   1.394431 A    
C16   H12   1.073002 S    
C8    N8    1.340315 A    
N17   Ni1   1.840392 S    
C69   N37   1.444137 S    
N1    N14   1.367926 A    
C49   H25   1.085197 S    
N3    N16   1.367926 A    
C14   C17   1.386065 A    
N11   Ni4   1.857463 S    
C26   C42   1.382483 A    
C80   N36   1.444562 S    
C50   C54   1.334822 D    
C49   C53   1.340552 D    
N20   N32   1.368605 A    
N48   O32   1.301094 A    
N34   O3    1.301416 A    
N46   O28   1.299563 A    
N48   O31   1.300483 A    
C51   C55   1.343763 D    
N27   Ni4   1.823176 S    
C68   N44   1.442452 S    
C42   C53   1.443031 S    
C5    C21   1.393220 A    
C26   N18   1.338262 A    
N26   Ni1   1.832614 S    
C57   C61   1.333035 D    
C41   C54   1.452569 S    
C16   N16   1.345158 A    
C36   H20   1.073430 S    
N40   O16   1.301722 A    
C58   H34   1.085899 S    
N14   Ni5   1.860569 S    
C32   H16   1.081526 S    
C43   C56   1.452831 S    
C79   N35   1.444116 S    
N31   Ni8   1.844227 S    
C12   H8    1.071319 S    
C70   N38   1.443215 S    
N23   N28   1.401221 A    
C4    C20   1.377015 A    
C29   N21   1.342647 A    
C9    H5    1.080732 S    
C19   C68   1.457496 S    
N52   O40   1.300432 A    
C25   N49   1.435233 S    
C48   C76   1.466189 S    
C65   N41   1.445834 S    
C14   H10   1.073259 S    
N28   Ni3   1.832614 S    
C50   C60   1.455079 S    
C68   C72   1.362464 D    
C31   N23   1.343890 A    
N20   Ni4   1.849215 S    
C22   C61   1.447885 S    
C25   N17   1.341980 A    
N29   Ni6   1.844227 S    
C39   C43   1.378486 A    
C71   N39   1.443869 S    
C69   C79   1.472324 S    
N8    Ni8   1.844264 S    
N21   Ni5   1.860944 S    
C60   H36   1.085887 S    
C70   C80   1.467260 S    
C3    H3    1.079005 S    
C17   C66   1.462331 S    
N12   Ni3   1.866213 S    
C5    N5    1.341441 A    
C13   N13   1.340643 A    
N42   O19   1.301421 A    
C8    N48   1.429019 S    
N18   N30   1.368605 A    
C64   H40   1.084388 S    
C10   N10   1.330766 A    
C28   N52   1.429938 S    
C35   N27   1.332726 A    
N22   Ni6   1.843791 S    
C6    C22   1.380415 A    
C9    N9    1.326710 A    
C36   C47   1.385220 A    
C3    C19   1.372196 A    
C63   H39   1.083315 S    
C5    N45   1.432326 S    
C75   C79   1.341510 D    
C32   N24   1.345924 A    
H41   C73   1.085577 S    
N41   O17   1.301837 A    
C58   C62   1.343587 D    
N36   O8    1.302069 A    
N4    Ni4   1.849150 S    
N24   N27   1.401332 A    
C3    N3    1.336338 A    
C74   C78   1.354583 D    
C10   H6    1.078921 S    
N43   O21   1.301907 A    
C50   H26   1.083889 S    
C52   C56   1.334950 D    
C52   C58   1.455352 S    
N46   O27   1.300500 A    
N37   O9    1.301058 A    
C34   H18   1.072026 S    
N32   Ni7   1.827431 S    
C27   C43   1.384361 A    
N47   O30   1.301239 A    
C24   C63   1.454363 S    
C33   H17   1.074772 S    
C78   N34   1.443547 S    
N44   O24   1.300804 A    
C61   H37   1.085254 S    
C54   H30   1.083623 S    
N41   O18   1.300676 A    
N40   O15   1.301188 A    
C53   H29   1.083716 S    
N23   Ni7   1.860944 S    
N52   O39   1.301250 A    
C72   C78   1.466071 S    
N38   O11   1.301354 A    
C11   N11   1.326706 A    
N43   O22   1.300568 A    
C2    N2    1.330906 A    
