data_mof_unit_31059.cif
_audit_creation_date              2012-12-10T16:33:55-0500
_audit_creation_method            fapswitch 2.2
_symmetry_space_group_name_H-M    P1
_symmetry_Int_Tables_number       1
_space_group_crystal_system       triclinic
_cell_length_a                    28.17239
_cell_length_b                    18.479952
_cell_length_c                    17.061155
_cell_angle_alpha                 89.692489
_cell_angle_beta                  60.725091
_cell_angle_gamma                 89.830359
_cell_volume                      7747.90575055

loop_
_atom_site_label
_atom_site_type_symbol
_atom_type_description
_atom_site_fract_x
_atom_site_fract_y
_atom_site_fract_z
_atom_type_partial_charge
C1    C     C_R   0.701897 0.268755 0.675818 0.913945
C2    C     C_R   0.973236 0.630665 0.430584 0.501984
C3    C     C_R   0.074934 0.901427 0.933321 0.923194
C4    C     C_R   0.572611 0.601166 0.935201 0.915118
C5    C     C_R   0.425595 0.400800 0.066397 0.922782
C6    C     C_R   0.427006 0.600847 0.065016 0.915551
C7    C     C_R   0.574934 0.401428 0.933321 0.923216
C8    C     C_R   0.560412 0.997540 0.468535 -0.119111
C9    C     C_R   0.471742 0.999422 0.435523 -0.116651
C10   C     C_R   0.060404 0.497552 0.468554 -0.118889
C11   C     C_R   0.971741 0.499432 0.435525 -0.116489
C12   C     C_R   0.548670 0.061415 0.434746 -0.038268
C13   C     C_R   0.975554 0.369107 0.422630 0.514853
C14   C     C_R   0.492526 0.933042 0.446837 -0.061605
C15   C     C_R   0.498767 0.064906 0.432210 -0.045329
C16   C     C_R   0.530461 0.933662 0.478902 -0.056362
C17   C     C_R   0.048657 0.561434 0.434779 -0.038635
C18   C     C_R   0.992527 0.433053 0.446837 -0.061782
C19   C     C_R   0.998759 0.564920 0.432228 -0.045536
C20   C     C_R   0.030455 0.433672 0.478915 -0.056500
C21   C     C_R   0.613445 0.935401 0.528182 0.024775
C22   C     C_R   0.397812 0.065874 0.429802 0.017706
C23   C     C_R   0.397442 0.933876 0.430579 0.015567
C24   C     C_R   0.088241 0.617299 0.403285 0.495770
C25   C     C_R   0.633977 0.059952 0.477871 0.019533
C26   C     C_R   0.113443 0.435404 0.528189 0.024703
C27   C     C_R   0.897812 0.565876 0.429792 0.017714
C28   C     C_R   0.897443 0.433879 0.430577 0.015524
C29   C     C_R   0.133975 0.559954 0.477883 0.019290
C30   C     C_R   0.659656 0.935608 0.541935 -0.102375
C31   C     C_R   0.343877 0.065159 0.441474 -0.095437
C32   C     C_R   0.343662 0.935003 0.441882 -0.098713
C33   C     C_R   0.670627 0.062050 0.512938 -0.085685
C34   C     C_R   0.159656 0.435608 0.541936 -0.102364
C35   C     C_R   0.536617 0.874893 0.527040 0.502554
C36   C     C_R   0.843877 0.565160 0.441467 -0.095455
C37   C     C_R   0.843662 0.435004 0.441881 -0.098716
C38   C     C_R   0.170628 0.562049 0.512942 -0.085678
C39   C     C_R   0.683199 0.999963 0.543723 -0.303125
C40   C     C_R   0.319135 0.000181 0.443694 -0.297464
C41   C     C_R   0.183200 0.499962 0.543724 -0.303074
C42   C     C_R   0.819136 0.500181 0.443690 -0.297451
C43   C     C_R   0.602278 0.997721 0.492075 0.055170
C44   C     C_R   0.422518 0.999824 0.431212 0.061701
C45   C     C_R   0.102273 0.497727 0.492090 0.055160
C46   C     C_R   0.473246 0.130655 0.430575 0.502289
C47   C     C_R   0.922519 0.499829 0.431207 0.061664
C48   C     C_R   0.078087 0.375885 0.549746 -0.299908
C49   C     C_R   0.927313 0.629926 0.419910 -0.319953
C50   C     C_R   0.928211 0.369901 0.415569 -0.301623
C51   C     C_R   0.129545 0.616374 0.426176 -0.323736
C52   C     C_R   0.578090 0.875880 0.549741 -0.300090
C53   C     C_R   0.427314 0.129922 0.419924 -0.320024
C54   C     C_R   0.428210 0.869897 0.415567 -0.301721
C55   C     C_R   0.629550 0.116368 0.426152 -0.324275
C56   C     C_3   0.955136 0.336442 0.640175 0.090190
C57   C     C_R   0.475552 0.869099 0.422630 0.515011
C58   C     C_3   0.913410 0.275748 0.670775 -0.799263
C59   C     C_3   0.964193 0.705589 0.542147 0.111658
C60   C     C_3   0.983885 0.776060 0.561996 -0.799878
C61   C     C_3   0.052394 0.314691 0.315467 0.106507
C62   C     C_3   0.086062 0.245623 0.290360 -0.822351
C63   C     C_3   0.126577 0.666744 0.262139 0.106156
C64   C     C_3   0.127468 0.735451 0.211935 -0.824801
C65   C     C_3   0.455198 0.836379 0.640255 0.090176
C66   C     C_3   0.413390 0.775783 0.670734 -0.799076
C67   C     C_3   0.464224 0.205591 0.542114 0.111463
C68   C     C_R   0.588264 0.117267 0.403207 0.495919
C69   C     C_3   0.483969 0.276028 0.561940 -0.799906
C70   C     C_3   0.552378 0.814683 0.315435 0.106375
C71   C     C_3   0.586079 0.745648 0.290345 -0.822476
C72   C     C_3   0.626851 0.166904 0.262107 0.106470
C73   C     C_3   0.627300 0.235296 0.211741 -0.824669
C74   C     C_3   0.794557 0.408877 0.859573 0.120419
C75   C     C_3   0.792887 0.485826 0.829029 -0.776484
C76   C     C_3   0.296924 0.568738 0.945382 0.158756
C77   C     C_3   0.343323 0.523116 0.941082 -0.780725
C78   C     C_3   0.223489 0.411921 0.119945 0.141430
C79   C     C_R   0.726574 0.271257 0.946748 -0.245201
C80   C     C_3   0.170128 0.434179 0.124147 -0.848846
C81   C     C_3   0.678772 0.584771 0.089396 0.112973
C82   C     C_3   0.647805 0.518157 0.087065 -0.802186
C83   C     C_3   0.294587 0.908839 0.859543 0.120406
C84   C     C_3   0.292925 0.985776 0.828957 -0.776520
C85   C     C_3   0.796970 0.068767 0.945280 0.158777
C86   C     C_3   0.843379 0.023147 0.940945 -0.780753
C87   C     C_3   0.723532 0.911981 0.119855 0.141308
C88   C     C_3   0.670163 0.934190 0.124049 -0.848710
C89   C     C_3   0.178797 0.084743 0.089336 0.112910
C90   C     C_R   0.283555 0.738358 0.041096 -0.220911
C91   C     C_3   0.147832 0.018136 0.086981 -0.801749
C92   C     C_3   0.657701 0.129416 0.012545 0.111538
C93   C     C_3   0.629484 0.074815 0.982866 -0.835545
C94   C     C_3   0.260875 0.911033 0.111796 0.132080
C95   C     C_3   0.282272 0.943235 0.170384 -0.829444
C96   C     C_3   0.332006 0.106615 0.998141 0.158143
C97   C     C_3   0.380794 0.112590 0.013270 -0.857535
C98   C     C_3   0.766529 0.887072 0.847273 0.126237
C99   C     C_3   0.750608 0.928950 0.786612 -0.833994
C100  C     C_3   0.157679 0.629400 0.012594 0.111418
C101  C     C_R   0.277139 0.265999 0.049727 -0.252691
C102  C     C_3   0.129469 0.574770 0.982939 -0.835573
C103  C     C_3   0.760833 0.411010 0.111876 0.132045
C104  C     C_3   0.782218 0.443211 0.170480 -0.829486
C105  C     C_3   0.831976 0.606615 0.998200 0.158109
C106  C     C_3   0.880758 0.612575 0.013344 -0.857516
C107  C     C_3   0.266493 0.387089 0.847324 0.126258
C108  C     C_3   0.250560 0.428954 0.786670 -0.834023
C109  C     C_R   0.297907 0.730623 0.324110 0.871580
C110  C     C_R   0.719949 0.731445 0.955906 -0.249511
C111  C     C_R   0.226564 0.771243 0.946759 -0.245175
C112  C     C_R   0.783565 0.238366 0.041083 -0.221114
C113  C     C_R   0.777136 0.766012 0.049730 -0.252659
C114  C     C_R   0.219955 0.231435 0.955900 -0.249515
C115  C     C_R   0.733276 0.198750 0.965437 0.281720
C116  C     C_R   0.276386 0.810854 0.023399 0.320787
C117  C     C_R   0.265807 0.193503 0.040138 0.318998
C118  C     C_R   0.734215 0.803754 0.960954 0.340136
C119  C     C_R   0.233255 0.698737 0.965471 0.281633
C120  C     C_R   0.298350 0.268358 0.324186 0.894971
C121  C     C_R   0.776381 0.310865 0.023414 0.320867
C122  C     C_R   0.765788 0.693517 0.040166 0.318962
C123  C     C_R   0.234203 0.303746 0.960976 0.340124
C124  C     C_R   0.764800 0.181957 0.007562 0.312398
C125  C     C_R   0.250748 0.826928 0.971638 0.284246
C126  C     C_R   0.233069 0.176648 0.000690 0.292149
C127  C     C_R   0.757800 0.821363 0.015039 0.329791
C128  C     C_R   0.264774 0.681947 0.007605 0.312481
C129  C     C_R   0.750745 0.326943 0.971651 0.284202
C130  C     C_R   0.733048 0.676662 0.000722 0.292142
C131  C     C_R   0.702596 0.729367 0.675456 0.893693
C132  C     C_R   0.257785 0.321352 0.015065 0.329728
C133  C     C_R   0.648315 0.333001 0.941932 -0.175274
C134  C     C_R   0.360746 0.679736 0.050276 -0.142021
C135  C     C_R   0.354707 0.328847 0.055486 -0.199970
C136  C     C_R   0.640662 0.676137 0.948674 -0.155745
C137  C     C_R   0.148310 0.832991 0.941937 -0.175292
C138  C     C_R   0.860754 0.179745 0.050270 -0.141910
C139  C     C_R   0.854708 0.828849 0.055485 -0.199974
C140  C     C_R   0.140667 0.176129 0.948670 -0.155779
C141  C     C_R   0.618831 0.350135 0.896866 -0.092840
C142  C     C_R   0.201897 0.768753 0.675818 0.913930
C143  C     C_R   0.385586 0.655561 0.099951 -0.102528
C144  C     C_R   0.382779 0.347992 0.102090 -0.099313
C145  C     C_R   0.614616 0.654795 0.899918 -0.099862
C146  C     C_R   0.118828 0.850131 0.896868 -0.092828
C147  C     C_R   0.885590 0.155565 0.099949 -0.102562
C148  C     C_R   0.882780 0.847992 0.102089 -0.099317
C149  C     C_R   0.114618 0.154792 0.899916 -0.099856
C150  C     C_R   0.634039 0.322997 0.813185 -0.269360
C151  C     C_R   0.367211 0.677968 0.186633 -0.263284
C152  C     C_R   0.366989 0.321552 0.186488 -0.267496
C153  C     C_R   0.797907 0.230622 0.324110 0.871560
C154  C     C_R   0.632689 0.678106 0.813589 -0.265912
C155  C     C_R   0.134037 0.822995 0.813185 -0.269349
C156  C     C_R   0.867212 0.177968 0.186634 -0.263247
C157  C     C_R   0.866989 0.821553 0.186488 -0.267502
C158  C     C_R   0.132691 0.178104 0.813588 -0.265898
C159  C     C_R   0.680594 0.282642 0.770240 -0.089389
C160  C     C_R   0.320503 0.718342 0.228705 -0.077150
C161  C     C_R   0.320644 0.280829 0.229156 -0.086913
C162  C     C_R   0.680779 0.715135 0.770218 -0.083189
C163  C     C_R   0.180591 0.782637 0.770242 -0.089387
C164  C     C_R   0.798349 0.768360 0.324187 0.894971
C165  C     C_R   0.820504 0.218341 0.228704 -0.077096
C166  C     C_R   0.820642 0.780834 0.229158 -0.086916
C167  C     C_R   0.180781 0.215134 0.770217 -0.083178
C168  C     C_R   0.710271 0.263115 0.814484 -0.153586
C169  C     C_R   0.292906 0.740335 0.181575 -0.186580
C170  C     C_R   0.292080 0.259733 0.183821 -0.150914
C171  C     C_R   0.710273 0.732355 0.815397 -0.161057
C172  C     C_R   0.210265 0.763103 0.814489 -0.153572
C173  C     C_R   0.792909 0.240334 0.181572 -0.186921
C174  C     C_R   0.792075 0.759745 0.183826 -0.150887
C175  C     C_R   0.202596 0.229367 0.675456 0.893694
C176  C     C_R   0.210276 0.232351 0.815394 -0.161045
C177  C     C_R   0.694324 0.288655 0.900907 0.212517
C178  C     C_R   0.313294 0.720974 0.091229 0.262800
C179  C     C_R   0.309000 0.283869 0.096139 0.202741
C180  C     C_R   0.689760 0.713939 0.906303 0.246225
C181  C     C_R   0.194316 0.788641 0.900915 0.212574
C182  C     C_R   0.813300 0.220979 0.091222 0.262803
C183  C     C_R   0.808997 0.783878 0.096142 0.202703
C184  C     C_R   0.189765 0.213931 0.906298 0.246262
C185  C     C_R   0.696743 0.127816 0.517246 0.901029
C186  C     C_R   0.036611 0.374901 0.527054 0.502494
C187  C     C_R   0.308814 0.870703 0.464842 0.893964
C188  C     C_R   0.308859 0.129418 0.464855 0.890482
C189  C     C_R   0.691433 0.870761 0.533305 0.894976
C190  C     C_R   0.196742 0.627816 0.517249 0.901014
C191  C     C_R   0.808814 0.370703 0.464842 0.893979
C192  C     C_R   0.808859 0.629418 0.464852 0.890481
C193  C     C_R   0.191433 0.370761 0.533306 0.894966
C194  C     C_R   0.072612 0.101165 0.935200 0.915095
C195  C     C_R   0.925596 0.900799 0.066395 0.922794
C196  C     C_R   0.927008 0.100849 0.065014 0.915561
H1    H     H_    0.714574 0.000678 0.563140 0.190622
H2    H     H_    0.415470 0.181704 0.405954 0.206691
H3    H     H_    0.327240 0.994392 0.759880 0.183539
H4    H     H_    0.253966 0.995444 0.829014 0.275077
H5    H     H_    0.813741 0.100977 0.881702 0.124768
H6    H     H_    0.765052 0.032193 0.948080 0.209243
H7    H     H_    0.852803 0.977576 0.893606 0.192885
H8    H     H_    0.880691 0.056321 0.915357 0.230972
H9    H     H_    0.832718 0.001256 0.008306 0.291541
H10   H     H_    0.739108 0.959144 0.140502 0.177918
H11   H     H_    0.715698 0.868446 0.170217 0.119955
H12   H     H_    0.650389 0.886559 0.112728 0.251414
H13   H     H_    0.417659 0.820293 0.394659 0.195930
H14   H     H_    0.642109 0.957014 0.191235 0.190771
H15   H     H_    0.678042 0.975766 0.072072 0.278119
H16   H     H_    0.148404 0.128193 0.125781 0.111477
H17   H     H_    0.199625 0.070847 0.128355 0.178462
H18   H     H_    0.173851 0.969457 0.069553 0.263454
H19   H     H_    0.111535 0.009279 0.153905 0.188160
H20   H     H_    0.134681 0.025039 0.036004 0.295434
H21   H     H_    0.632079 0.179184 0.034537 0.145581
H22   H     H_    0.660594 0.106093 0.070278 0.152945
H23   H     H_    0.652885 0.023497 0.962837 0.264028
H24   H     H_    0.658762 0.159926 0.400232 0.189892
H25   H     H_    0.588010 0.063472 0.039140 0.211616
H26   H     H_    0.626177 0.096724 0.924967 0.262273
H27   H     H_    0.221725 0.882867 0.156818 0.109495
H28   H     H_    0.253170 0.956213 0.076589 0.198408
H29   H     H_    0.252566 0.983062 0.217523 0.214342
H30   H     H_    0.288515 0.899933 0.209789 0.253278
H31   H     H_    0.321605 0.971032 0.127841 0.265329
H32   H     H_    0.343542 0.130183 0.930645 0.108837
H33   H     H_    0.323155 0.048453 0.995800 0.175556
H34   H     H_    0.370750 0.089656 0.079895 0.262082
H35   H     H_    0.636150 0.354782 0.007951 0.160924
H36   H     H_    0.415795 0.082407 0.960153 0.210993
H37   H     H_    0.392525 0.170213 0.010611 0.256783
H38   H     H_    0.796431 0.844526 0.806222 0.098283
H39   H     H_    0.787026 0.924740 0.871093 0.171104
H40   H     H_    0.723591 0.974810 0.823856 0.262459
H41   H     H_    0.787651 0.950724 0.727732 0.203494
H42   H     H_    0.729073 0.892898 0.762401 0.263624
H43   H     H_    0.132052 0.679163 0.034565 0.145609
H44   H     H_    0.160576 0.606101 0.070333 0.152772
H45   H     H_    0.152868 0.523452 0.962953 0.264041
H46   H     H_    0.377027 0.664510 0.980723 0.147533
H47   H     H_    0.087993 0.563439 0.039211 0.211588
H48   H     H_    0.126170 0.596645 0.925020 0.262301
H49   H     H_    0.721696 0.382811 0.156882 0.109573
H50   H     H_    0.753107 0.456193 0.076702 0.198391
H51   H     H_    0.752486 0.482979 0.217677 0.214302
H52   H     H_    0.788510 0.399902 0.209816 0.253346
H53   H     H_    0.821521 0.471072 0.127959 0.265322
H54   H     H_    0.843522 0.630179 0.930700 0.108840
H55   H     H_    0.823116 0.548455 0.995863 0.175589
H56   H     H_    0.870704 0.589644 0.079973 0.262075
H57   H     H_    0.367566 0.349941 0.988687 0.167586
H58   H     H_    0.915756 0.582383 0.960236 0.211004
H59   H     H_    0.892496 0.670195 0.010683 0.256788
H60   H     H_    0.296408 0.344560 0.806263 0.098281
H61   H     H_    0.286976 0.424767 0.871154 0.171068
H62   H     H_    0.223478 0.474746 0.823952 0.262535
H63   H     H_    0.287588 0.450820 0.727850 0.203501
H64   H     H_    0.229092 0.392872 0.762370 0.263570
H65   H     H_    0.623603 0.661198 0.018563 0.156584
H66   H     H_    0.136145 0.854772 0.007956 0.160873
H67   H     H_    0.877040 0.164525 0.980714 0.147546
H68   H     H_    0.867570 0.849940 0.988684 0.167621
H69   H     H_    0.278097 0.000285 0.453537 0.195554
H70   H     H_    0.123609 0.161189 0.018558 0.156567
H71   H     H_    0.611519 0.337388 0.778847 0.180688
H72   H     H_    0.387299 0.659642 0.223550 0.183047
H73   H     H_    0.388609 0.337252 0.221714 0.182489
H74   H     H_    0.611252 0.662781 0.777930 0.181441
H75   H     H_    0.111521 0.837392 0.778844 0.180689
H76   H     H_    0.887298 0.159639 0.223552 0.183040
H77   H     H_    0.888611 0.837249 0.221713 0.182480
H78   H     H_    0.111252 0.162782 0.777930 0.181442
H79   H     H_    0.747127 0.231151 0.780574 0.165216
H80   H     H_    0.214577 0.500676 0.563138 0.190614
H81   H     H_    0.254909 0.769891 0.215476 0.150797
H82   H     H_    0.255189 0.227861 0.217905 0.170050
H83   H     H_    0.749764 0.757546 0.779150 0.149344
H84   H     H_    0.247120 0.731136 0.780582 0.165198
H85   H     H_    0.754910 0.269887 0.215473 0.150795
H86   H     H_    0.755181 0.727880 0.217912 0.170075
H87   H     H_    0.249767 0.257546 0.779149 0.149317
H88   H     H_    0.935256 0.386835 0.634191 0.128219
H89   H     H_    0.967538 0.344148 0.692366 0.128383
H90   H     H_    0.931809 0.224451 0.677400 0.253437
H91   H     H_    0.778096 0.500285 0.453534 0.195554
H92   H     H_    0.878006 0.289268 0.736973 0.177117
H93   H     H_    0.899110 0.268312 0.621122 0.266471
H94   H     H_    0.975356 0.660658 0.573924 0.127920
H95   H     H_    0.919064 0.708166 0.572830 0.131431
H96   H     H_    0.972791 0.822323 0.532317 0.249233
H97   H     H_    0.964684 0.783797 0.635782 0.189378
H98   H     H_    0.028796 0.774561 0.533030 0.269199
H99   H     H_    0.078728 0.359658 0.315120 0.136605
H100  H     H_    0.040234 0.325512 0.263375 0.127593
H101  H     H_    0.061636 0.199528 0.287844 0.250105
H102  H     H_    0.080162 0.330882 0.588742 0.187943
H103  H     H_    0.122746 0.252250 0.223295 0.187143
H104  H     H_    0.099222 0.233767 0.340759 0.266296
H105  H     H_    0.116798 0.619864 0.231869 0.126119
H106  H     H_    0.167900 0.659280 0.254451 0.134983
H107  H     H_    0.135123 0.783107 0.243595 0.253259
H108  H     H_    0.160298 0.732477 0.141381 0.179696
H109  H     H_    0.087908 0.742537 0.213290 0.259253
H110  H     H_    0.435360 0.886901 0.634481 0.128027
H111  H     H_    0.467668 0.843834 0.692409 0.128456
H112  H     H_    0.431761 0.724339 0.677042 0.253533
H113  H     H_    0.915470 0.681704 0.405930 0.206679
H114  H     H_    0.378066 0.789208 0.737064 0.177085
H115  H     H_    0.398977 0.768660 0.621172 0.266321
H116  H     H_    0.475349 0.160637 0.573913 0.127878
H117  H     H_    0.419097 0.208232 0.572789 0.131474
H118  H     H_    0.472920 0.322315 0.532231 0.249261
H119  H     H_    0.464767 0.283784 0.635722 0.189411
H120  H     H_    0.528879 0.274461 0.532988 0.269129
H121  H     H_    0.578697 0.859685 0.315037 0.136616
H122  H     H_    0.540195 0.825443 0.263365 0.127655
H123  H     H_    0.561670 0.699519 0.287879 0.250147
H124  H     H_    0.917660 0.320295 0.394666 0.195937
H125  H     H_    0.622749 0.752270 0.223264 0.187148
H126  H     H_    0.599262 0.733856 0.340721 0.266321
H127  H     H_    0.617637 0.119613 0.231664 0.125891
H128  H     H_    0.668147 0.160276 0.254794 0.134904
H129  H     H_    0.634208 0.283360 0.243726 0.253794
H130  H     H_    0.660442 0.232650 0.141369 0.179676
H131  H     H_    0.587844 0.241415 0.212467 0.258657
H132  H     H_    0.793806 0.371283 0.809363 0.134949
H133  H     H_    0.833364 0.401503 0.861137 0.147481
H134  H     H_    0.796644 0.524928 0.874783 0.267282
H135  H     H_    0.158773 0.659916 0.400206 0.190123
H136  H     H_    0.827185 0.494455 0.759942 0.183511
H137  H     H_    0.753917 0.495511 0.829134 0.275118
H138  H     H_    0.313704 0.600928 0.881789 0.124746
H139  H     H_    0.265003 0.532167 0.948193 0.209270
H140  H     H_    0.352727 0.477511 0.893801 0.192956
H141  H     H_    0.380646 0.556270 0.915446 0.230946
H142  H     H_    0.332664 0.501277 0.008461 0.291523
H143  H     H_    0.239069 0.459046 0.140648 0.177853
H144  H     H_    0.215642 0.368345 0.170266 0.119904
H145  H     H_    0.150368 0.386590 0.112711 0.251525
H146  H     H_    0.580164 0.830879 0.588741 0.187889
H147  H     H_    0.142059 0.456924 0.191373 0.190726
H148  H     H_    0.178014 0.475831 0.072251 0.278054
H149  H     H_    0.648381 0.628224 0.125838 0.111502
H150  H     H_    0.699608 0.570880 0.128406 0.178526
H151  H     H_    0.673837 0.469497 0.069546 0.263600
H152  H     H_    0.611550 0.509259 0.154011 0.188174
H153  H     H_    0.634596 0.525079 0.036176 0.295454
H154  H     H_    0.293853 0.871225 0.809336 0.134960
H155  H     H_    0.333383 0.901481 0.861145 0.147513
H156  H     H_    0.296660 0.024898 0.874715 0.267311
O1    O     O_R   0.746490 0.236330 0.638080 -0.634944
O2    O     O_R   0.325830 0.813840 0.483730 -0.634955
O3    O     O_R   0.325830 0.186160 0.483730 -0.644343
O4    O     O_R   0.674170 0.813840 0.516270 -0.631175
O5    O     O_R   0.174170 0.686160 0.516270 -0.635037
O6    O     O_R   0.825830 0.313840 0.483730 -0.634941
O7    O     O_R   0.825830 0.686160 0.483730 -0.644333
O8    O     O_R   0.174170 0.313840 0.516270 -0.631181
O9    O     O_R   0.739960 0.127620 0.525000 -0.629120
O10   O     O_R   0.260040 0.872380 0.475000 -0.626842
O11   O     O_R   0.260040 0.127620 0.475000 -0.625845
O12   O     O_R   0.253510 0.763670 0.361920 -0.650627
O13   O     O_R   0.739960 0.872380 0.525000 -0.622127
O14   O     O_R   0.239960 0.627620 0.525000 -0.629125
O15   O     O_R   0.760040 0.372380 0.475000 -0.626834
O16   O     O_R   0.760040 0.627620 0.475000 -0.625845
O17   O     O_R   0.239960 0.372380 0.525000 -0.622127
O18   O     O_R   0.680700 0.294870 0.629350 -0.622007
O19   O     O_R   0.319300 0.705130 0.370650 -0.633205
O20   O     O_R   0.319300 0.294870 0.370650 -0.628472
O21   O     O_R   0.680700 0.705130 0.629350 -0.628067
O22   O     O_R   0.180700 0.794870 0.629350 -0.622006
O23   O     O_R   0.253510 0.236330 0.361920 -0.637166
O24   O     O_R   0.819300 0.205130 0.370650 -0.633201
O25   O     O_R   0.819300 0.794870 0.370650 -0.628481
O26   O     O_R   0.180700 0.205130 0.629350 -0.628060
O27   O     O_R   0.062020 0.072840 0.007170 -0.640220
O28   O     O_R   0.937980 0.927160 0.992830 -0.629039
O29   O     O_R   0.937980 0.072840 0.992830 -0.637377
O30   O     O_R   0.062020 0.927160 0.007170 -0.630560
O31   O     O_R   0.562020 0.572840 0.007170 -0.640237
O32   O     O_R   0.437980 0.427160 0.992830 -0.629043
O33   O     O_R   0.437980 0.572840 0.992830 -0.637387
O34   O     O_R   0.746490 0.763670 0.638080 -0.643035
O35   O     O_R   0.562020 0.427160 0.007170 -0.630539
O36   O     O_R   0.947860 0.073950 0.109290 -0.621292
O37   O     O_R   0.052140 0.926050 0.890710 -0.620311
O38   O     O_R   0.052140 0.073950 0.890710 -0.620845
O39   O     O_R   0.947860 0.926050 0.109290 -0.618644
O40   O     O_R   0.447860 0.573950 0.109290 -0.621291
O41   O     O_R   0.552140 0.426050 0.890710 -0.620317
O42   O     O_R   0.552140 0.573950 0.890710 -0.620847
O43   O     O_R   0.447860 0.426050 0.109290 -0.618634
O44   O     O_3   0.000531 0.317495 0.557126 -0.560779
O45   O     O_R   0.246490 0.736330 0.638080 -0.634952
O46   O     O_3   0.988772 0.696762 0.448131 -0.554651
O47   O     O_3   0.005991 0.306076 0.401140 -0.561122
O48   O     O_3   0.086240 0.674639 0.352709 -0.555034
O49   O     O_3   0.500534 0.817492 0.557105 -0.560778
O50   O     O_3   0.488798 0.196748 0.448101 -0.554611
O51   O     O_3   0.505993 0.806071 0.401128 -0.561099
O52   O     O_3   0.586252 0.174557 0.352567 -0.555086
O53   O     O_3   0.749269 0.397480 0.945605 -0.605053
O54   O     O_3   0.273600 0.610956 0.024642 -0.616838
O55   O     O_3   0.263157 0.393372 0.031119 -0.625570
O56   O     O_R   0.753510 0.263670 0.361920 -0.650664
O57   O     O_3   0.716928 0.605854 0.000450 -0.593190
O58   O     O_3   0.249284 0.897459 0.945563 -0.605048
O59   O     O_3   0.773645 0.110961 0.024560 -0.616838
O60   O     O_3   0.763199 0.893386 0.031047 -0.625617
O61   O     O_3   0.216961 0.105837 0.000398 -0.593213
O62   O     O_3   0.710097 0.144047 0.940296 -0.612203
O63   O     O_3   0.300802 0.864677 0.047690 -0.593898
O64   O     O_3   0.286077 0.138817 0.071140 -0.616238
O65   O     O_3   0.719274 0.857994 0.920933 -0.578181
O66   O     O_3   0.210072 0.644033 0.940338 -0.612158
O67   O     O_R   0.753510 0.736330 0.361920 -0.637164
O68   O     O_3   0.800778 0.364690 0.047739 -0.593828
O69   O     O_3   0.786048 0.638832 0.071187 -0.616252
O70   O     O_3   0.219247 0.357987 0.920979 -0.578181
O71   O     O_R   0.246490 0.263670 0.638080 -0.643051
O72   O     O_R   0.674170 0.186160 0.516270 -0.635060
Zn1   Zn    Zn3+2 0.792340 0.208750 0.507670 0.955450
Zn2   Zn    Zn3+2 0.494040 0.500000 0.919480 0.922269
Zn3   Zn    Zn3+2 0.005960 0.000000 0.080520 0.928152
Zn4   Zn    Zn3+2 0.994040 0.000000 0.919480 0.922286
Zn5   Zn    Zn3+2 0.207660 0.791250 0.492330 0.949409
Zn6   Zn    Zn3+2 0.207660 0.208750 0.492330 0.958223
Zn7   Zn    Zn3+2 0.792340 0.791250 0.507670 0.943247
Zn8   Zn    Zn3+2 0.292340 0.708750 0.507670 0.955457
Zn9   Zn    Zn3+2 0.707660 0.291250 0.492330 0.949319
Zn10  Zn    Zn3+2 0.707660 0.708750 0.492330 0.958212
Zn11  Zn    Zn3+2 0.292340 0.291250 0.507670 0.943248
Zn12  Zn    Zn3+2 0.505960 0.500000 0.080520 0.928192

loop_
_geom_bond_atom_site_label_1
_geom_bond_atom_site_label_2
_ccdc_geom_bond_type
C72   H128  S    
C28   C47   A    
C129  O53   S    
C36   C42   A    
C77   H141  S    
C75   H136  S    
C110  C118  A    
C13   C18   A    
C176  H87   S    
C29   C51   A    
C112  C124  A    
C16   C35   A    
C191  O15   A    
C59   H95   S    
C1    O18   A    
O1    Zn1   S    
C100  H43   S    
C77   H140  S    
C106  H56   S    
C37   C42   A    
C69   H119  S    
C91   H19   S    
C65   H111  S    
C168  H79   S    
C134  C143  A    
C66   H112  S    
C54   H13   S    
C113  C122  A    
C10   C20   A    
C38   C190  S    
C111  C125  A    
C192  O7    A    
C195  O39   A    
C104  H53   S    
C90   C116  A    
C117  C126  A    
C137  H66   S    
C24   C51   A    
C143  C151  A    
C2    C19   A    
C59   C60   S    
C8    C16   A    
C88   H14   S    
C69   H120  S    
C24   O48   S    
C48   H102  S    
C158  C167  A    
C89   H16   S    
C192  O16   A    
C150  C159  A    
C125  O58   S    
C103  H50   S    
C137  C146  A    
C1    C159  S    
C22   C31   A    
C124  O59   S    
C142  C163  S    
C132  O55   S    
C87   O60   S    
C70   O51   S    
C29   C45   A    
C185  O72   A    
C118  O65   S    
O19   Zn8   S    
C50   H124  S    
O18   Zn9   S    
O7    Zn7   S    
C163  C172  A    
C85   H6    S    
C191  O6    A    
C51   H135  S    
C173  C182  A    
C187  O10   A    
C102  H48   S    
C82   H152  S    
O21   Zn10  S    
C84   H156  S    
C176  C184  A    
C14   C57   A    
C136  H65   S    
C123  O70   S    
C25   C55   A    
C72   C73   S    
C190  O14   A    
C112  C182  S    
C74   O53   S    
C131  O34   A    
O40   Zn12  S    
C7    O35   A    
C81   H149  S    
C9    C15   A    
C82   H153  S    
C157  H77   S    
C46   C53   A    
O16   Zn10  S    
C92   H21   S    
C138  C182  A    
C95   H31   S    
C189  O4    A    
C20   C186  A    
C101  C132  A    
C151  H72   S    
C98   C99   S    
C1    O1    A    
C67   C69   S    
C154  H74   S    
C83   H154  S    
C193  O17   A    
C3    O37   A    
C73   H129  S    
C11   C18   A    
O32   Zn2   S    
C80   H145  S    
C120  O23   A    
C79   C115  A    
C123  C132  A    
O42   Zn2   S    
C105  C106  S    
C25   C43   A    
C67   O50   S    
C164  O25   A    
C58   H92   S    
C85   C86   S    
C48   C186  A    
C12   C68   A    
C103  H49   S    
O9    Zn1   S    
C101  C179  S    
C96   H32   S    
C105  H54   S    
C114  C126  A    
C78   C80   S    
C30   C189  S    
C173  H85   S    
C98   O65   S    
C111  C119  A    
O29   Zn4   S    
O43   Zn12  S    
C26   C45   A    
C71   H123  S    
C99   H42   S    
C172  C181  A    
C60   H97   S    
C98   H38   S    
C29   C38   A    
C107  C108  S    
C79   C177  S    
O36   Zn3   S    
C89   C91   S    
C149  C158  A    
C152  C161  A    
C193  O8    A    
O6    Zn1   S    
C64   H107  S    
C94   H28   S    
C62   H103  S    
C170  H82   S    
C86   H9    S    
C105  O69   S    
C141  C150  A    
C130  O57   S    
C13   O47   S    
C84   H3    S    
C139  C148  A    
C71   H125  S    
C109  O19   A    
C4    O42   A    
C78   H144  S    
C70   H122  S    
C38   C41   A    
O8    Zn6   S    
C131  O21   A    
C131  C162  S    
C155  C163  A    
C95   H29   S    
C94   O63   S    
O45   Zn8   S    
C148  C195  S    
C83   C84   S    
O28   Zn4   S    
C76   H139  S    
C152  H73   S    
C8    C12   A    
C61   H100  S    
O12   Zn5   S    
C10   C45   A    
C147  C196  S    
C96   H33   S    
C93   H26   S    
C145  C154  A    
C73   H131  S    
O17   Zn11  S    
C80   H147  S    
C116  C125  A    
C140  H70   S    
C118  C127  A    
C114  C123  A    
C7    C141  S    
C167  C175  S    
C85   O59   S    
C27   C47   A    
C6    O40   A    
C32   C187  S    
C153  C165  S    
C36   C192  S    
C154  C162  A    
C59   O46   S    
C85   H5    S    
C40   H69   S    
C170  C179  A    
C107  H61   S    
C107  O70   S    
C112  C121  A    
C144  C152  A    
C119  C128  A    
C99   H40   S    
C113  C183  S    
C28   C37   A    
C153  O56   A    
C114  C184  S    
C4    C145  S    
O10   Zn5   S    
C56   C58   S    
C30   C39   A    
C100  H44   S    
C148  C157  A    
C61   C62   S    
C65   H110  S    
C13   C50   A    
C63   H106  S    
C62   H101  S    
C108  H63   S    
C15   C46   A    
C72   O52   S    
C121  O68   S    
C140  C149  A    
C97   H34   S    
C27   C49   A    
C25   C33   A    
C54   C57   A    
C87   C88   S    
C90   C178  S    
C106  H58   S    
C11   C47   A    
C8    C43   A    
C83   H155  S    
C55   C68   A    
C66   H114  S    
C142  O45   A    
C171  H83   S    
C11   C19   A    
C140  C184  A    
O31   Zn12  S    
C128  O54   S    
C96   O64   S    
C88   H12   S    
C58   H90   S    
C97   H36   S    
C67   H116  S    
C65   O49   S    
C168  C177  A    
C79   C129  A    
C109  O12   A    
C111  C181  S    
C31   C40   A    
C187  O2    A    
C194  O27   A    
C134  H46   S    
C108  H62   S    
C196  O29   A    
C146  C155  A    
O22   Zn5   S    
C71   H126  S    
C127  O60   S    
C160  C169  A    
C70   C71   S    
C175  O71   A    
C42   H91   S    
C26   C48   A    
C188  O3    A    
C189  O13   A    
C72   H127  S    
C52   H146  S    
C39   H1    S    
O38   Zn4   S    
C34   C41   A    
C77   H142  S    
C69   H118  S    
C74   H132  S    
C174  H86   S    
C166  C174  A    
O33   Zn2   S    
C186  O44   S    
C5    C144  S    
O26   Zn6   S    
C23   C44   A    
C9    C14   A    
C87   H10   S    
C91   H20   S    
C74   H133  S    
C12   C15   A    
C66   H115  S    
O67   Zn10  S    
C83   O58   S    
C134  C178  A    
C81   O57   S    
C92   H22   S    
C147  C156  A    
O41   Zn2   S    
C34   C193  S    
C60   H96   S    
C75   H134  S    
C76   H138  S    
C56   O44   S    
C7    O41   A    
C81   H150  S    
C89   H17   S    
C115  C124  A    
C121  C129  A    
C174  C183  A    
C92   O62   S    
C155  H75   S    
C63   O48   S    
O13   Zn7   S    
C156  H76   S    
O11   Zn6   S    
O14   Zn8   S    
C27   C36   A    
C21   C30   A    
C133  C141  A    
C68   O52   S    
C93   H23   S    
C56   H88   S    
C101  C117  A    
C23   C32   A    
C57   O51   S    
C133  C177  A    
C156  C165  A    
C92   C93   S    
C78   O55   S    
C110  C130  A    
C94   C95   S    
C99   H41   S    
C153  O24   A    
C137  C181  A    
C116  O63   S    
C35   C52   A    
O15   Zn9   S    
C33   C185  S    
C102  H47   S    
C82   H151  S    
C164  O67   A    
O71   Zn11  S    
C64   H108  S    
C62   H104  S    
O5    Zn5   S    
C76   O54   S    
O4    Zn10  S    
C81   C82   S    
C59   H94   S    
O25   Zn7   S    
C84   H4    S    
C75   H137  S    
C33   C39   A    
C53   H2    S    
O37   Zn4   S    
C91   H18   S    
C6    O33   A    
O23   Zn6   S    
C2    O46   S    
O24   Zn1   S    
C10   C17   A    
C165  C173  A    
O72   Zn9   S    
C159  C168  A    
C126  O61   S    
O56   Zn9   S    
C103  C104  S    
C4    O31   A    
C21   C43   A    
C28   C50   A    
C26   C34   A    
C60   H98   S    
C98   H39   S    
C67   H117  S    
C61   H99   S    
C88   H15   S    
C35   O49   S    
C31   C188  S    
C185  O9    A    
C89   O61   S    
C56   H89   S    
O30   Zn3   S    
O39   Zn3   S    
C136  C145  A    
C78   H143  S    
C195  O28   A    
C104  H51   S    
C80   H148  S    
C139  H68   S    
C58   H93   S    
C46   O50   S    
C49   H113  S    
C5    O32   A    
C158  H78   S    
C22   C53   A    
C22   C44   A    
C17   C24   A    
C74   C75   S    
C76   C77   S    
C105  H55   S    
C100  O66   S    
C63   C64   S    
C142  O22   A    
C133  H35   S    
O3    Zn11  S    
C64   H109  S    
C2    C49   A    
C149  C194  S    
O2    Zn8   S    
C110  C180  S    
C138  C147  A    
C190  O5    A    
C97   H37   S    
C96   C97   S    
C100  C102  S    
C3    O30   A    
C102  H45   S    
C135  H57   S    
C9    C44   A    
C87   H11   S    
C103  O68   S    
C172  H84   S    
C41   H80   S    
C120  C161  S    
C161  C170  A    
C135  C144  A    
C37   C191  S    
C63   H105  S    
C94   H27   S    
C14   C16   A    
C171  C180  A    
C108  H64   S    
C169  H81   S    
C86   H8    S    
C169  C178  A    
C139  C183  A    
C23   C54   A    
C175  O26   A    
C106  H59   S    
C61   O47   S    
C70   H121  S    
C157  C166  A    
O35   Zn12  S    
C55   H24   S    
C113  C127  A    
O34   Zn7   S    
C104  H52   S    
C136  C180  A    
C151  C160  A    
C164  C166  S    
C95   H30   S    
C135  C179  A    
C122  O69   S    
C73   H130  S    
C117  O64   S    
C188  O11   A    
C86   H7    S    
C119  O66   S    
C17   C19   A    
C107  H60   S    
C5    O43   A    
C18   C20   A    
C32   C40   A    
C115  O62   S    
C162  C171  A    
C138  H67   S    
C3    C146  S    
C65   C66   S    
C120  O20   A    
O20   Zn11  S    
C196  O36   A    
C90   C128  A    
C93   H25   S    
C6    C143  S    
C194  O38   A    
C109  C160  S    
C150  H71   S    
C122  C130  A    
C21   C52   A    
O27   Zn3   S    
C167  C176  A    
