data_mof_unit_28115.cif
_audit_creation_date              2012-12-10T16:51:18-0500
_audit_creation_method            fapswitch 2.2
_symmetry_space_group_name_H-M    P1
_symmetry_Int_Tables_number       1
_space_group_crystal_system       triclinic
_cell_length_a                    27.813104
_cell_length_b                    8.673308
_cell_length_c                    7.429853
_cell_angle_alpha                 103.004096
_cell_angle_beta                  93.943093
_cell_angle_gamma                 92.434604
_cell_volume                      1739.11674088

loop_
_atom_site_label
_atom_site_type_symbol
_atom_type_description
_atom_site_fract_x
_atom_site_fract_y
_atom_site_fract_z
_atom_type_partial_charge
C1    C     C_R   0.498541 0.199629 0.453171 0.876305
C2    C     C_R   0.501459 0.800371 0.546829 0.876317
C3    C     C_R   0.102077 0.498262 0.511521 -0.041549
C4    C     C_R   0.897922 0.501680 0.488455 -0.041546
C5    C     C_R   0.124937 0.353886 0.475468 -0.036174
C6    C     C_R   0.875063 0.646056 0.524531 -0.036175
C7    C     C_R   0.097056 0.211104 0.435562 -0.144212
C8    C     C_R   0.902944 0.788838 0.564452 -0.144217
C9    C     C_R   0.130598 0.641794 0.552516 -0.031389
C10   C     C_R   0.869401 0.358149 0.447446 -0.031393
C11   C     C_R   0.354521 0.498766 0.508690 -0.203637
C12   C     C_R   0.645478 0.501218 0.491309 -0.203635
C13   C     C_R   0.971502 0.353722 0.457169 0.043350
C14   C     C_R   0.028497 0.646221 0.542789 0.043353
C15   C     C_R   0.977284 0.647083 0.536163 0.045166
C16   C     C_R   0.022715 0.352860 0.463812 0.045168
C17   C     C_R   0.949135 0.500827 0.493856 0.074192
C18   C     C_R   0.050864 0.499116 0.506113 0.074189
C19   C     C_R   0.941531 0.211962 0.414488 -0.211317
C20   C     C_R   0.058468 0.787981 0.585445 -0.211313
C21   C     C_R   0.891632 0.214546 0.410193 -0.134900
C22   C     C_R   0.108367 0.785397 0.589742 -0.134898
C23   C     C_R   0.407464 0.499791 0.502959 0.861492
C24   C     C_R   0.592536 0.500207 0.497041 0.861490
C25   C     C_R   0.047076 0.210183 0.429811 -0.208213
C26   C     C_R   0.952923 0.789759 0.570191 -0.208220
C27   C     C_2   0.497840 0.031703 0.426756 -0.340137
C28   C     C_2   0.502160 0.968297 0.573244 -0.340140
C29   C     C_R   0.175472 0.355729 0.479260 0.612544
C30   C     C_R   0.824528 0.644213 0.520752 0.612527
C31   C     C_R   0.181013 0.638341 0.554243 0.583163
C32   C     C_R   0.818986 0.361603 0.445729 0.583179
C33   C     C_R   0.282865 0.530037 0.679482 -0.266032
C34   C     C_R   0.717135 0.469952 0.320520 -0.266041
C35   C     C_R   0.332948 0.531117 0.678326 0.587433
C36   C     C_R   0.667052 0.468895 0.321675 0.587434
C37   C     C_R   0.324911 0.464933 0.341651 -0.368098
C38   C     C_R   0.675089 0.535003 0.658347 -0.368109
C39   C     C_R   0.274433 0.463109 0.342735 0.485534
C40   C     C_R   0.725566 0.536808 0.657263 0.485534
C41   C     C_R   0.253659 0.496010 0.512933 0.244723
C42   C     C_R   0.746341 0.503934 0.487067 0.244743
Cu1   Cu    Cu3+1 0.505380 0.517380 0.684380 1.017676
Cu2   Cu    Cu3+1 0.494620 0.482620 0.315620 1.017675
H1    H     H_    0.340926 0.439635 0.210098 0.217105
H2    H     H_    0.659074 0.560281 0.789899 0.217136
H3    H     H_    0.462186 0.378285 0.948501 0.239368
H4    H     H_    0.537814 0.621715 0.051499 0.239379
H5    H     H_    0.113779 0.098489 0.407594 0.186451
H6    H     H_    0.886221 0.901453 0.592441 0.186463
H7    H     H_    0.733465 0.444010 0.189715 0.188823
H8    H     H_    0.266535 0.556001 0.810288 0.188837
H9    H     H_    0.870472 0.102563 0.377316 0.194442
H10   H     H_    0.129527 0.897381 0.622602 0.194439
H11   H     H_    0.955169 0.095619 0.382960 0.138134
H12   H     H_    0.044830 0.904326 0.616945 0.138122
H13   H     H_    0.028834 0.094366 0.397809 0.134660
H14   H     H_    0.971165 0.905577 0.602214 0.134671
H15   H     H_    0.493770 0.959940 0.285650 0.185572
H16   H     H_    0.506230 0.040060 0.714350 0.185569
N1    N     N_R   0.202258 0.496661 0.516821 -0.438079
N2    N     N_R   0.797741 0.503282 0.483177 -0.438076
N3    N     N_2   0.486510 0.456430 0.038510 -0.191272
N4    N     N_2   0.513490 0.543570 0.961490 -0.191267
O1    O     O_R   0.503500 0.286120 0.619780 -0.588990
O2    O     O_R   0.496500 0.713880 0.380220 -0.588987
O3    O     O_R   0.494410 0.256780 0.308360 -0.584600
O4    O     O_R   0.505590 0.743220 0.691640 -0.584595
O5    O     O_R   0.434810 0.514700 0.655690 -0.534821
O6    O     O_R   0.565190 0.485300 0.344310 -0.534814
O7    O     O_R   0.425720 0.485350 0.344280 -0.578741
O8    O     O_R   0.574280 0.514650 0.655720 -0.578741
O9    O     O_2   0.197725 0.218011 0.445471 -0.498977
O10   O     O_2   0.802275 0.781932 0.554572 -0.498982
O11   O     O_2   0.791390 0.224654 0.408738 -0.500240
O12   O     O_2   0.208609 0.775291 0.591221 -0.500236
O13   O     O_3   0.244664 0.430910 0.180593 -0.696240
H17   H     H_    0.264822 0.408789 0.073745 0.333354
O14   O     O_3   0.755336 0.568968 0.819403 -0.696243
H18   H     H_    0.735177 0.591093 0.926251 0.333355
F1    F     F_    0.640038 0.434859 0.156862 -0.651921
F2    F     F_    0.359962 0.565212 0.843138 -0.651901

loop_
_geom_bond_atom_site_label_1
_geom_bond_atom_site_label_2
_ccdc_geom_bond_type
C21   H9    S    
Cu1   O8    S    
C8    C26   A    
C14   C18   A    
Cu2   O2    S    
C34   C42   A    
C41   N1    S    
C20   H12   S    
C32   O11   S    
C24   O6    A    
C39   C41   A    
O13   H17   S    
C33   H8    S    
C34   H7    S    
C3    C18   A    
C39   O13   S    
C19   C21   A    
C2    O4    A    
H3    N3    S    
C30   O10   S    
C9    C22   A    
H4    N4    S    
C29   O9    S    
Cu2   O7    S    
C11   C37   A    
C31   N1    A    
C1    O3    A    
Cu1   O4    S    
C1    O1    A    
Cu2   O6    S    
C12   C36   A    
C42   N2    S    
C40   C42   A    
Cu2   N3    S    
C22   H10   S    
C25   H13   S    
C35   F2    S    
Cu1   N4    S    
C5    C29   A    
C28   H16   S    
C10   C21   A    
C29   N1    A    
C13   C19   A    
C14   C20   A    
C7    H5    S    
C4    C6    A    
C5    C7    A    
C15   C26   A    
C6    C8    A    
C3    C5    A    
C23   O5    A    
N3    N4    D    
Cu1   Cu2   S    
C3    C9    A    
C23   O7    A    
C36   F1    S    
Cu1   O1    S    
C40   O14   S    
C26   H14   S    
C4    C17   A    
C6    C30   A    
C20   C22   A    
C30   N2    A    
C4    C10   A    
C8    H6    S    
C24   O8    A    
C19   H11   S    
C16   C25   A    
C15   C17   A    
C2    O2    A    
C12   C24   S    
C7    C25   A    
C13   C17   A    
C33   C41   A    
C11   C35   A    
C32   N2    A    
C37   C39   A    
C27   H15   S    
C38   C40   A    
C31   O12   S    
C11   C23   S    
C33   C35   A    
C34   C36   A    
C12   C38   A    
C38   H2    S    
C9    C31   A    
O14   H18   S    
C10   C32   A    
C16   C18   A    
C13   C16   A    
C27   C28   D    
C1    C27   S    
C14   C15   A    
Cu2   O3    S    
C2    C28   S    
Cu1   O5    S    
C37   H1    S    
