data_mof_unit_33712.cif
_audit_creation_date              2013-03-05T16:33:41-0500
_audit_creation_method            fapswitch 2.2
_symmetry_space_group_name_H-M    P1
_symmetry_Int_Tables_number       1
_space_group_crystal_system       triclinic
_cell_length_a                    9.064952
_cell_length_b                    10.855281
_cell_length_c                    9.596668
_cell_angle_alpha                 89.153637
_cell_angle_beta                  89.277837
_cell_angle_gamma                 91.309945
_cell_volume                      943.908183909

loop_
_atom_site_label
_atom_site_type_symbol
_atom_site_description
_atom_site_fract_x
_atom_site_fract_y
_atom_site_fract_z
_atom_type_partial_charge
O1    O     O_R   0.500000 0.319640 0.618810 -0.613198
O2    O     O_R   0.500020 0.319680 0.381230 -0.553281
C1    C     C_R   0.499077 0.262648 0.500364 0.885128
O3    O     O_R   0.288380 0.499980 0.618770 -0.573224
O4    O     O_R   0.288400 0.500020 0.381190 -0.595239
C2    C     C_R   0.220841 0.499675 0.500516 0.843486
Cu1   Cu    Cu3+1 0.499990 0.499980 0.640670 0.942372
Cu2   Cu    Cu3+1 0.500010 0.500020 0.359330 0.966302
O5    O     O_R   0.499980 0.680320 0.618770 -0.578769
O6    O     O_R   0.500000 0.680360 0.381190 -0.548230
O7    O     O_R   0.711600 0.499980 0.618810 -0.590157
O8    O     O_R   0.711620 0.500020 0.381230 -0.570740
C3    C     C_R   0.505134 0.736780 0.499005 0.854967
C4    C     C_R   0.779164 0.500308 0.499496 0.841389
C5    C     C_1   0.065597 0.500009 0.500749 -0.177059
C6    C     C_1   0.934412 0.500258 0.499321 -0.201056
C7    C     C_R   0.432244 0.057083 0.599543 -0.090106
C8    C     C_R   0.504447 0.129644 0.498273 -0.237892
C9    C     C_R   0.581283 0.068490 0.389853 0.380530
C10   C     C_R   0.588892 0.938019 0.392541 0.388906
C11   C     C_R   0.510769 0.869126 0.496946 -0.251845
C12   C     C_R   0.436469 0.933005 0.598194 -0.148551
C13   C     C_3   0.335777 0.915926 0.722026 0.358792
C14   C     C_3   0.327608 0.058805 0.722137 0.300992
H1    H     H_    0.395736 0.879376 0.813537 0.055083
H2    H     H_    0.378427 0.104302 0.813622 0.014250
C15   C     C_R   0.598440 0.572589 0.070924 0.290769
N1    N     N_R   0.500920 0.500930 0.147930 -0.206640
C16   C     C_R   0.395442 0.437460 0.079097 -0.096978
H3    H     H_    0.313313 0.384887 0.139197 0.150043
C17   C     C_R   0.393670 0.436622 0.931305 0.196924
N2    N     N_R   0.500930 0.500890 0.852020 -0.204571
C18   C     C_R   0.598416 0.572684 0.923833 0.223220
C19   C     C_3   0.762376 0.565742 0.916655 -0.508058
C20   C     C_3   0.762453 0.565682 0.074493 -0.486256
H4    H     H_    0.799980 0.477446 0.872976 0.220088
H5    H     H_    0.814618 0.650107 0.868844 0.208621
H6    H     H_    0.800863 0.477586 0.120410 0.219282
H7    H     H_    0.814529 0.650106 0.117783 0.208011
O9    O     O_3   0.659363 0.136109 0.288758 -0.555706
C21   C     C_3   0.581658 0.131086 0.162212 -0.238395
H8    H     H_    0.632264 0.199837 0.088271 0.167953
H9    H     H_    0.463501 0.154992 0.175931 0.133747
H10   H     H_    0.590053 0.039114 0.113914 0.181002
O10   O     O_3   0.671033 0.879470 0.291942 -0.563728
C22   C     C_3   0.813957 0.862171 0.343995 -0.299958
H11   H     H_    0.883900 0.824255 0.260079 0.173801
H12   H     H_    0.811301 0.794478 0.432251 0.129183
H13   H     H_    0.866988 0.950769 0.376219 0.174167
O11   O     O_3   0.198086 0.851545 0.705154 -0.566682
C23   C     C_3   0.148902 0.844088 0.566249 -0.237940
H14   H     H_    0.211342 0.774469 0.508175 0.145425
H15   H     H_    0.154170 0.934454 0.510423 0.193301
H16   H     H_    0.031916 0.812351 0.569032 0.148085
O12   O     O_3   0.189860 0.106011 0.682404 -0.570102
C24   C     C_3   0.085008 0.091093 0.792186 -0.260982
H17   H     H_    0.133792 0.083905 0.897918 0.127070
H18   H     H_    0.013843 0.008555 0.774287 0.207965
H19   H     H_    0.011635 0.171242 0.791066 0.167181
C25   C     C_3   0.269279 0.361737 0.870489 -0.338586
C26   C     C_3   0.124350 0.431048 0.879236 -0.804451
H20   H     H_    0.139155 0.527803 0.841534 0.283858
H21   H     H_    0.039918 0.384932 0.814300 0.234321
H22   H     H_    0.083131 0.432102 0.988696 0.231515
H23   H     H_    0.291878 0.331822 0.764089 0.274196
H24   H     H_    0.255670 0.274566 0.931630 0.146452

loop_
_geom_bond_atom_site_label_1
_geom_bond_atom_site_label_2
_geom_bond_distance
_ccdc_geom_bond_type
C17   C25   1.503859 S    
C26   H22   1.110793 S    
C20   H7    1.109830 S    
O12   C24   1.415016 S    
C16   H3    1.082887 S    
C19   C20   1.514720 S    
O4    Cu2   1.927041 S    
C19   H5    1.111656 S    
C21   H8    1.109696 S    
C23   H15   1.110516 S    
C17   N2    1.394879 A    
C10   O10   1.382770 S    
C24   H19   1.107177 S    
Cu2   O8    1.932346 S    
C23   H16   1.107390 S    
C15   C20   1.491169 S    
N2    C18   1.364920 A    
C26   H21   1.108353 S    
C18   C19   1.490693 S    
C25   H24   1.109660 S    
Cu1   Cu2   2.699917 S    
C16   C17   1.418760 A    
O1    Cu1   1.971930 S    
C11   C12   1.379610 A    
C15   C18   1.411563 A    
C14   O12   1.415162 S    
Cu1   O7    1.927042 S    
C21   H9    1.114485 S    
C22   H13   1.114939 S    
O4    C2    1.291704 A    
O3    Cu1   1.932345 S    
C5    C6    1.189498 T    
O3    C2    1.296242 A    
O9    C21   1.412707 S    
C21   H10   1.110697 S    
C14   H2    1.113341 S    
O8    C4    1.296368 A    
C25   H23   1.094352 S    
C7    C8    1.389641 A    
C19   H4    1.110754 S    
C13   H1    1.111606 S    
C26   H20   1.110483 S    
Cu2   N1    2.028527 S    
O7    C4    1.291624 A    
C4    C6    1.407310 S    
C7    C14   1.502499 S    
C9    O9    1.385239 S    
C13   C14   1.554461 S    
C3    C11   1.436234 S    
C23   H14   1.107325 S    
C22   H12   1.112739 S    
Cu1   O5    1.965805 S    
C20   H6    1.112012 S    
C10   C11   1.414369 A    
C1    C8    1.446151 S    
Cu2   O6    1.971930 S    
C8    C9    1.425367 A    
C15   N1    1.366680 A    
C24   H17   1.114349 S    
C7    C12   1.348569 A    
O5    C3    1.294343 A    
C22   H11   1.108505 S    
N1    C16   1.350751 A    
C13   O11   1.428673 S    
O2    C1    1.291922 A    
Cu1   N2    2.028551 S    
O11   C23   1.413795 S    
C2    C5    1.407340 S    
O10   C22   1.409982 S    
C12   C13   1.496051 S    
O2    Cu2   1.965803 S    
C9    C10   1.419431 A    
C24   H18   1.108763 S    
C25   C26   1.530820 S    
O1    C1    1.302176 A    
O6    C3    1.294634 A    
