data_mof_unit_34077.cif
_audit_creation_date              2012-10-26T19:51:33-0400
_audit_creation_method            fapswitch 2.2
_symmetry_space_group_name_H-M    P1
_symmetry_Int_Tables_number       1
_space_group_crystal_system       triclinic
_cell_length_a                    19.456327
_cell_length_b                    18.14111
_cell_length_c                    9.087015
_cell_angle_alpha                 89.997531
_cell_angle_beta                  90.151961
_cell_angle_gamma                 89.995174
_cell_volume                      3207.33577911

loop_
_atom_site_label
_atom_site_type_symbol
_atom_type_description
_atom_site_fract_x
_atom_site_fract_y
_atom_site_fract_z
_atom_type_partial_charge
C1    C     C_R   0.367527 0.500003 0.499594 0.545231
C2    C     C_R   0.451019 0.201181 0.416574 0.211865
C3    C     C_R   0.499995 0.838503 0.500004 0.043044
C4    C     C_R   0.500003 0.161497 0.499991 0.043058
C5    C     C_R   0.559944 0.961248 0.465761 -0.072762
C6    C     C_R   0.440053 0.038750 0.534226 -0.072762
C7    C     C_R   0.440051 0.961263 0.534227 -0.072783
C8    C     C_R   0.559946 0.038736 0.465758 -0.072766
C9    C     C_R   0.500001 0.078603 0.499991 0.100221
C10   C     C_R   0.499995 0.921396 0.499991 0.100230
C11   C     C_R   0.499966 0.500001 0.220380 0.561040
C12   C     C_R   0.632472 0.499997 0.500407 0.545220
C13   C     C_R   0.500034 0.499999 0.779620 0.561035
C14   C     C_1   0.499987 0.500001 0.065466 -0.054680
C15   C     C_1   0.500013 0.499999 0.934534 -0.054684
C16   C     C_R   0.744328 0.433127 0.500937 -0.131740
C17   C     C_R   0.255671 0.566873 0.499054 -0.131726
C18   C     C_R   0.255662 0.433170 0.497992 -0.131738
C19   C     C_R   0.744339 0.566829 0.502024 -0.131746
C20   C     C_R   0.815896 0.433143 0.500981 -0.122107
C21   C     C_R   0.184103 0.566855 0.499013 -0.122100
C22   C     C_R   0.184092 0.433212 0.497802 -0.121923
C23   C     C_R   0.453652 0.720813 0.415742 0.036402
C24   C     C_R   0.815909 0.566787 0.502216 -0.121926
C25   C     C_R   0.852224 0.499958 0.501452 0.032799
C26   C     C_R   0.147776 0.500040 0.498554 0.032797
C27   C     C_R   0.707959 0.499985 0.501126 0.015535
C28   C     C_R   0.292041 0.500014 0.498876 0.015540
C29   C     C_R   0.964514 0.548386 0.592382 -0.116610
C30   C     C_R   0.035486 0.451612 0.407627 -0.116609
C31   C     C_R   0.036083 0.548437 0.591582 -0.116188
C32   C     C_R   0.963918 0.451560 0.408426 -0.116189
C33   C     C_R   0.072109 0.500053 0.499196 0.030169
C34   C     C_R   0.546356 0.279187 0.584236 0.036316
C35   C     C_R   0.927891 0.499945 0.500812 0.030170
C36   C     C_3   0.337642 0.813532 0.348982 -0.136891
C37   C     C_3   0.662350 0.186618 0.651452 -0.136917
C38   C     C_3   0.662315 0.813352 0.651620 -0.137074
C39   C     C_3   0.337648 0.186585 0.348730 -0.137076
C40   C     C_R   0.546344 0.720804 0.584268 0.036361
C41   C     C_R   0.453646 0.279198 0.415756 0.036412
C42   C     C_R   0.451021 0.798828 0.416573 0.211824
C43   C     C_R   0.548987 0.201167 0.583408 0.211847
C44   C     C_R   0.548970 0.798823 0.583450 0.211881
Cu1   Cu    Cu3+1 0.500000 0.573360 0.500000 0.935713
Cu2   Cu    Cu3+1 0.500000 0.426640 0.500000 0.935706
H1    H     H_    0.717570 0.380764 0.500944 0.117414
H2    H     H_    0.062221 0.414544 0.333933 0.101985
H3    H     H_    0.063297 0.585528 0.664718 0.102917
H4    H     H_    0.936704 0.414469 0.335290 0.102914
H5    H     H_    0.418914 0.689554 0.346888 0.135466
H6    H     H_    0.581100 0.310450 0.653068 0.135390
H7    H     H_    0.581077 0.689530 0.653121 0.135327
H8    H     H_    0.418902 0.310468 0.346921 0.135363
H9    H     H_    0.606738 0.932325 0.437289 0.119397
H10   H     H_    0.393260 0.067672 0.562712 0.119356
H11   H     H_    0.393256 0.932354 0.562720 0.119244
H12   H     H_    0.282429 0.619235 0.499035 0.117424
H13   H     H_    0.606743 0.067646 0.437277 0.119379
H14   H     H_    0.325651 0.805267 0.467751 0.095938
H15   H     H_    0.326963 0.762534 0.285332 0.113056
H16   H     H_    0.302331 0.856792 0.307226 0.146581
H17   H     H_    0.672892 0.237478 0.715650 0.113205
H18   H     H_    0.674430 0.195193 0.532813 0.095908
H19   H     H_    0.697696 0.143323 0.692927 0.146553
H20   H     H_    0.674426 0.804792 0.532994 0.096108
H21   H     H_    0.672840 0.762484 0.715815 0.112808
H22   H     H_    0.697648 0.856636 0.693156 0.146467
H23   H     H_    0.282412 0.380799 0.497891 0.117383
H24   H     H_    0.327044 0.237514 0.284790 0.112742
H25   H     H_    0.325606 0.195006 0.467428 0.096127
H26   H     H_    0.302318 0.143317 0.307109 0.146454
H27   H     H_    0.717588 0.619201 0.502135 0.117384
H28   H     H_    0.842879 0.380924 0.502298 0.100764
H29   H     H_    0.157120 0.619075 0.497687 0.100769
H30   H     H_    0.157111 0.380998 0.499061 0.100944
H31   H     H_    0.842890 0.619000 0.500967 0.100943
H32   H     H_    0.937780 0.585453 0.666076 0.101980
N1    N     N_R   0.500000 0.683620 0.500000 -0.281372
N2    N     N_R   0.500000 0.316380 0.500000 -0.281360
O1    O     O_R   0.400190 0.561980 0.499980 -0.510082
O2    O     O_3   0.594121 0.162597 0.673609 -0.560683
O3    O     O_3   0.594081 0.837385 0.673696 -0.560604
O4    O     O_3   0.405886 0.162632 0.326359 -0.560601
O5    O     O_R   0.599810 0.438020 0.500020 -0.510088
O6    O     O_R   0.599810 0.561980 0.500020 -0.510021
O7    O     O_R   0.400190 0.438020 0.499980 -0.510027
O8    O     O_R   0.500000 0.561940 0.288400 -0.492363
O9    O     O_R   0.500000 0.438060 0.711600 -0.492362
O10   O     O_R   0.500000 0.561940 0.711600 -0.492450
O11   O     O_R   0.500000 0.438060 0.288400 -0.492446
O12   O     O_3   0.405889 0.837376 0.326346 -0.560647

loop_
_geom_bond_atom_site_label_1
_geom_bond_atom_site_label_2
_ccdc_geom_bond_type
C1    O7    A    
C7    C10   A    
C30   C32   A    
C21   C26   A    
C3    C42   A    
C13   O10   A    
C2    O4    S    
C22   H30   S    
C44   O3    S    
C41   N2    A    
Cu2   O9    S    
Cu1   Cu2   S    
C23   C42   A    
C12   O5    A    
C30   H2    S    
C31   H3    S    
C39   O4    S    
C8    H13   S    
C38   O3    S    
C11   C14   S    
C20   C25   A    
C2    C41   A    
C1    O1    A    
C34   N2    A    
C29   H32   S    
C38   H20   S    
C8    C9    A    
C37   H19   S    
C1    C28   S    
C39   H26   S    
C31   C33   A    
C19   C27   A    
C17   H12   S    
Cu2   O5    S    
C36   O12   S    
C16   C27   A    
C6    C9    A    
C36   H16   S    
C16   H1    S    
C37   H17   S    
C3    C44   A    
C12   C27   S    
C32   C35   A    
C19   H27   S    
Cu1   O8    S    
C18   C28   A    
C24   C25   A    
Cu2   O11   S    
C17   C21   A    
C2    C4    A    
C26   C33   S    
C23   H5    S    
C11   O8    A    
C16   C20   A    
C40   N1    A    
C20   H28   S    
Cu1   N1    S    
Cu1   O10   S    
C32   H4    S    
C25   C35   S    
C38   H22   S    
C13   C15   S    
C37   O2    S    
C36   H15   S    
C37   H18   S    
Cu2   O7    S    
C29   C35   A    
C30   C33   A    
C13   O9    A    
C18   C22   A    
C17   C28   A    
C5    H9    S    
Cu1   O1    S    
C34   C43   A    
C6    H10   S    
C36   H14   S    
C5    C8    A    
C6    C7    A    
C4    C43   A    
C21   H29   S    
C34   H6    S    
C12   O6    A    
Cu1   O6    S    
C5    C10   A    
C29   C31   A    
C3    C10   S    
Cu2   N2    S    
C18   H23   S    
C39   H24   S    
C19   C24   A    
C42   O12   S    
C41   H8    S    
C11   O11   A    
C24   H31   S    
C40   C44   A    
C38   H21   S    
C40   H7    S    
C22   C26   A    
C43   O2    S    
C39   H25   S    
C14   C15   T    
C23   N1    A    
C4    C9    S    
C7    H11   S    
