data_mof_unit_31308.cif
_audit_creation_date              2013-03-05T15:49:31-0500
_audit_creation_method            fapswitch 2.2
_symmetry_space_group_name_H-M    P1
_symmetry_Int_Tables_number       1
_space_group_crystal_system       triclinic
_cell_length_a                    18.388569
_cell_length_b                    18.389194
_cell_length_c                    34.371596
_cell_angle_alpha                 89.999983
_cell_angle_beta                  90.000013
_cell_angle_gamma                 90.001749
_cell_volume                      11622.7882723

loop_
_atom_site_label
_atom_site_type_symbol
_atom_site_description
_atom_site_fract_x
_atom_site_fract_y
_atom_site_fract_z
_atom_type_partial_charge
Zn1   Zn    Zn3+2 0.000000 0.586740 0.782740 0.975175
Zn2   Zn    Zn3+2 0.000000 0.413260 0.217260 0.975992
Zn3   Zn    Zn3+2 0.413260 1.000000 0.782740 0.975302
Zn4   Zn    Zn3+2 0.586740 0.000000 0.217260 0.975824
Zn5   Zn    Zn3+2 0.000000 0.413260 0.782740 0.975177
Zn6   Zn    Zn3+2 0.000000 0.586740 0.217260 0.975992
Zn7   Zn    Zn3+2 0.586740 1.000000 0.782740 0.975305
Zn8   Zn    Zn3+2 0.413260 0.000000 0.217260 0.975824
Zn9   Zn    Zn3+2 0.500000 0.086740 0.282740 0.975870
Zn10  Zn    Zn3+2 0.500000 0.913260 0.717260 0.975546
Zn11  Zn    Zn3+2 0.913260 0.500000 0.282740 0.975901
Zn12  Zn    Zn3+2 0.086740 0.500000 0.717260 0.975267
Zn13  Zn    Zn3+2 0.500000 0.913260 0.282740 0.975871
Zn14  Zn    Zn3+2 0.500000 0.086740 0.717260 0.975548
Zn15  Zn    Zn3+2 0.086740 0.500000 0.282740 0.975901
Zn16  Zn    Zn3+2 0.913260 0.500000 0.717260 0.975285
C1    C     C_R   0.503526 0.865966 0.520365 0.189342
C2    C     C_R   0.486586 0.133399 0.479601 0.189458
C3    C     C_R   0.132435 0.521133 0.520400 0.186895
C4    C     C_R   0.866445 0.487728 0.479553 0.188930
C5    C     C_R   0.496581 0.134032 0.520365 0.189350
C6    C     C_R   0.513521 0.866605 0.479599 0.189464
C7    C     C_R   0.867555 0.478956 0.520399 0.186894
C8    C     C_R   0.133549 0.512362 0.479554 0.188930
C9    C     C_R   0.017350 0.632993 0.020453 0.189092
C10   C     C_R   0.973851 0.368468 0.979605 0.186743
C11   C     C_R   0.366170 0.008894 0.020442 0.188815
C12   C     C_R   0.632947 0.982326 0.979597 0.187207
C13   C     C_R   0.982581 0.367015 0.020452 0.189090
C14   C     C_R   0.026081 0.631543 0.979606 0.186744
C15   C     C_R   0.633831 0.991112 0.020442 0.188815
C16   C     C_R   0.367054 0.017681 0.979597 0.187207
O1    O     O_3   0.000000 0.500000 0.750000 -0.488855
O2    O     O_3   0.000000 0.500000 0.250000 -0.489361
O3    O     O_3   0.500000 0.000000 0.750000 -0.488933
O4    O     O_3   0.500000 0.000000 0.250000 -0.489226
O5    O     O_R   0.060740 0.500000 0.662560 -0.647872
O6    O     O_R   0.939260 0.500000 0.337440 -0.647477
O7    O     O_R   0.500000 0.060740 0.662560 -0.647880
O8    O     O_R   0.500000 0.939260 0.337440 -0.647687
O9    O     O_R   0.939260 0.500000 0.662560 -0.647854
O10   O     O_R   0.060740 0.500000 0.337440 -0.647477
O11   O     O_R   0.500000 0.939260 0.662560 -0.647883
O12   O     O_R   0.500000 0.060740 0.337440 -0.647689
O13   O     O_R   0.560740 0.000000 0.162560 -0.647631
O14   O     O_R   0.439260 1.000000 0.837440 -0.647967
O15   O     O_R   1.000000 0.560740 0.162560 -0.647273
O16   O     O_R   0.000000 0.439260 0.837440 -0.647771
O17   O     O_R   0.439260 0.000000 0.162560 -0.647631
O18   O     O_R   0.560740 1.000000 0.837440 -0.647964
O19   O     O_R   0.000000 0.439260 0.162560 -0.647272
O20   O     O_R   0.000000 0.560740 0.837440 -0.647771
O21   O     O_R   0.853850 0.585450 0.727070 -0.620825
O22   O     O_R   0.146150 0.414550 0.272930 -0.631988
O23   O     O_R   0.414550 0.853850 0.727070 -0.620938
O24   O     O_R   0.585450 0.146150 0.272930 -0.632073
O25   O     O_R   0.146150 0.414550 0.727070 -0.620845
O26   O     O_R   0.853850 0.585450 0.272930 -0.631988
O27   O     O_R   0.585450 0.146150 0.727070 -0.620939
O28   O     O_R   0.414550 0.853850 0.272930 -0.632073
O29   O     O_R   0.853850 0.414550 0.272930 -0.621071
O30   O     O_R   0.146150 0.585450 0.727070 -0.632508
O31   O     O_R   0.414550 0.146150 0.272930 -0.621088
O32   O     O_R   0.585450 0.853850 0.727070 -0.632305
O33   O     O_R   0.146150 0.585450 0.272930 -0.621071
O34   O     O_R   0.853850 0.414550 0.727070 -0.632502
O35   O     O_R   0.585450 0.853850 0.272930 -0.621088
O36   O     O_R   0.414550 0.146150 0.727070 -0.632304
O37   O     O_R   0.353850 0.085450 0.227070 -0.621033
O38   O     O_R   0.646150 0.914550 0.772930 -0.632512
O39   O     O_R   0.914550 0.353850 0.227070 -0.621143
O40   O     O_R   0.085450 0.646150 0.772930 -0.632624
O41   O     O_R   0.646150 0.914550 0.227070 -0.621032
O42   O     O_R   0.353850 0.085450 0.772930 -0.632514
O43   O     O_R   0.085450 0.646150 0.227070 -0.621143
O44   O     O_R   0.914550 0.353850 0.772930 -0.632625
O45   O     O_R   0.353850 0.914550 0.772930 -0.620899
O46   O     O_R   0.646150 0.085450 0.227070 -0.632047
O47   O     O_R   0.914550 0.646150 0.772930 -0.620846
O48   O     O_R   0.085450 0.353850 0.227070 -0.631913
O49   O     O_R   0.646150 0.085450 0.772930 -0.620895
O50   O     O_R   0.353850 0.914550 0.227070 -0.632047
O51   O     O_R   0.085450 0.353850 0.772930 -0.620850
O52   O     O_R   0.914550 0.646150 0.227070 -0.631913
C17   C     C_R   0.497697 0.065633 0.581524 -0.237466
C18   C     C_R   0.505830 0.934579 0.418447 -0.238075
C19   C     C_R   0.934884 0.491561 0.581535 -0.238114
C20   C     C_R   0.065233 0.507493 0.418430 -0.237828
C21   C     C_R   0.502351 0.934365 0.581525 -0.237458
C22   C     C_R   0.494217 0.065420 0.418448 -0.238068
C23   C     C_R   0.065113 0.508476 0.581536 -0.238109
C24   C     C_R   0.934766 0.492545 0.418430 -0.237827
C25   C     C_R   0.990167 0.435082 0.081581 -0.237810
C26   C     C_R   0.010847 0.564757 0.918462 -0.238140
C27   C     C_R   0.565399 0.994131 0.081561 -0.237868
C28   C     C_R   0.434691 0.006810 0.918467 -0.238054
C29   C     C_R   0.009804 0.564921 0.081581 -0.237807
C30   C     C_R   0.989124 0.435246 0.918462 -0.238143
C31   C     C_R   0.434601 0.005870 0.081561 -0.237867
C32   C     C_R   0.565309 0.993191 0.918466 -0.238056
C33   C     C_R   0.500014 0.999999 0.601721 -0.058865
C34   C     C_R   0.500014 0.999999 0.398261 -0.057283
C35   C     C_R   0.999999 0.500011 0.601727 -0.058465
C36   C     C_R   1.000000 0.500011 0.398249 -0.056919
C37   C     C_R   0.999992 0.500000 0.101758 -0.056306
C38   C     C_R   0.999992 0.500001 0.898271 -0.058276
C39   C     C_R   0.500000 0.000000 0.101746 -0.057308
C40   C     C_R   0.500000 0.000000 0.898273 -0.058529
C41   C     C_R   0.501639 0.932940 0.540800 0.069646
C42   C     C_R   0.493234 0.066731 0.459170 0.069938
C43   C     C_R   0.066289 0.510248 0.540810 0.069778
C44   C     C_R   0.933216 0.493716 0.459153 0.070119
C45   C     C_R   0.498442 0.067058 0.540801 0.069655
C46   C     C_R   0.506846 0.933270 0.459170 0.069944
C47   C     C_R   0.933704 0.489817 0.540810 0.069770
C48   C     C_R   0.066780 0.506350 0.459153 0.070113
C49   C     C_R   0.008779 0.566504 0.040855 0.070263
C50   C     C_R   0.987273 0.434143 0.959191 0.069861
C51   C     C_R   0.433077 0.004631 0.040841 0.069943
C52   C     C_R   0.566536 0.991479 0.959189 0.069662
C53   C     C_R   0.991171 0.433501 0.040855 0.070260
C54   C     C_R   0.012678 0.565864 0.959191 0.069854
C55   C     C_R   0.566923 0.995373 0.040841 0.069944
C56   C     C_R   0.433465 0.008525 0.959189 0.069663
C57   C     C_R   1.000000 0.500001 0.644197 0.808315
C58   C     C_R   0.000000 0.500001 0.355795 0.808754
C59   C     C_R   0.500001 1.000000 0.644195 0.808912
C60   C     C_R   0.500001 1.000000 0.355798 0.809106
C61   C     C_R   0.500000 1.000000 0.144204 0.808809
C62   C     C_R   0.500000 1.000000 0.855803 0.808499
C63   C     C_R   0.999999 0.500000 0.144208 0.808547
C64   C     C_R   0.999999 0.500000 0.855802 0.807974
C65   C     C_R   0.859718 0.640276 0.750001 0.848966
C66   C     C_R   0.139864 0.360132 0.250004 0.890587
C67   C     C_R   0.359714 0.859728 0.749990 0.849120
C68   C     C_R   0.639865 0.139866 0.249998 0.890560
C69   C     C_R   0.140282 0.359724 0.750000 0.849019
C70   C     C_R   0.860136 0.639868 0.250004 0.890588
C71   C     C_R   0.640285 0.140271 0.749990 0.849115
C72   C     C_R   0.360135 0.860134 0.249998 0.890560
C73   C     C_R   0.859717 0.359730 0.249996 0.848993
C74   C     C_R   0.139860 0.639866 0.749994 0.890273
C75   C     C_R   0.359713 0.140266 0.250009 0.849079
C76   C     C_R   0.639864 0.860139 0.750000 0.890347
C77   C     C_R   0.140282 0.640270 0.249996 0.848993
C78   C     C_R   0.860140 0.360134 0.749994 0.890268
C79   C     C_R   0.640287 0.859734 0.250009 0.849077
C80   C     C_R   0.360136 0.139862 0.750000 0.890351
H1    H     H_    0.045074 0.877485 0.798551 0.150149
H2    H     H_    0.922315 0.148415 0.163223 0.147863
H3    H     H_    0.122495 0.045184 0.798660 0.150096
H4    H     H_    0.851752 0.922372 0.163323 0.147638
H5    H     H_    0.954924 0.122516 0.798553 0.150149
H6    H     H_    0.077684 0.851586 0.163224 0.147862
H7    H     H_    0.877505 0.954816 0.798662 0.150097
H8    H     H_    0.148250 0.077630 0.163321 0.147638
H9    H     H_    0.045035 0.122485 0.201492 0.150245
H10   H     H_    0.922236 0.851513 0.836816 0.146990
H11   H     H_    0.122483 0.954834 0.201390 0.150237
H12   H     H_    0.851662 0.077734 0.836725 0.147048
H13   H     H_    0.954966 0.877515 0.201495 0.150246
H14   H     H_    0.077763 0.148487 0.836814 0.146988
H15   H     H_    0.877517 0.045167 0.201389 0.150237
H16   H     H_    0.148336 0.922268 0.836723 0.147053
H17   H     H_    0.545067 0.377515 0.298531 0.150183
H18   H     H_    0.422378 0.648309 0.663271 0.147795
H19   H     H_    0.622477 0.545155 0.298602 0.150230
H20   H     H_    0.351619 0.422311 0.663250 0.146995
H21   H     H_    0.454932 0.622485 0.298532 0.150182
H22   H     H_    0.577624 0.351687 0.663268 0.147797
H23   H     H_    0.377522 0.454844 0.298604 0.150230
H24   H     H_    0.648385 0.577689 0.663251 0.147000
H25   H     H_    0.545122 0.622475 0.701415 0.150149
H26   H     H_    0.422352 0.351617 0.336768 0.147831
H27   H     H_    0.622481 0.454898 0.701442 0.150249
H28   H     H_    0.351712 0.577634 0.336703 0.147600
H29   H     H_    0.454883 0.377522 0.701414 0.150148
H30   H     H_    0.577646 0.648381 0.336767 0.147829
H31   H     H_    0.377520 0.545099 0.701446 0.150248
H32   H     H_    0.648287 0.422366 0.336702 0.147600
C81   C     C_R   0.296754 0.608389 0.732215 0.285572
C82   C     C_R   0.728510 0.359396 0.305250 0.280841
C83   C     C_R   0.391637 0.296757 0.732215 0.285531
C84   C     C_R   0.640626 0.728589 0.305308 0.280913
C85   C     C_R   0.703246 0.391610 0.732212 0.285576
C86   C     C_R   0.271489 0.640605 0.305251 0.280845
C87   C     C_R   0.608367 0.703243 0.732214 0.285527
C88   C     C_R   0.359373 0.271410 0.305309 0.280912
C89   C     C_R   0.296759 0.391577 0.267817 0.285520
C90   C     C_R   0.728563 0.640676 0.694730 0.279324
C91   C     C_R   0.391644 0.703242 0.267756 0.285587
C92   C     C_R   0.640599 0.271464 0.694716 0.280052
C93   C     C_R   0.703241 0.608422 0.267816 0.285519
C94   C     C_R   0.271441 0.359327 0.694732 0.279317
C95   C     C_R   0.608355 0.296758 0.267755 0.285587
C96   C     C_R   0.359403 0.728533 0.694718 0.280050
C97   C     C_R   0.796761 0.108414 0.232191 0.285482
C98   C     C_R   0.228522 0.859327 0.805225 0.279308
C99   C     C_R   0.891667 0.796762 0.232270 0.285514
C100  C     C_R   0.140727 0.228621 0.805290 0.279028
C101  C     C_R   0.203239 0.891586 0.232191 0.285483
C102  C     C_R   0.771477 0.140674 0.805226 0.279302
C103  C     C_R   0.108333 0.203238 0.232269 0.285515
C104  C     C_R   0.859273 0.771378 0.805290 0.279027
C105  C     C_R   0.796762 0.891609 0.767819 0.285389
C106  C     C_R   0.228482 0.140594 0.194774 0.280498
C107  C     C_R   0.891663 0.203243 0.767735 0.285477
C108  C     C_R   0.140655 0.771401 0.194702 0.280983
C109  C     C_R   0.203238 0.108392 0.767818 0.285391
C110  C     C_R   0.771520 0.859407 0.194775 0.280496
C111  C     C_R   0.108336 0.796758 0.767734 0.285479
C112  C     C_R   0.859344 0.228601 0.194701 0.280987
C113  C     C_R   0.355251 0.598737 0.706610 -0.264199
C114  C     C_R   0.657735 0.382879 0.313882 -0.302663
C115  C     C_R   0.401253 0.355245 0.706598 -0.263977
C116  C     C_R   0.617141 0.657819 0.313949 -0.301765
C117  C     C_R   0.644751 0.401261 0.706607 -0.264195
C118  C     C_R   0.342264 0.617121 0.313883 -0.302661
C119  C     C_R   0.598751 0.644755 0.706598 -0.263973
C120  C     C_R   0.382857 0.342179 0.313950 -0.301767
C121  C     C_R   0.355244 0.401212 0.293431 -0.264017
C122  C     C_R   0.657803 0.617161 0.686080 -0.302699
C123  C     C_R   0.401292 0.644748 0.293362 -0.264119
C124  C     C_R   0.617120 0.342238 0.686084 -0.302014
C125  C     C_R   0.644755 0.598787 0.293430 -0.264017
C126  C     C_R   0.342201 0.382839 0.686081 -0.302665
C127  C     C_R   0.598707 0.355252 0.293361 -0.264118
C128  C     C_R   0.382882 0.657759 0.686086 -0.302014
C129  C     C_R   0.855240 0.098795 0.206570 -0.263983
C130  C     C_R   0.157759 0.882823 0.813880 -0.302253
C131  C     C_R   0.901323 0.855258 0.206666 -0.263694
C132  C     C_R   0.117210 0.157877 0.813967 -0.302080
C133  C     C_R   0.144760 0.901206 0.206571 -0.263982
C134  C     C_R   0.842239 0.117180 0.813882 -0.302245
C135  C     C_R   0.098678 0.144742 0.206664 -0.263696
C136  C     C_R   0.882790 0.842123 0.813968 -0.302080
C137  C     C_R   0.855227 0.901195 0.793456 -0.263886
C138  C     C_R   0.157704 0.117113 0.186143 -0.302333
C139  C     C_R   0.901288 0.144771 0.793360 -0.263927
C140  C     C_R   0.117161 0.842162 0.186052 -0.302275
C141  C     C_R   0.144773 0.098805 0.793455 -0.263884
C142  C     C_R   0.842298 0.882888 0.186144 -0.302335
C143  C     C_R   0.098710 0.855230 0.793358 -0.263923
C144  C     C_R   0.882838 0.157839 0.186051 -0.302275
C145  C     C_R   0.500042 0.999999 0.520355 -0.037593
C146  C     C_R   0.500042 0.000000 0.479616 -0.037368
C147  C     C_R   0.999997 0.500034 0.520354 -0.037106
C148  C     C_R   0.999998 0.500034 0.479610 -0.037557
C149  C     C_R   0.999974 0.500003 0.020396 -0.037736
C150  C     C_R   0.999974 0.500004 0.979649 -0.037226
C151  C     C_R   0.500000 0.000002 0.020385 -0.037479
C152  C     C_R   0.500000 0.000002 0.979644 -0.037131
C153  C     C_R   0.310600 0.739029 0.726591 -0.003224
C154  C     C_R   0.679544 0.267363 0.262816 -0.001665
C155  C     C_R   0.260995 0.310603 0.726634 -0.002982
C156  C     C_R   0.732663 0.679600 0.262875 -0.001683
C157  C     C_R   0.689401 0.260970 0.726589 -0.003226
C158  C     C_R   0.320455 0.732638 0.262816 -0.001665
C159  C     C_R   0.739008 0.689399 0.726632 -0.002945
C160  C     C_R   0.267336 0.320400 0.262876 -0.001683
C161  C     C_R   0.310579 0.260931 0.273425 -0.003353
C162  C     C_R   0.679547 0.732652 0.737171 -0.001641
C163  C     C_R   0.260999 0.689376 0.273362 -0.003161
C164  C     C_R   0.732661 0.320427 0.737138 -0.001769
C165  C     C_R   0.689421 0.739069 0.273425 -0.003352
C166  C     C_R   0.320455 0.267350 0.737172 -0.001626
C167  C     C_R   0.739000 0.310625 0.273362 -0.003161
C168  C     C_R   0.267339 0.679572 0.737139 -0.001769
C169  C     C_R   0.810585 0.239059 0.226598 -0.003232
C170  C     C_R   0.179523 0.767370 0.762772 -0.001759
C171  C     C_R   0.761022 0.810642 0.226666 -0.003194
C172  C     C_R   0.232652 0.179562 0.762836 -0.001718
C173  C     C_R   0.189415 0.760942 0.226598 -0.003232
C174  C     C_R   0.820477 0.232629 0.762772 -0.001758
C175  C     C_R   0.238979 0.189359 0.226665 -0.003194
C176  C     C_R   0.767349 0.820439 0.762836 -0.001705
C177  C     C_R   0.810587 0.760969 0.773371 -0.003052
C178  C     C_R   0.179527 0.232625 0.237210 -0.001652
C179  C     C_R   0.761022 0.189374 0.773313 -0.003126
C180  C     C_R   0.232656 0.820412 0.237144 -0.001752
C181  C     C_R   0.189414 0.239031 0.773371 -0.003057
C182  C     C_R   0.820473 0.767376 0.237211 -0.001652
C183  C     C_R   0.238977 0.810627 0.773313 -0.003133
C184  C     C_R   0.767344 0.179589 0.237144 -0.001753
H33   H     H_    0.493879 0.115518 0.598043 0.178195
H34   H     H_    0.508466 0.884623 0.401925 0.177929
H35   H     H_    0.885065 0.487054 0.598060 0.177678
H36   H     H_    0.114592 0.515548 0.401892 0.176917
H37   H     H_    0.506154 0.884480 0.598044 0.178193
H38   H     H_    0.491565 0.115375 0.401925 0.177929
H39   H     H_    0.114934 0.512970 0.598060 0.177673
H40   H     H_    0.885407 0.484477 0.401893 0.176916
H41   H     H_    0.980309 0.386067 0.098136 0.176419
H42   H     H_    0.017257 0.614356 0.901926 0.177392
H43   H     H_    0.614955 0.987310 0.098091 0.177201
H44   H     H_    0.384763 0.009997 0.901947 0.177802
H45   H     H_    0.019672 0.613935 0.098135 0.176418
H46   H     H_    0.982725 0.385645 0.901927 0.177390
H47   H     H_    0.385045 0.012691 0.098091 0.177201
H48   H     H_    0.615237 0.990003 0.901947 0.177803
C185  C     C_R   0.303111 0.803152 0.749958 -0.192399
C186  C     C_R   0.695774 0.195793 0.249987 -0.177889
C187  C     C_R   0.196879 0.303138 0.750000 -0.192627
C188  C     C_R   0.804234 0.695802 0.250029 -0.177837
C189  C     C_R   0.696889 0.196847 0.749957 -0.192399
C190  C     C_R   0.304225 0.804207 0.249988 -0.177889
C191  C     C_R   0.803122 0.696863 0.750000 -0.192636
C192  C     C_R   0.195766 0.304198 0.250029 -0.177838
C193  C     C_R   0.303105 0.196827 0.250036 -0.192380
C194  C     C_R   0.695775 0.804225 0.750000 -0.178158
C195  C     C_R   0.196881 0.696841 0.249985 -0.192370
C196  C     C_R   0.804239 0.304207 0.749967 -0.178144
C197  C     C_R   0.696895 0.803173 0.250037 -0.192379
C198  C     C_R   0.304226 0.195776 0.750001 -0.178159
C199  C     C_R   0.803118 0.303160 0.249985 -0.192370
C200  C     C_R   0.195761 0.695792 0.749967 -0.178144
N1    N     N_2   0.272024 0.547817 0.754535 -0.280568
H49   H     H_    0.287271 0.497716 0.743765 0.234554
C201  C     C_3   0.283616 0.553848 0.796040 -0.828373
H50   H     H_    0.260133 0.505545 0.810826 0.233753
H51   H     H_    0.256503 0.603100 0.807823 0.242597
H52   H     H_    0.342797 0.556347 0.802468 0.241383
N2    N     N_2   0.785279 0.376722 0.332057 -0.257698
H53   H     H_    0.773184 0.417643 0.351562 0.217225
C202  C     C_3   0.820857 0.315180 0.350133 -0.782285
H54   H     H_    0.864798 0.334885 0.369641 0.232784
H55   H     H_    0.845877 0.279307 0.327870 0.236165
H56   H     H_    0.781064 0.283579 0.367632 0.232914
N3    N     N_2   0.452242 0.272030 0.754510 -0.280629
H57   H     H_    0.502328 0.287284 0.743721 0.234482
C203  C     C_3   0.446269 0.283612 0.796018 -0.828084
H58   H     H_    0.494597 0.260134 0.810782 0.233768
H59   H     H_    0.397035 0.256489 0.807819 0.242674
H60   H     H_    0.443773 0.342789 0.802450 0.241333
N4    N     N_2   0.623236 0.785375 0.332091 -0.257338
H61   H     H_    0.582217 0.773316 0.351545 0.217893
C204  C     C_3   0.684733 0.820875 0.350254 -0.784052
H62   H     H_    0.664985 0.864867 0.369715 0.232247
H63   H     H_    0.720774 0.845805 0.328037 0.236699
H64   H     H_    0.716164 0.781057 0.367822 0.233394
N5    N     N_2   0.727974 0.452182 0.754533 -0.280565
H65   H     H_    0.712727 0.502282 0.743763 0.234560
C205  C     C_3   0.716380 0.446152 0.796038 -0.828375
H66   H     H_    0.739863 0.494454 0.810824 0.233754
H67   H     H_    0.743494 0.396900 0.807821 0.242597
H68   H     H_    0.657199 0.443652 0.802465 0.241383
N6    N     N_2   0.214720 0.623278 0.332057 -0.257698
H69   H     H_    0.226814 0.582357 0.351562 0.217224
C206  C     C_3   0.179142 0.684820 0.350134 -0.782298
H70   H     H_    0.135201 0.665115 0.369642 0.232785
H71   H     H_    0.154122 0.720694 0.327871 0.236169
H72   H     H_    0.218934 0.716420 0.367633 0.232915
N7    N     N_2   0.547762 0.727969 0.754510 -0.280628
H73   H     H_    0.497676 0.712714 0.743721 0.234482
C207  C     C_3   0.553736 0.716386 0.796018 -0.828077
H74   H     H_    0.505409 0.739863 0.810783 0.233769
H75   H     H_    0.602971 0.743509 0.807818 0.242673
H76   H     H_    0.556233 0.657208 0.802449 0.241332
N8    N     N_2   0.376762 0.214624 0.332092 -0.257337
H77   H     H_    0.417781 0.226681 0.351546 0.217893
C208  C     C_3   0.315264 0.179123 0.350253 -0.784046
H78   H     H_    0.335012 0.135129 0.369714 0.232249
H79   H     H_    0.279223 0.154195 0.328036 0.236695
H80   H     H_    0.283833 0.218940 0.367822 0.233392
N9    N     N_2   0.272054 0.452163 0.245501 -0.280837
H81   H     H_    0.287284 0.502256 0.256288 0.234525
C209  C     C_3   0.283710 0.446166 0.204000 -0.827381
H82   H     H_    0.260240 0.494474 0.189214 0.233890
H83   H     H_    0.256622 0.396915 0.192196 0.243042
H84   H     H_    0.342901 0.443685 0.197597 0.241278
N10   N     N_2   0.785365 0.623471 0.667924 -0.257063
H85   H     H_    0.773267 0.582704 0.648327 0.217990
C210  C     C_3   0.821116 0.685099 0.650021 -0.776242
H86   H     H_    0.865022 0.665475 0.630472 0.234531
H87   H     H_    0.846231 0.720695 0.672380 0.234436
H88   H     H_    0.781416 0.716981 0.632609 0.231911
N11   N     N_2   0.452231 0.727995 0.245453 -0.280845
H89   H     H_    0.502328 0.712768 0.256238 0.234426
C211  C     C_3   0.446247 0.716397 0.203947 -0.827460
H90   H     H_    0.494556 0.739899 0.189175 0.233837
H91   H     H_    0.396993 0.743488 0.192150 0.242987
H92   H     H_    0.443779 0.657217 0.197520 0.241298
N12   N     N_2   0.623242 0.214693 0.667920 -0.257088
H93   H     H_    0.582251 0.226759 0.648451 0.217817
C212  C     C_3   0.684772 0.179197 0.649787 -0.780856
H94   H     H_    0.665055 0.135249 0.630287 0.233845
H95   H     H_    0.720736 0.154204 0.672018 0.235721
H96   H     H_    0.716282 0.219035 0.632269 0.232396
N13   N     N_2   0.727946 0.547838 0.245500 -0.280839
H97   H     H_    0.712716 0.497744 0.256286 0.234525
C213  C     C_3   0.716291 0.553835 0.203999 -0.827380
H98   H     H_    0.739760 0.505527 0.189213 0.233891
H99   H     H_    0.743379 0.603086 0.192195 0.243042
H100  H     H_    0.657100 0.556317 0.197596 0.241278
N14   N     N_2   0.214637 0.376532 0.667929 -0.257067
H101  H     H_    0.226717 0.417328 0.648347 0.218022
C214  C     C_3   0.178934 0.314902 0.650001 -0.776311
H102  H     H_    0.134968 0.334519 0.630486 0.234555
H103  H     H_    0.153903 0.279216 0.672346 0.234461
H104  H     H_    0.218645 0.283114 0.632547 0.231918
N15   N     N_2   0.547768 0.272005 0.245453 -0.280845
H105  H     H_    0.497671 0.287231 0.256237 0.234426
C215  C     C_3   0.553752 0.283601 0.203946 -0.827458
H106  H     H_    0.505443 0.260099 0.189174 0.233836
H107  H     H_    0.603006 0.256510 0.192150 0.242987
H108  H     H_    0.556220 0.342782 0.197519 0.241298
N16   N     N_2   0.376760 0.785304 0.667921 -0.257087
H109  H     H_    0.417750 0.773236 0.648452 0.217816
C216  C     C_3   0.315229 0.820798 0.649788 -0.780847
H110  H     H_    0.334946 0.864745 0.630287 0.233844
H111  H     H_    0.279265 0.845792 0.672018 0.235719
H112  H     H_    0.283720 0.780959 0.632270 0.232394
N17   N     N_2   0.772053 0.047817 0.254497 -0.280830
H113  H     H_    0.787289 0.997730 0.243706 0.234503
C217  C     C_3   0.783693 0.053798 0.296001 -0.827243
H114  H     H_    0.760224 0.005479 0.310777 0.233908
H115  H     H_    0.756594 0.103038 0.307808 0.243014
H116  H     H_    0.842881 0.056287 0.302410 0.241276
N18   N     N_2   0.285310 0.876487 0.832045 -0.257051
H117  H     H_    0.273253 0.917320 0.851610 0.217921
C218  C     C_3   0.320869 0.814821 0.850017 -0.777227
H118  H     H_    0.364846 0.834388 0.869539 0.234504
H119  H     H_    0.345855 0.779052 0.827696 0.234631
H120  H     H_    0.281071 0.783140 0.867471 0.231857
N19   N     N_2   0.952253 0.771993 0.254567 -0.280880
H121  H     H_    0.002351 0.787218 0.243782 0.234477
C219  C     C_3   0.946279 0.783573 0.296075 -0.827383
H122  H     H_    0.994587 0.760059 0.310841 0.233856
H123  H     H_    0.897023 0.756482 0.307871 0.243052
H124  H     H_    0.943823 0.842750 0.302510 0.241297
N20   N     N_2   0.123592 0.285451 0.832089 -0.256921
H125  H     H_    0.082801 0.273410 0.851682 0.218430
C220  C     C_3   0.185278 0.321088 0.850001 -0.775934
H126  H     H_    0.165726 0.365083 0.869515 0.234716
H127  H     H_    0.220977 0.346069 0.827646 0.234294
H128  H     H_    0.217035 0.281347 0.867453 0.231778
N21   N     N_2   0.227947 0.952184 0.254498 -0.280830
H129  H     H_    0.212711 0.002271 0.243707 0.234502
C221  C     C_3   0.216309 0.946203 0.296001 -0.827244
H130  H     H_    0.239778 0.994522 0.310778 0.233906
H131  H     H_    0.243406 0.896963 0.307808 0.243014
H132  H     H_    0.157120 0.943715 0.302411 0.241276
N22   N     N_2   0.714687 0.123515 0.832046 -0.257053
H133  H     H_    0.726747 0.082688 0.851613 0.217917
C222  C     C_3   0.679120 0.185182 0.850012 -0.777181
H134  H     H_    0.635150 0.165614 0.869539 0.234492
H135  H     H_    0.654123 0.220937 0.827688 0.234622
H136  H     H_    0.718914 0.216879 0.867462 0.231845
N23   N     N_2   0.047747 0.228006 0.254565 -0.280878
H137  H     H_    0.997649 0.212781 0.243780 0.234478
C223  C     C_3   0.053721 0.216424 0.296073 -0.827387
H138  H     H_    0.005412 0.239937 0.310840 0.233857
H139  H     H_    0.102976 0.243516 0.307870 0.243052
H140  H     H_    0.056178 0.157246 0.302507 0.241297
N24   N     N_2   0.876409 0.714548 0.832089 -0.256920
H141  H     H_    0.917199 0.726589 0.851682 0.218427
C224  C     C_3   0.814723 0.678910 0.850001 -0.775936
H142  H     H_    0.834274 0.634915 0.869514 0.234719
H143  H     H_    0.779022 0.653931 0.827646 0.234296
H144  H     H_    0.782966 0.718651 0.867453 0.231778
N25   N     N_2   0.772064 0.952234 0.745532 -0.280679
H145  H     H_    0.787321 0.002307 0.756335 0.234529
C225  C     C_3   0.783675 0.946291 0.704025 -0.827450
H146  H     H_    0.760218 0.994634 0.689267 0.233820
H147  H     H_    0.756548 0.897074 0.692208 0.242821
H148  H     H_    0.842859 0.943787 0.697605 0.241270
N26   N     N_2   0.285243 0.123283 0.167961 -0.257632
H149  H     H_    0.273141 0.082378 0.148448 0.217191
C226  C     C_3   0.320835 0.184835 0.149900 -0.781348
H150  H     H_    0.364768 0.165138 0.130385 0.233001
H151  H     H_    0.345870 0.220682 0.172171 0.235903
H152  H     H_    0.281048 0.216462 0.132412 0.232872
N27   N     N_2   0.952271 0.227996 0.745449 -0.280621
H153  H     H_    0.002358 0.212740 0.756236 0.234513
C227  C     C_3   0.946306 0.216460 0.703936 -0.827981
H154  H     H_    0.994638 0.239956 0.689182 0.233723
H155  H     H_    0.897076 0.243595 0.692141 0.242667
H156  H     H_    0.943809 0.157290 0.697486 0.241361
N28   N     N_2   0.123350 0.714608 0.167907 -0.257725
H157  H     H_    0.082403 0.726667 0.148410 0.217386
C228  C     C_3   0.184913 0.679099 0.149812 -0.783686
H158  H     H_    0.165238 0.635130 0.130314 0.232385
H159  H     H_    0.220844 0.654132 0.172066 0.236529
H160  H     H_    0.216444 0.718922 0.132296 0.233001
N29   N     N_2   0.227936 0.047767 0.745531 -0.280679
H161  H     H_    0.212679 0.997694 0.756333 0.234528
C229  C     C_3   0.216326 0.053712 0.704024 -0.827458
H162  H     H_    0.239783 0.005369 0.689265 0.233822
H163  H     H_    0.243453 0.102929 0.692207 0.242822
H164  H     H_    0.157142 0.056216 0.697603 0.241270
N30   N     N_2   0.714760 0.876718 0.167962 -0.257632
H165  H     H_    0.726862 0.917624 0.148449 0.217191
C230  C     C_3   0.679169 0.815168 0.149900 -0.781342
H166  H     H_    0.635236 0.834865 0.130385 0.233000
H167  H     H_    0.654133 0.779320 0.172170 0.235903
H168  H     H_    0.718956 0.783540 0.132412 0.232872
N31   N     N_2   0.047729 0.772003 0.745447 -0.280624
H169  H     H_    0.997642 0.787259 0.756234 0.234511
C231  C     C_3   0.053694 0.783537 0.703935 -0.827987
H170  H     H_    0.005364 0.760041 0.689181 0.233712
H171  H     H_    0.102925 0.756402 0.692140 0.242669
H172  H     H_    0.056191 0.842707 0.697484 0.241364
N32   N     N_2   0.876649 0.285394 0.167906 -0.257724
H173  H     H_    0.917596 0.273335 0.148410 0.217385
C232  C     C_3   0.815086 0.320903 0.149811 -0.783698
H174  H     H_    0.834761 0.364872 0.130314 0.232386
H175  H     H_    0.779154 0.345869 0.172065 0.236533
H176  H     H_    0.783556 0.281080 0.132295 0.233001
C233  C     C_3   0.491460 0.794748 0.541880 -0.942377
H177  H     H_    0.445739 0.800334 0.562782 0.234781
H178  H     H_    0.474347 0.749808 0.522455 0.254766
H179  H     H_    0.541673 0.778903 0.557690 0.241643
C234  C     C_3   0.465529 0.202495 0.458080 -0.943316
H180  H     H_    0.420916 0.191115 0.437165 0.235828
H181  H     H_    0.442784 0.244869 0.477501 0.255459
H182  H     H_    0.513309 0.224639 0.442278 0.240918
C235  C     C_3   0.200253 0.545571 0.542063 -0.937066
H183  H     H_    0.186323 0.588620 0.563454 0.236594
H184  H     H_    0.225363 0.498639 0.557314 0.238678
H185  H     H_    0.241002 0.571690 0.522869 0.254443
C236  C     C_3   0.794679 0.494292 0.457860 -0.941819
H186  H     H_    0.797262 0.539692 0.436605 0.237184
H187  H     H_    0.782416 0.442681 0.442425 0.240025
H188  H     H_    0.748540 0.508916 0.477048 0.254425
C237  C     C_3   0.508684 0.205245 0.541880 -0.942415
H189  H     H_    0.458460 0.221145 0.557665 0.241658
H190  H     H_    0.554365 0.199624 0.562804 0.234789
H191  H     H_    0.525876 0.250156 0.522457 0.254764
C238  C     C_3   0.534609 0.797518 0.458079 -0.943298
H192  H     H_    0.557438 0.755185 0.477500 0.255446
H193  H     H_    0.486822 0.775311 0.442307 0.240923
H194  H     H_    0.579173 0.808925 0.437139 0.235822
C239  C     C_3   0.799726 0.454546 0.542061 -0.937069
H195  H     H_    0.813636 0.411456 0.563434 0.236598
H196  H     H_    0.774667 0.501478 0.557336 0.238661
H197  H     H_    0.758940 0.428493 0.522866 0.254453
C240  C     C_3   0.205318 0.505833 0.457860 -0.941814
H198  H     H_    0.202768 0.460402 0.436623 0.237181
H199  H     H_    0.217531 0.557434 0.442404 0.240018
H200  H     H_    0.251478 0.491280 0.477049 0.254430
C241  C     C_3   0.013619 0.704955 0.042155 -0.942380
H201  H     H_    0.968070 0.704197 0.063360 0.236935
H202  H     H_    0.065625 0.715106 0.057653 0.240542
H203  H     H_    0.000965 0.751675 0.022969 0.254413
C242  C     C_3   0.946786 0.301652 0.957948 -0.936709
H204  H     H_    0.904386 0.317243 0.936512 0.236309
H205  H     H_    0.992723 0.274652 0.942751 0.238829
H206  H     H_    0.918989 0.262021 0.977140 0.254389
C243  C     C_3   0.294592 0.000478 0.042132 -0.941470
H207  H     H_    0.298338 0.955174 0.063396 0.237024
H208  H     H_    0.280979 0.051764 0.057556 0.239881
H209  H     H_    0.248844 0.984647 0.022945 0.254324
C244  C     C_3   0.701390 0.959694 0.957932 -0.937659
H210  H     H_    0.688613 0.916262 0.936556 0.236676
H211  H     H_    0.725236 0.007265 0.942661 0.238650
H212  H     H_    0.742845 0.934703 0.977126 0.254440
C245  C     C_3   0.986286 0.295051 0.042154 -0.942381
H213  H     H_    0.998884 0.248318 0.022967 0.254419
H214  H     H_    0.031859 0.295783 0.063345 0.236935
H215  H     H_    0.934290 0.284939 0.057669 0.240538
C246  C     C_3   0.053124 0.698368 0.957948 -0.936709
H216  H     H_    0.080870 0.738032 0.977142 0.254394
H217  H     H_    0.095557 0.682793 0.936528 0.236311
H218  H     H_    0.007185 0.725327 0.942732 0.238818
C247  C     C_3   0.705408 0.999532 0.042132 -0.941470
H219  H     H_    0.701659 0.044832 0.063398 0.237024
H220  H     H_    0.719028 0.948244 0.057553 0.239884
H221  H     H_    0.751153 0.015373 0.022945 0.254323
C248  C     C_3   0.298612 0.040315 0.957932 -0.937661
H222  H     H_    0.311391 0.083742 0.936553 0.236675
H223  H     H_    0.274759 0.992744 0.942664 0.238654
H224  H     H_    0.257162 0.065315 0.977126 0.254439

loop_
_geom_bond_atom_site_label_1
_geom_bond_atom_site_label_2
_geom_bond_distance
_ccdc_geom_bond_type
C213  H100  1.111401 S    
C219  H122  1.110720 S    
Zn4   O4    1.952041 S    
C2    C5    1.413182 A    
C244  H210  1.110375 S    
H27   C117  1.082641 S    
O51   C69   1.284304 A    
C39   C61   1.459339 S    
C153  C185  1.433353 A    
C96   C128  1.402966 A    
C204  H62   1.110778 S    
Zn6   O43   1.943229 S    
C37   C63   1.459078 S    
Zn13  O28   1.943230 S    
C226  H150  1.110754 S    
C240  H200  1.107764 S    
O40   C74   1.279016 A    
Zn14  O27   1.943229 S    
C23   H39   1.081072 S    
Zn8   O37   1.943305 S    
C160  C192  1.419789 A    
C161  C193  1.433438 A    
C215  H107  1.110367 S    
C25   C53   1.400258 A    
C214  H103  1.110121 S    
C245  H215  1.110467 S    
N30   C230  1.447350 S    
O22   C66   1.278935 A    
C9    C14   1.413399 A    
C242  H206  1.107939 S    
C94   C155  1.428993 A    
H16   C130  1.082866 S    
C224  H142  1.110703 S    
Zn3   O42   1.943305 S    
C99   C131  1.401109 A    
C65   C191  1.471722 S    
O50   C72   1.278967 A    
O6    C58   1.282783 A    
C14   C54   1.418372 A    
C246  H217  1.110372 S    
C82   N2    1.428340 S    
C181  C187  1.433119 A    
C19   C47   1.400350 A    
C182  C188  1.419708 A    
C29   C37   1.392381 A    
C183  C185  1.433241 A    
C178  C192  1.419710 A    
N25   C225  1.446692 S    
C28   C40   1.392727 A    
O44   C78   1.279015 A    
N17   C217  1.446690 S    
H12   C134  1.082893 S    
C145  C146  1.400268 A    
C180  C190  1.419761 A    
C18   H34   1.081098 S    
C84   N4    1.428351 S    
C167  C199  1.433385 A    
N7    C207  1.446693 S    
N32   C232  1.447332 S    
C83   C115  1.401178 A    
C208  H80   1.111247 S    
C232  H175  1.110153 S    
H5    C139  1.082648 S    
C225  H146  1.110720 S    
C173  C180  1.399848 A    
Zn15  O22   1.943306 S    
O9    C57   1.282917 A    
C211  H90   1.110718 S    
O21   C65   1.284260 A    
C8    C240  1.520569 S    
C110  C142  1.402980 A    
C50   C150  1.419798 A    
C210  H88   1.111244 S    
O11   C59   1.282990 A    
C235  H184  1.110335 S    
O19   C63   1.282767 A    
H9    C135  1.082644 S    
C248  H224  1.107951 S    
C245  H213  1.107771 S    
C81   N1    1.426893 S    
C96   C153  1.429259 A    
O15   C63   1.282766 A    
C38   C64   1.459738 S    
Zn4   O46   1.943251 S    
C102  C134  1.402991 A    
Zn12  O30   1.943251 S    
C86   N6    1.428340 S    
C207  H74   1.110718 S    
H1    C143  1.082653 S    
C220  H128  1.111275 S    
C175  C178  1.399852 A    
C229  H163  1.110367 S    
C15   C247  1.520595 S    
C1    C233  1.520290 S    
H22   C124  1.082898 S    
C26   C54   1.400501 A    
C176  C194  1.419764 A    
N26   C226  1.447353 S    
O24   C68   1.279002 A    
C230  H167  1.110144 S    
O35   C79   1.284203 A    
N13   H97   1.031719 S    
Zn1   O47   1.943284 S    
C224  H144  1.111273 S    
H26   C120  1.082897 S    
Zn2   O39   1.943230 S    
Zn3   O45   1.943252 S    
C91   C123  1.401116 A    
C227  H154  1.110720 S    
C204  H64   1.111251 S    
C31   C39   1.392558 A    
C226  H152  1.111247 S    
C21   C33   1.393010 A    
C106  N26   1.428334 S    
C52   C152  1.419794 A    
Zn15  O10   1.939963 S    
C19   H35   1.081070 S    
C1    C41   1.418243 A    
C155  C166  1.399785 A    
C3    C43   1.418314 A    
Zn3   O14   1.939963 S    
C30   C38   1.392654 A    
C95   C127  1.401112 A    
C115  C126  1.390680 A    
Zn5   O44   1.943230 S    
C20   H36   1.081156 S    
C240  H198  1.110391 S    
C93   C125  1.401099 A    
C243  H208  1.110475 S    
C113  C128  1.390604 A    
N9    H81   1.031720 S    
C22   H38   1.081103 S    
C26   H42   1.081121 S    
C233  H177  1.110658 S    
C104  C177  1.428921 A    
C45   C145  1.419645 A    
C209  H84   1.111401 S    
C29   C49   1.400254 A    
C222  H134  1.110717 S    
N22   C222  1.447437 S    
C31   H47   1.081183 S    
C24   C36   1.392456 A    
C31   C51   1.400081 A    
N4    H61   1.032081 S    
C168  C200  1.419804 A    
C154  C186  1.419744 A    
C206  H72   1.111245 S    
C228  H158  1.110745 S    
C95   C154  1.426435 A    
C244  H211  1.110426 S    
N8    H77   1.032086 S    
N24   C224  1.447462 S    
C100  C132  1.402980 A    
C234  H181  1.108033 S    
Zn12  O1    1.952041 S    
C224  H143  1.110121 S    
C212  H95   1.110159 S    
O8    C60   1.282871 A    
C72   C190  1.454178 S    
C201  H51   1.110371 S    
C218  H118  1.110700 S    
C73   C199  1.471511 S    
H29   C115  1.082638 S    
N18   H117  1.032088 S    
C217  H114  1.110719 S    
C163  C195  1.433385 A    
C228  H160  1.111252 S    
N12   C212  1.447324 S    
N15   H105  1.031726 S    
C118  C123  1.390608 A    
N20   C220  1.447460 S    
C109  N29   1.426882 S    
C247  H219  1.110390 S    
C55   C151  1.419874 A    
C86   C118  1.402974 A    
C105  C176  1.426430 A    
C149  C150  1.400512 A    
N29   H161  1.031714 S    
C106  C175  1.429307 A    
C85   N5    1.426893 S    
C34   C60   1.459507 S    
C221  H131  1.110370 S    
C101  C180  1.426431 A    
H20   C126  1.082890 S    
C76   C194  1.454072 S    
C102  C179  1.429034 A    
C179  C189  1.433224 A    
H3    C141  1.082641 S    
C103  C178  1.426435 A    
C83   N3    1.426888 S    
H6    C140  1.082902 S    
C136  C137  1.390693 A    
C91   C158  1.426435 A    
C202  H55   1.110145 S    
Zn9   O12   1.939967 S    
C233  H179  1.110315 S    
C22   C34   1.392881 A    
C66   C192  1.454227 S    
H13   C131  1.082644 S    
C82   C167  1.429312 A    
Zn5   O1    1.952084 S    
Zn9   O4    1.952083 S    
N31   C231  1.446696 S    
C217  H115  1.110370 S    
Zn10  O3    1.952086 S    
Zn11  O26   1.943305 S    
C173  C195  1.433361 A    
C40   C62   1.459775 S    
O36   C80   1.278945 A    
C174  C196  1.419665 A    
O39   C73   1.284252 A    
C223  H140  1.111402 S    
C175  C193  1.433406 A    
C41   C145  1.419644 A    
C237  H189  1.110301 S    
C79   C197  1.471548 S    
C155  C187  1.433152 A    
C84   C165  1.429393 A    
N3    C203  1.446698 S    
C162  C194  1.419773 A    
C103  N23   1.426887 S    
C120  C121  1.390586 A    
C20   C36   1.392464 A    
C30   C50   1.400496 A    
C107  C174  1.426425 A    
Zn4   O13   1.939963 S    
N5    C205  1.446701 S    
Zn5   O16   1.939967 S    
C32   C40   1.392728 A    
Zn1   O40   1.943229 S    
O34   C78   1.278892 A    
Zn6   O15   1.939967 S    
O25   C69   1.284258 A    
C174  C179  1.399711 A    
C48   C148  1.419843 A    
C156  C188  1.419790 A    
C5    C45   1.418247 A    
C12   C52   1.418352 A    
C109  C141  1.401197 A    
C129  C144  1.390616 A    
O10   C58   1.282782 A    
C211  H92   1.111401 S    
C231  H171  1.110367 S    
C85   C117  1.401116 A    
C99   C182  1.426434 A    
C80   C198  1.454068 S    
C88   C161  1.429386 A    
C13   C245  1.520632 S    
N2    C202  1.447345 S    
O7    C59   1.282999 A    
C222  H136  1.111276 S    
C241  H201  1.110397 S    
Zn10  O23   1.943230 S    
C51   C151  1.419875 A    
C54   C150  1.419801 A    
C81   C168  1.426440 A    
C111  N31   1.426905 S    
N20   H125  1.032051 S    
C4    C7    1.413312 A    
Zn3   O3    1.952040 S    
C24   H40   1.081160 S    
C238  H192  1.108068 S    
C25   H41   1.081224 S    
Zn9   O24   1.943229 S    
C108  N28   1.428347 S    
C114  C127  1.390611 A    
C236  H187  1.110424 S    
Zn4   O41   1.943306 S    
N19   C219  1.446690 S    
O28   C72   1.279000 A    
Zn12  O25   1.943306 S    
O29   C73   1.284246 A    
Zn7   O49   1.943251 S    
C8    C48   1.418229 A    
C218  H120  1.111239 S    
C205  H67   1.110371 S    
C135  C138  1.390607 A    
C230  H168  1.111247 S    
C18   C34   1.392887 A    
C247  H221  1.107857 S    
C21   H37   1.081112 S    
C213  H99   1.110370 S    
C207  H75   1.110369 S    
Zn9   O31   1.943284 S    
Zn10  O32   1.943282 S    
C10   C50   1.418372 A    
Zn7   O18   1.939963 S    
C160  C161  1.399922 A    
Zn11  O29   1.943252 S    
H23   C121  1.082640 S    
N32   H173  1.032085 S    
C97   C129  1.401129 A    
N27   C227  1.446699 S    
H30   C116  1.082903 S    
C92   N12   1.428296 S    
H32   C114  1.082900 S    
C216  H110  1.110759 S    
C56   C152  1.419797 A    
C214  H102  1.110715 S    
C119  C122  1.390693 A    
Zn2   O2    1.952086 S    
C112  N32   1.428347 S    
H2    C144  1.082899 S    
C242  H205  1.110372 S    
C165  C197  1.433433 A    
N16   C216  1.447325 S    
C70   C188  1.454226 S    
C35   C57   1.459755 S    
C203  H60   1.111400 S    
C107  N27   1.426896 S    
H24   C122  1.082865 S    
C223  H138  1.110717 S    
C6    C46   1.418092 A    
C176  C177  1.399741 A    
C43   C147  1.419739 A    
N23   H137  1.031724 S    
C237  H191  1.108018 S    
C229  H162  1.110720 S    
O31   C75   1.284204 A    
C81   C113  1.401116 A    
C239  H195  1.110381 S    
C157  C189  1.433361 A    
Zn16  O9    1.939963 S    
N21   H129  1.031716 S    
C94   N14   1.428281 S    
C156  C165  1.399921 A    
O13   C61   1.282807 A    
N17   H113  1.031716 S    
C74   C200  1.454064 S    
N28   H157  1.032082 S    
N29   C229  1.446692 S    
C164  C196  1.419805 A    
Zn7   O38   1.943306 S    
N7    H73   1.031720 S    
C17   C33   1.393001 A    
C151  C152  1.400316 A    
C208  H79   1.110169 S    
C206  H70   1.110755 S    
O41   C79   1.284294 A    
Zn8   O50   1.943252 S    
O42   C80   1.278948 A    
N18   C218  1.447449 S    
C241  H203  1.107772 S    
C210  H87   1.110106 S    
Zn13  O35   1.943283 S    
C235  H183  1.110376 S    
C68   C186  1.454178 S    
C248  H223  1.110425 S    
C27   C55   1.400085 A    
N10   H85   1.032080 S    
Zn15  O33   1.943251 S    
H17   C127  1.082641 S    
C238  H194  1.110659 S    
O48   C66   1.279032 A    
Zn8   O4    1.952042 S    
Zn12  O5    1.939963 S    
N1    C201  1.446700 S    
Zn13  O8    1.939967 S    
Zn14  O7    1.939967 S    
C4    C44   1.418214 A    
C109  C172  1.426432 A    
O12   C60   1.282875 A    
C158  C163  1.399858 A    
C220  H127  1.110121 S    
C13   C53   1.418285 A    
C4    C236  1.520563 S    
C225  H148  1.111402 S    
C1    C6    1.413231 A    
C105  N25   1.426883 S    
Zn15  O2    1.952038 S    
C107  C139  1.401167 A    
C89   N9    1.426886 S    
C226  H151  1.110146 S    
N24   H141  1.032050 S    
N19   H121  1.031725 S    
H28   C118  1.082902 S    
C230  H166  1.110757 S    
H11   C133  1.082637 S    
C75   C193  1.471548 S    
C204  H63   1.110168 S    
C47   C147  1.419743 A    
C88   C120  1.402958 A    
C153  C168  1.399891 A    
C154  C167  1.399858 A    
Zn6   O52   1.943284 S    
C111  C143  1.401154 A    
C90   N10   1.428291 S    
C131  C142  1.390607 A    
C29   H45   1.081227 S    
C92   C124  1.402963 A    
C214  H104  1.111255 S    
N6    H69   1.032089 S    
C228  H159  1.110156 S    
C49   C149  1.419940 A    
C24   C44   1.400160 A    
C84   C116  1.402956 A    
H8    C138  1.082899 S    
N25   H145  1.031711 S    
N2    H53   1.032087 S    
O20   C64   1.282934 A    
Zn11  O6    1.939963 S    
C203  H58   1.110718 S    
O14   C62   1.282920 A    
C243  H207  1.110391 S    
C219  H123  1.110367 S    
O30   C74   1.278893 A    
C10   C242  1.520356 S    
C101  C133  1.401127 A    
O27   C71   1.284158 A    
C231  H172  1.111399 S    
C215  H108  1.111401 S    
C98   C130  1.403003 A    
C7    C239  1.520383 S    
C5    C237  1.520302 S    
C209  H83   1.110368 S    
C96   N16   1.428295 S    
C172  C198  1.419764 A    
C105  C137  1.401196 A    
C27   C39   1.392557 A    
C108  C173  1.429293 A    
C91   N11   1.426888 S    
Zn16  O34   1.943252 S    
C177  C191  1.433113 A    
C216  H112  1.111272 S    
N4    C204  1.447286 S    
C212  H94   1.110763 S    
C172  C181  1.399738 A    
O49   C71   1.284396 A    
C2    C234  1.520405 S    
C159  C191  1.433162 A    
C100  C181  1.428919 A    
C89   C160  1.426437 A    
C11   C16   1.413262 A    
N21   C221  1.446688 S    
C90   C159  1.428979 A    
C12   C15   1.413269 A    
C93   N13   1.426882 S    
C2    C42   1.418111 A    
C171  C182  1.399853 A    
C235  H185  1.107860 S    
N14   H101  1.032064 S    
C85   C164  1.426439 A    
C169  C199  1.433359 A    
C86   C163  1.429311 A    
O37   C75   1.284293 A    
C170  C200  1.419656 A    
C87   C162  1.426432 A    
O38   C76   1.278947 A    
C116  C125  1.390583 A    
C94   C126  1.402984 A    
C90   C122  1.403001 A    
C3    C8    1.413314 A    
C132  C141  1.390693 A    
C240  H199  1.110428 S    
C227  H156  1.111398 S    
C46   C146  1.419629 A    
C11   C243  1.520597 S    
C17   C45   1.400047 A    
C69   C187  1.471724 S    
C229  H164  1.111400 S    
C202  H54   1.110754 S    
Zn1   O20   1.939967 S    
C211  H91   1.110367 S    
Zn2   O19   1.939967 S    
C201  H50   1.110718 S    
Zn6   O2    1.952084 S    
H10   C136  1.082890 S    
H7    C137  1.082642 S    
H18   C128  1.082897 S    
C239  H197  1.107841 S    
N13   C213  1.446686 S    
Zn14  O36   1.943284 S    
O16   C64   1.282936 A    
Zn8   O17   1.939963 S    
C27   H43   1.081179 S    
C223  H139  1.110365 S    
C95   N15   1.426888 S    
C97   N17   1.426880 S    
C205  H66   1.110717 S    
C99   N19   1.426888 S    
C3    C235  1.520378 S    
C157  C164  1.399889 A    
N3    H57   1.031718 S    
C16   C56   1.418355 A    
C215  H106  1.110719 S    
C221  H130  1.110720 S    
C159  C162  1.399797 A    
C108  C140  1.402965 A    
C88   N8    1.428352 S    
Zn1   O1    1.952083 S    
C213  H98   1.110719 S    
C87   C119  1.401159 A    
C110  N30   1.428337 S    
O43   C77   1.284250 A    
C103  C135  1.401110 A    
C184  C186  1.419761 A    
C232  H174  1.110744 S    
C83   C166  1.426433 A    
C17   H33   1.081123 S    
C166  C198  1.419785 A    
C133  C140  1.390615 A    
C234  H180  1.110661 S    
C243  H209  1.107856 S    
N9    C209  1.446687 S    
Zn5   O51   1.943283 S    
C89   C121  1.401098 A    
H19   C125  1.082638 S    
C227  H155  1.110366 S    
C171  C197  1.433409 A    
C231  H170  1.110717 S    
C21   C41   1.400076 A    
C12   C244  1.520431 S    
N31   H169  1.031727 S    
C23   C43   1.400347 A    
C222  H135  1.110132 S    
Zn16  O21   1.943305 S    
C104  C136  1.402979 A    
C130  C143  1.390686 A    
C158  C190  1.419743 A    
C33   C59   1.459892 S    
C110  C171  1.429308 A    
N10   C210  1.447474 S    
C111  C170  1.426431 A    
N30   H165  1.032088 S    
C169  C184  1.399846 A    
C32   C52   1.400243 A    
C170  C183  1.399723 A    
C32   H48   1.081082 S    
O18   C62   1.282919 A    
C23   C35   1.392674 A    
C212  H96   1.111273 S    
C25   C37   1.392382 A    
C246  H218  1.110369 S    
C117  C124  1.390604 A    
C201  H52   1.111400 S    
O52   C70   1.279032 A    
C218  H119  1.110136 S    
H31   C113  1.082641 S    
C16   C248  1.520434 S    
C87   N7    1.426894 S    
C67   C185  1.471634 S    
N15   C215  1.446691 S    
C245  H214  1.110394 S    
O5    C57   1.282918 A    
C247  H220  1.110475 S    
C9    C241  1.520625 S    
O47   C65   1.284299 A    
C219  H124  1.111401 S    
N11   C211  1.446691 S    
C28   C56   1.400234 A    
C93   C156  1.426439 A    
C92   C157  1.429261 A    
Zn13  O4    1.952084 S    
C106  C138  1.402981 A    
C102  N22   1.428260 S    
C221  H132  1.111400 S    
C233  H178  1.108020 S    
Zn14  O3    1.952084 S    
O32   C76   1.278948 A    
N23   C223  1.446691 S    
N27   H153  1.031725 S    
O17   C61   1.282809 A    
C104  N24   1.428259 S    
C20   C48   1.400165 A    
C202  H56   1.111246 S    
C28   H44   1.081087 S    
H4    C142  1.082898 S    
Zn16  O1    1.952042 S    
N6    C206  1.447345 S    
C209  H82   1.110719 S    
C77   C195  1.471510 S    
C53   C149  1.419947 A    
N26   H149  1.032087 S    
C78   C196  1.454067 S    
N16   H109  1.032088 S    
C242  H204  1.110370 S    
C217  H116  1.111401 S    
N8    C208  1.447287 S    
C203  H59   1.110367 S    
N11   H89   1.031725 S    
C14   C246  1.520362 S    
O26   C70   1.278935 A    
C246  H216  1.107931 S    
C237  H190  1.110646 S    
C19   C35   1.392672 A    
C100  N20   1.428258 S    
C216  H111  1.110162 S    
C22   C42   1.400012 A    
O33   C77   1.284247 A    
C30   H46   1.081123 S    
C101  N21   1.426880 S    
C225  H147  1.110365 S    
C236  H186  1.110392 S    
C44   C148  1.419838 A    
C26   C38   1.392652 A    
C232  H176  1.111254 S    
Zn10  O11   1.939967 S    
Zn7   O3    1.952038 S    
Zn11  O2    1.952040 S    
C244  H212  1.107947 S    
H15   C129  1.082636 S    
C9    C49   1.418275 A    
C147  C148  1.400416 A    
N28   C228  1.447332 S    
C71   C189  1.471631 S    
C11   C51   1.418275 A    
C208  H78   1.110778 S    
C6    C238  1.520378 S    
C18   C46   1.400029 A    
C234  H182  1.110309 S    
C98   N18   1.428252 S    
C239  H196  1.110333 S    
C15   C55   1.418273 A    
N22   H133  1.032069 S    
C112  C144  1.402964 A    
C210  H86   1.110686 S    
N14   C214  1.447452 S    
C42   C146  1.419641 A    
C248  H222  1.110372 S    
H21   C123  1.082641 S    
C112  C169  1.429295 A    
O23   C67   1.284161 A    
C238  H193  1.110338 S    
C134  C139  1.390675 A    
N1    H49   1.031724 S    
H25   C119  1.082642 S    
C236  H188  1.107766 S    
H14   C132  1.082889 S    
C97   C184  1.426430 A    
Zn2   O48   1.943282 S    
C7    C47   1.418315 A    
C98   C183  1.429008 A    
C241  H202  1.110468 S    
C207  H76   1.111401 S    
C36   C58   1.459232 S    
C10   C13   1.413394 A    
C206  H71   1.110147 S    
C220  H126  1.110705 S    
C205  H68   1.111399 S    
C82   C114  1.402974 A    
N5    H65   1.031726 S    
O45   C67   1.284395 A    
O46   C68   1.278966 A    
N12   H93   1.032085 S    
