data_mof_unit_21341.cif
_audit_creation_date              2013-03-05T16:36:15-0500
_audit_creation_method            fapswitch 2.2
_symmetry_space_group_name_H-M    P1
_symmetry_Int_Tables_number       1
_space_group_crystal_system       triclinic
_cell_length_a                    27.780588
_cell_length_b                    9.068644
_cell_length_c                    7.77678
_cell_angle_alpha                 89.962
_cell_angle_beta                  90.092492
_cell_angle_gamma                 90.042806
_cell_volume                      1959.21825287

loop_
_atom_site_label
_atom_site_type_symbol
_atom_site_description
_atom_site_fract_x
_atom_site_fract_y
_atom_site_fract_z
_atom_type_partial_charge
O1    O     O_R   0.500000 0.288390 0.642760 -0.577371
O2    O     O_R   0.500000 0.711610 0.357240 -0.578671
O3    O     O_R   0.500000 0.711610 0.642760 -0.577429
O4    O     O_R   0.500000 0.288390 0.357240 -0.578685
C1    C     C_R   0.499984 0.220024 0.500034 0.845396
C2    C     C_R   0.499996 0.779976 0.499964 0.845738
O5    O     O_R   0.430260 0.500000 0.642770 -0.585408
O6    O     O_R   0.569740 0.500000 0.357230 -0.583552
O7    O     O_R   0.569740 0.500000 0.642770 -0.585141
O8    O     O_R   0.430260 0.500000 0.357230 -0.583343
C3    C     C_R   0.407254 0.498753 0.499734 0.842679
C4    C     C_R   0.592739 0.501220 0.500004 0.842723
Cu1   Cu    Cu3+1 0.500000 0.500000 0.669080 0.995814
Cu2   Cu    Cu3+1 0.500000 0.500000 0.330920 0.995210
C5    C     C_R   0.176722 0.358778 0.494074 0.554879
C6    C     C_R   0.823130 0.638330 0.504154 0.542640
C7    C     C_R   0.178526 0.619857 0.456860 0.588132
C8    C     C_R   0.821075 0.379937 0.447014 0.591918
O9    O     O_2   0.200475 0.231070 0.521227 -0.555669
O10   O     O_2   0.799502 0.763912 0.542907 -0.568809
O11   O     O_2   0.204091 0.745706 0.440993 -0.527536
O12   O     O_2   0.795280 0.255949 0.419597 -0.541483
N1    N     N_R   0.201852 0.488006 0.477563 -0.436893
N2    N     N_R   0.797952 0.510467 0.478100 -0.431174
C9    C     C_R   0.277501 0.557767 0.622314 0.420739
C10   C     C_R   0.722622 0.439535 0.622332 0.430266
C11   C     C_R   0.280234 0.411721 0.358477 0.435389
C12   C     C_R   0.719586 0.588914 0.361322 0.416805
C13   C     C_R   0.327739 0.559452 0.628451 -0.308732
C14   C     C_R   0.672298 0.438570 0.628698 -0.322830
C15   C     C_R   0.330769 0.420915 0.362349 -0.346176
C16   C     C_R   0.669188 0.580655 0.364619 -0.336051
C17   C     C_R   0.253606 0.485722 0.485955 0.187592
C18   C     C_R   0.746309 0.512707 0.486911 0.204395
C19   C     C_R   0.101624 0.493258 0.466338 -0.053698
C20   C     C_R   0.898067 0.505285 0.466263 -0.049255
C21   C     C_R   0.126256 0.358629 0.485050 -0.030880
C22   C     C_R   0.873523 0.638976 0.493514 -0.033156
C23   C     C_R   0.128087 0.625124 0.452928 -0.051812
C24   C     C_R   0.871532 0.374301 0.444315 -0.042212
C25   C     C_R   0.100047 0.227382 0.497127 -0.152771
C26   C     C_R   0.899732 0.769623 0.512514 -0.155564
C27   C     C_R   0.103738 0.759088 0.435191 -0.162258
C28   C     C_R   0.895836 0.241051 0.419764 -0.169469
C29   C     C_R   0.354509 0.492422 0.497839 -0.138591
C30   C     C_R   0.645467 0.507342 0.498740 -0.137649
H1    H     H_    0.118085 0.122676 0.514973 0.179454
H2    H     H_    0.881734 0.873597 0.536025 0.181078
H3    H     H_    0.123273 0.861612 0.419869 0.177931
H4    H     H_    0.876262 0.139253 0.398812 0.180452
C31   C     C_R   0.973445 0.365274 0.450798 0.043056
C32   C     C_R   0.026201 0.633575 0.458067 0.042795
C33   C     C_R   0.975316 0.636491 0.472699 0.041345
C34   C     C_R   0.024362 0.361858 0.465417 0.041325
C35   C     C_R   0.949111 0.502382 0.462752 0.071802
C36   C     C_R   0.050558 0.496200 0.462792 0.072100
C37   C     C_R   0.945853 0.236192 0.424116 -0.208142
C38   C     C_R   0.053741 0.763536 0.438368 -0.204489
C39   C     C_R   0.949658 0.768865 0.500826 -0.209903
C40   C     C_R   0.050076 0.228637 0.486404 -0.209107
H5    H     H_    0.962078 0.130091 0.401197 0.131629
H6    H     H_    0.037464 0.870135 0.420006 0.128333
H7    H     H_    0.967409 0.873158 0.521077 0.129933
H8    H     H_    0.032303 0.123890 0.501727 0.127482
C41   C     C_1   0.499980 0.065415 0.500045 -0.179892
C42   C     C_1   0.499985 0.934586 0.499949 -0.179489
N3    N     N_1   0.500000 0.500000 0.076820 -0.050943
N4    N     N_1   0.500000 0.500000 0.923180 -0.050516
H9    H     H_    0.351697 0.371511 0.260332 0.172448
H10   H     H_    0.648590 0.632643 0.262910 0.172708
H11   H     H_    0.345715 0.617827 0.731778 0.178356
H12   H     H_    0.654334 0.379583 0.731453 0.175939
O13   O     O_3   0.255729 0.344830 0.223213 -0.628210
C43   C     C_3   0.273280 0.201093 0.187907 0.105249
H13   H     H_    0.242123 0.124185 0.189810 0.193318
H14   H     H_    0.299102 0.157773 0.285799 0.146970
C44   C     C_3   0.295537 0.196883 0.007784 -0.412863
H15   H     H_    0.266748 0.212214 0.910163 0.232297
H16   H     H_    0.321940 0.287994 0.992802 0.219181
C45   C     C_3   0.320859 0.050561 0.973733 -0.847946
H17   H     H_    0.350935 0.034678 0.066197 0.250746
H18   H     H_    0.335746 0.050521 0.841294 0.263918
H19   H     H_    0.295125 0.957537 0.985900 0.263756
O14   O     O_3   0.743398 0.657676 0.226680 -0.639696
C46   C     C_3   0.731629 0.809694 0.217135 0.102950
H20   H     H_    0.764918 0.873972 0.243148 0.206863
H21   H     H_    0.704297 0.847191 0.312787 0.146268
C47   C     C_3   0.714243 0.846806 0.035481 -0.402083
H22   H     H_    0.743190 0.820948 0.941734 0.242872
H23   H     H_    0.682191 0.778578 0.003771 0.217591
C48   C     C_3   0.701099 0.009645 0.018861 -0.833663
H24   H     H_    0.671193 0.037565 0.107689 0.248271
H25   H     H_    0.689378 0.033320 0.885081 0.269214
H26   H     H_    0.732728 0.079936 0.049108 0.266617
O15   O     O_3   0.251692 0.640101 0.739487 -0.561141
C49   C     C_3   0.237923 0.549457 0.878512 0.077718
H27   H     H_    0.268396 0.540236 0.970790 0.172245
H28   H     H_    0.227051 0.436601 0.836636 0.112175
C50   C     C_3   0.194393 0.617140 0.969082 -0.319882
H29   H     H_    0.163293 0.619300 0.878918 0.208042
H30   H     H_    0.184488 0.546846 0.080682 0.199154
C51   C     C_3   0.204499 0.773582 0.032021 -0.696927
H31   H     H_    0.236505 0.774624 0.117744 0.256195
H32   H     H_    0.172925 0.815098 0.104653 0.231679
H33   H     H_    0.210892 0.848613 0.921457 0.275623
O16   O     O_3   0.748908 0.358671 0.740355 -0.570504
C52   C     C_3   0.754918 0.439734 0.894435 0.100290
H34   H     H_    0.733921 0.385101 0.998035 0.170097
H35   H     H_    0.742224 0.556309 0.886767 0.115447
C53   C     C_3   0.808248 0.442748 0.945040 -0.329026
H36   H     H_    0.829171 0.500852 0.844007 0.206115
H37   H     H_    0.812513 0.505295 0.066891 0.214388
C54   C     C_3   0.828912 0.288205 0.970006 -0.734541
H38   H     H_    0.808333 0.227626 0.069779 0.256851
H39   H     H_    0.867002 0.296627 0.012431 0.225439
H40   H     H_    0.827720 0.225493 0.847429 0.285212

loop_
_geom_bond_atom_site_label_1
_geom_bond_atom_site_label_2
_geom_bond_distance
_ccdc_geom_bond_type
C38   H6    1.076863 S    
C12   O14   1.386930 S    
O13   C43   1.419177 S    
O15   C49   1.410898 S    
O3    C2    1.271480 A    
C10   O16   1.382451 S    
C33   C39   1.413903 A    
C34   C40   1.413217 A    
C44   H15   1.110582 S    
C11   C17   1.408681 A    
C5    O9    1.349685 S    
C7    N1    1.369724 A    
C2    C42   1.402104 S    
C43   H14   1.116568 S    
O1    C1    1.271724 A    
C19   C21   1.407381 A    
C22   C26   1.397963 A    
C46   C47   1.529585 S    
O16   C52   1.415779 S    
C49   C50   1.529582 S    
C51   H33   1.110572 S    
C7    C23   1.402347 A    
O7    Cu1   1.948518 S    
C53   H36   1.110550 S    
C5    C21   1.403628 A    
C20   C24   1.407858 A    
C8    C24   1.402886 A    
C27   C38   1.389824 A    
C10   C18   1.408223 A    
N1    C17   1.439290 S    
C43   C44   1.532594 S    
C49   H28   1.115522 S    
Cu2   N3    1.976079 S    
C31   C37   1.413999 A    
O3    Cu1   1.929766 S    
C6    O10   1.349409 S    
C54   H40   1.110771 S    
C44   H16   1.110641 S    
C12   C18   1.407187 A    
C6    N2    1.368752 A    
Cu1   Cu2   2.629797 S    
O4    Cu2   1.929767 S    
C52   H35   1.116222 S    
O2    C2    1.271714 A    
C45   H19   1.109488 S    
O5    C3    1.282050 A    
C53   H37   1.110854 S    
C33   C35   1.419036 A    
C9    C13   1.396452 A    
C34   C36   1.418780 A    
C43   H13   1.111295 S    
C46   H21   1.117173 S    
C11   C15   1.406570 A    
N3    N4    1.194825 T    
C12   C16   1.402304 A    
O14   C46   1.418940 S    
C1    C41   1.402095 S    
O8    Cu2   1.948521 S    
C48   H24   1.110837 S    
C27   H3    1.082800 S    
C16   H10   1.083415 S    
C46   H20   1.111161 S    
C7    O11   1.349468 S    
C13   C29   1.399385 A    
C19   C23   1.407182 A    
C48   H25   1.110506 S    
C15   H9    1.081911 S    
C50   H29   1.112011 S    
C47   C48   1.526817 S    
O5    Cu1   1.947864 S    
C28   C37   1.390598 A    
O6    C4    1.280187 A    
C49   H27   1.112083 S    
C25   H1    1.082730 S    
C26   H2    1.083385 S    
C51   H32   1.110191 S    
C53   C54   1.527062 S    
C32   C38   1.413010 A    
C10   C14   1.399010 A    
C4    C30   1.465871 S    
C50   H30   1.111349 S    
C47   H23   1.111381 S    
C9    O15   1.380480 S    
C52   C53   1.532511 S    
C8    N2    1.369044 A    
C3    C29   1.466416 S    
O1    Cu1   1.930037 S    
C52   H34   1.111479 S    
C32   C33   1.418655 A    
C54   H38   1.109543 S    
C44   C45   1.525852 S    
C28   H4    1.083355 S    
O6    Cu2   1.947861 S    
C19   C36   1.419135 A    
C8    O12   1.349766 S    
C16   C30   1.401725 A    
C14   C30   1.401227 A    
C25   C40   1.390640 A    
C45   H17   1.110850 S    
C26   C39   1.390123 A    
C14   H12   1.083555 S    
C37   H5    1.077904 S    
C39   H7    1.077843 S    
C40   H8    1.076886 S    
C31   C34   1.419247 A    
C20   C22   1.407748 A    
C20   C35   1.418620 A    
C48   H26   1.110137 S    
O4    C1    1.271466 A    
C5    N1    1.369716 A    
C45   H18   1.110492 S    
C31   C35   1.418886 A    
C21   C25   1.397991 A    
C51   H31   1.110486 S    
O2    Cu2   1.930036 S    
O7    C4    1.281912 A    
N2    C18   1.436589 S    
O8    C3    1.280235 A    
C24   C28   1.398027 A    
C50   C51   1.526777 S    
C47   H22   1.111570 S    
C23   C27   1.397571 A    
C41   C42   1.186440 T    
C15   C29   1.401337 A    
C9    C17   1.410689 A    
C54   H39   1.110490 S    
C11   O13   1.391352 S    
C32   C36   1.418572 A    
C6    C22   1.402521 A    
C13   H11   1.083601 S    
Cu1   N4    1.976079 S    
