data_mof_unit_50157.cif
_audit_creation_date              2013-03-05T15:53:43-0500
_audit_creation_method            fapswitch 2.2
_symmetry_space_group_name_H-M    P1
_symmetry_Int_Tables_number       1
_space_group_crystal_system       triclinic
_cell_length_a                    14.905767
_cell_length_b                    14.760124
_cell_length_c                    17.011863
_cell_angle_alpha                 108.830199
_cell_angle_beta                  105.98966
_cell_angle_gamma                 107.82896
_cell_volume                      3067.61914592

loop_
_atom_site_label
_atom_site_type_symbol
_atom_site_description
_atom_site_fract_x
_atom_site_fract_y
_atom_site_fract_z
_atom_type_partial_charge
C1    C     C_R   0.088897 0.271627 0.037198 -0.137592
H1    H     H_    0.166650 0.284180 0.073104 0.094836
N1    N     N_R   0.055640 0.348550 0.045600 -0.038368
C2    C     C_R   0.933989 0.518157 0.747077 -0.113018
H2    H     H_    0.854738 0.496491 0.705113 0.086858
N2    N     N_R   0.960830 0.507850 0.823710 -0.039194
C3    C     C_R   0.717557 0.219752 0.826468 -0.120714
H3    H     H_    0.688459 0.166194 0.853676 0.154750
N3    N     N_R   0.811290 0.303400 0.871650 -0.050917
C4    C     C_R   0.256773 0.532986 0.947194 -0.141183
H4    H     H_    0.263353 0.563141 0.898312 0.110850
N4    N     N_R   0.205180 0.552990 0.997660 -0.044786
C5    C     C_R   0.726411 0.317911 0.751753 -0.123674
H5    H     H_    0.706790 0.360437 0.713908 0.087641
N5    N     N_R   0.814810 0.361830 0.823710 -0.041486
C6    C     C_R   0.261754 0.445144 0.031830 -0.126773
H6    H     H_    0.284026 0.402015 0.067591 0.085438
N6    N     N_R   0.201660 0.494570 0.045600 -0.038517
C7    C     C_R   0.105649 0.604990 0.823029 -0.149547
H7    H     H_    0.184324 0.664027 0.849492 0.089844
N7    N     N_R   0.068420 0.560530 0.871650 -0.039135
C8    C     C_R   0.917477 0.191003 0.956204 -0.121160
H8    H     H_    0.838214 0.133518 0.912337 0.096359
N8    N     N_R   0.948050 0.295860 0.997660 -0.041785
C9    C     C_R   0.004704 0.172145 0.977064 0.062092
C10   C     C_R   0.023092 0.580545 0.744816 0.059070
C11   C     C_R   0.661058 0.228813 0.751856 0.116349
C12   C     C_R   0.293051 0.463931 0.966450 0.067987
C13   C     C_R   0.251157 0.700372 0.263573 -0.228874
H9    H     H_    0.275258 0.673531 0.314196 0.138844
N9    N     N_R   0.185190 0.638170 0.176290 -0.070921
C14   C     C_R   0.705393 0.501633 0.918633 -0.152579
H10   H     H_    0.683394 0.524533 0.864728 0.098350
N10   N     N_R   0.798340 0.505430 0.954400 -0.038633
C15   C     C_R   0.888437 0.460668 0.186980 -0.150405
H11   H     H_    0.806210 0.433205 0.167622 0.102312
N11   N     N_R   0.931580 0.439470 0.128350 -0.044644
C16   C     C_R   0.079927 0.799899 0.002400 -0.087292
H12   H     H_    0.157690 0.852075 0.017434 0.157199
N12   N     N_R   0.051950 0.704140 0.002340 -0.044313
C17   C     C_R   0.909377 0.718863 0.935833 -0.113276
H13   H     H_    0.829673 0.697128 0.894583 0.096773
N13   N     N_R   0.944360 0.651450 0.954400 -0.046393
C18   C     C_R   0.060839 0.539682 0.265124 -0.081910
H14   H     H_    0.136998 0.577814 0.319190 0.160494
N14   N     N_R   0.039170 0.492150 0.176290 -0.053927
C19   C     C_R   0.246789 0.798862 0.188848 0.598908
N15   N     N_R   0.188710 0.696600 0.128350 -0.099013
C20   C     C_R   0.698689 0.406811 0.996573 -0.130237
H15   H     H_    0.670363 0.344826 0.016248 0.090262
N16   N     N_R   0.794820 0.447010 0.002340 -0.039358
Ni1   Ni    Ni4+2 0.119330 0.493420 0.109950 0.206480
Ni2   Ni    Ni4+2 0.880670 0.506580 0.890050 0.203035
Ni3   Ni    Ni4+2 0.872590 0.372590 0.000000 0.213048
Ni4   Ni    Ni4+2 0.127410 0.627410 0.000000 0.224629
C21   C     C_R   0.288090 0.803175 0.274322 -0.043506
C22   C     C_R   0.640232 0.439134 0.943122 0.086843
C23   C     C_R   0.967852 0.526065 0.273803 0.114997
C24   C     C_R   0.992953 0.814304 0.965305 0.010026
C25   C     C_R   0.393185 0.458690 0.871080 0.164565
C26   C     C_R   0.353669 0.420616 0.925732 0.037151
C27   C     C_R   0.385654 0.349899 0.950419 -0.208515
H16   H     H_    0.355261 0.315152 0.989533 0.132854
C28   C     C_R   0.471760 0.339176 0.940109 -0.210402
H17   H     H_    0.501386 0.294043 0.969759 0.130434
C29   C     C_R   0.528735 0.403550 0.909280 0.037265
C30   C     C_R   0.480472 0.450713 0.863283 0.153017
C31   C     C_3   0.521734 0.557670 0.864670 -0.516285
C32   C     C_3   0.426333 0.566222 0.872943 -0.515909
H18   H     H_    0.593502 0.617732 0.926662 0.203509
H19   H     H_    0.524527 0.552325 0.798755 0.190976
H20   H     H_    0.444950 0.630878 0.939511 0.201127
H21   H     H_    0.374013 0.565697 0.811730 0.194051
C33   C     C_R   0.955101 0.566768 0.359162 -0.056269
C34   C     C_R   0.026297 0.621301 0.676918 0.132336
C35   C     C_R   0.124585 0.703147 0.606240 -0.146147
C36   C     C_R   0.120707 0.686871 0.681742 -0.211505
C37   C     C_R   0.934472 0.584248 0.600533 -0.221168
C38   C     C_R   0.938538 0.593955 0.523149 0.112427
C39   C     C_R   0.034885 0.649907 0.524415 -0.004074
C40   C     C_R   0.041319 0.641142 0.442196 0.627770
C41   C     C_R   0.857601 0.521881 0.359842 -0.248223
C42   C     C_R   0.849081 0.537508 0.441732 -0.209175
H22   H     H_    0.788569 0.468229 0.297598 0.147783
H23   H     H_    0.199139 0.748678 0.609513 0.168063
H24   H     H_    0.774288 0.496242 0.440393 0.141155
H25   H     H_    0.192454 0.720385 0.741195 0.118140
H26   H     H_    0.860143 0.537007 0.596065 0.112212
C43   C     C_R   0.554400 0.160085 0.683075 -0.058733
C44   C     C_R   0.352886 0.897269 0.359857 0.051180
C45   C     C_R   0.467628 0.084289 0.439362 0.596568
C46   C     C_R   0.418187 0.989043 0.360860 -0.325958
C47   C     C_R   0.344838 0.897030 0.439719 -0.206082
C48   C     C_R   0.403939 0.988568 0.521331 0.054496
C49   C     C_R   0.463885 0.082898 0.520637 0.004998
C50   C     C_R   0.529147 0.171112 0.602312 -0.302225
C51   C     C_R   0.486684 0.072219 0.686708 0.623671
C52   C     C_R   0.409680 0.986066 0.604203 -0.324818
H27   H     H_    0.572849 0.242317 0.599659 0.188340
H28   H     H_    0.362170 0.914152 0.604584 0.162763
H29   H     H_    0.428720 0.987948 0.300160 0.196682
H30   H     H_    0.295328 0.825244 0.438870 0.203626
C53   C     C_R   0.100866 0.060563 0.943006 0.149242
C54   C     C_R   0.007304 0.068311 0.933314 0.032980
C55   C     C_R   0.915071 0.975185 0.870236 -0.193307
H31   H     H_    0.839911 0.973205 0.862197 0.129788
C56   C     C_R   0.918558 0.886045 0.809739 -0.188260
H32   H     H_    0.847286 0.818646 0.757484 0.131132
C57   C     C_R   0.013710 0.887462 0.811960 0.034709
C58   C     C_R   0.103699 0.971842 0.883950 0.159998
C59   C     C_3   0.201204 0.035882 0.882145 -0.494810
C60   C     C_3   0.197988 0.133178 0.945943 -0.525380
H33   H     H_    0.266872 0.020581 0.914891 0.186170
H34   H     H_    0.190459 0.032289 0.813684 0.199282
H35   H     H_    0.262242 0.174182 0.015225 0.181882
H36   H     H_    0.183954 0.185211 0.913892 0.208364
O1    O     O_3   0.256832 0.883973 0.168905 -0.652546
C61   C     C_3   0.201050 0.935358 0.205040 -0.317606
H37   H     H_    0.240287 0.981599 0.280251 0.156882
H38   H     H_    0.120436 0.878319 0.185433 0.156443
H39   H     H_    0.195894 0.992764 0.177040 0.171030
F1    F     F_    0.133048 0.698094 0.443620 -0.765449
O2    O     O_3   0.502983 0.066123 0.768551 -0.641237
C62   C     C_3   0.416992 0.063297 0.789231 -0.284730
H40   H     H_    0.349625 0.984026 0.745866 0.147918
H41   H     H_    0.394916 0.127035 0.782554 0.149024
H42   H     H_    0.438232 0.077021 0.861301 0.173101
O3    O     O_3   0.531458 0.175041 0.439471 -0.615814
C63   C     C_3   0.469033 0.215233 0.396816 -0.297609
H43   H     H_    0.418553 0.232089 0.431535 0.132941
H44   H     H_    0.421373 0.160055 0.323033 0.156586
H45   H     H_    0.520301 0.291389 0.401825 0.176460

loop_
_geom_bond_atom_site_label_1
_geom_bond_atom_site_label_2
_geom_bond_distance
_ccdc_geom_bond_type
C6    C12   1.391888 A    
N15   Ni4   1.880261 S    
C38   C42   1.395655 A    
C47   C48   1.384032 A    
C17   N13   1.338507 A    
C17   H13   1.081109 S    
C59   C60   1.518980 S    
N9    Ni1   1.830544 S    
O3    C63   1.410041 S    
C51   C52   1.403928 A    
N6    Ni1   1.855815 S    
O2    C62   1.411940 S    
C55   C56   1.410756 A    
N10   N16   1.364273 A    
C27   H16   1.074769 S    
C15   C23   1.389714 A    
N5    Ni2   1.830545 S    
C15   N11   1.334689 A    
C16   H12   1.079332 S    
C48   C52   1.401895 A    
N8    Ni3   1.823463 S    
C50   H27   1.076362 S    
N14   Ni1   1.855943 S    
C3    C11   1.388467 A    
C1    H1    1.075214 S    
C7    C10   1.389602 A    
C61   H37   1.106584 S    
C27   C28   1.390543 A    
C58   C59   1.486214 S    
N13   Ni2   1.829010 S    
N12   N13   1.395748 A    
C49   C50   1.372623 A    
C25   C30   1.379528 A    
C18   C23   1.394494 A    
C31   C32   1.505532 S    
C20   N16   1.333880 A    
C8    C9    1.387479 A    
C56   H32   1.081756 S    
C32   H21   1.111907 S    
C22   C29   1.453458 S    
C63   H45   1.109525 S    
C12   C26   1.455221 S    
C21   C44   1.441813 S    
C29   C30   1.400927 A    
C5    H5    1.078700 S    
C1    C9    1.404340 A    
C56   C57   1.401889 A    
N1    N8    1.395746 A    
C48   C49   1.411281 A    
C14   C22   1.374868 A    
C33   C41   1.405638 A    
C54   C55   1.417350 A    
C18   N14   1.337268 A    
C37   H26   1.079735 S    
C62   H40   1.112108 S    
C45   O3    1.384382 S    
C30   C31   1.498165 S    
C3    H3    1.078940 S    
C35   C36   1.393700 A    
C17   C24   1.383153 A    
C2    N2    1.326925 A    
C45   C46   1.383612 A    
N7    Ni4   1.880038 S    
C37   C38   1.384783 A    
C6    H6    1.074111 S    
N2    N7    1.395744 A    
C38   C39   1.410727 A    
C43   C51   1.410355 A    
C53   C60   1.490787 S    
C1    N1    1.354331 A    
C61   H39   1.109501 S    
C28   C29   1.404304 A    
C32   H20   1.112302 S    
C13   H9    1.079186 S    
C44   C46   1.396853 A    
C19   N15   1.339085 A    
C19   O1    1.379722 S    
C13   N9    1.333167 A    
N12   Ni4   1.823463 S    
C10   C34   1.469588 S    
C59   H33   1.111581 S    
C34   C36   1.405307 A    
C4    N4    1.324683 A    
C46   H29   1.082278 S    
C62   H42   1.109503 S    
N11   Ni3   1.880036 S    
C6    N6    1.339736 A    
C20   H15   1.079981 S    
C41   H22   1.080092 S    
N9    N15   1.364392 A    
C53   C58   1.390664 A    
C8    N8    1.336733 A    
N2    Ni2   1.855941 S    
C60   H36   1.112093 S    
C18   H14   1.072751 S    
C23   C33   1.471214 S    
C44   C47   1.397439 A    
C62   H41   1.115447 S    
C63   H43   1.114244 S    
C4    C12   1.376246 A    
C3    N3    1.344119 A    
C7    N7    1.342767 A    
C5    C11   1.377094 A    
C35   C39   1.402845 A    
C39   C40   1.395350 A    
C47   H30   1.083023 S    
C20   C22   1.382664 A    
C2    C10   1.384025 A    
N1    Ni1   1.829011 S    
C9    C54   1.490039 S    
N3    Ni3   1.880264 S    
C13   C21   1.375800 A    
C55   H31   1.080566 S    
C52   H28   1.083941 S    
C40   F1    1.357015 S    
N16   Ni3   1.824526 S    
C14   H10   1.079355 S    
C7    H7    1.080465 S    
C5    N5    1.315668 A    
N3    N5    1.364393 A    
C51   O2    1.383313 S    
O1    C61   1.418195 S    
C28   H17   1.080520 S    
C16   N12   1.345198 A    
C25   C32   1.497650 S    
C43   C50   1.397427 A    
C31   H19   1.111744 S    
C11   C43   1.465273 S    
C59   H34   1.112211 S    
C26   C27   1.403762 A    
C34   C37   1.401444 A    
C61   H38   1.114607 S    
N4    Ni4   1.824528 S    
C4    H4    1.075345 S    
C45   C49   1.405470 A    
C16   C24   1.388815 A    
C2    H2    1.078917 S    
C42   H24   1.084263 S    
C36   H25   1.080995 S    
N10   Ni2   1.855817 S    
C31   H18   1.112074 S    
C41   C42   1.384943 A    
N4    N6    1.364274 A    
C53   C54   1.402986 A    
C8    H8    1.079049 S    
C25   C26   1.401230 A    
C15   H11   1.078067 S    
C33   C40   1.409615 A    
N11   N14   1.395744 A    
C57   C58   1.391979 A    
C35   H23   1.083563 S    
C60   H35   1.111485 S    
C14   N10   1.326217 A    
C19   C21   1.385809 A    
C63   H44   1.112661 S    
