data_mof_unit_29800.cif
_audit_creation_date              2012-12-11T15:12:29-0500
_audit_creation_method            fapswitch 2.2
_symmetry_space_group_name_H-M    P1
_symmetry_Int_Tables_number       1
_space_group_crystal_system       triclinic
_cell_length_a                    31.190657
_cell_length_b                    22.454862
_cell_length_c                    18.158539
_cell_angle_alpha                 89.997601
_cell_angle_beta                  124.439734
_cell_angle_gamma                 89.998548
_cell_volume                      10488.7354693

loop_
_atom_site_label
_atom_site_type_symbol
_atom_type_description
_atom_site_fract_x
_atom_site_fract_y
_atom_site_fract_z
_atom_type_partial_charge
C1    C     C_R   0.536075 0.608344 0.712602 0.345078
C2    C     C_R   0.248316 0.638643 0.519102 0.140020
C3    C     C_R   0.319850 0.315353 0.950645 0.133632
C4    C     C_R   0.868702 0.317273 0.153378 0.132734
C5    C     C_R   0.180275 0.815609 0.049615 0.133666
C6    C     C_R   0.131357 0.317236 0.846541 0.132703
C7    C     C_R   0.819823 0.815403 0.950596 0.133643
C8    C     C_R   0.287314 0.799209 0.139814 -0.035078
C9    C     C_R   0.763721 0.346794 0.077934 -0.034535
C10   C     C_R   0.712776 0.799041 0.860327 -0.035131
C11   C     C_R   0.236373 0.346649 0.922112 -0.034570
C12   C     C_R   0.787312 0.299207 0.139810 -0.035079
C13   C     C_R   0.287030 0.298614 0.526986 0.139789
C14   C     C_R   0.263722 0.846795 0.077935 -0.034550
C15   C     C_R   0.212801 0.298996 0.860365 -0.035154
C16   C     C_R   0.736352 0.846676 0.922105 -0.034561
C17   C     C_R   0.796910 0.387455 0.072053 0.308219
C18   C     C_R   0.259981 0.772960 0.173138 0.315054
C19   C     C_R   0.203165 0.387394 0.927809 0.308211
C20   C     C_R   0.740142 0.772694 0.827128 0.315220
C21   C     C_R   0.296912 0.887455 0.072053 0.308226
C22   C     C_R   0.759979 0.272958 0.173134 0.315061
C23   C     C_R   0.703147 0.887402 0.927842 0.308203
C24   C     C_R   0.751530 0.638700 0.480509 0.140044
C25   C     C_R   0.240176 0.272619 0.827200 0.315287
C26   C     C_R   0.849276 0.372237 0.111078 -0.274962
C27   C     C_R   0.206636 0.781923 0.127526 -0.274651
C28   C     C_R   0.150784 0.372228 0.888725 -0.274973
C29   C     C_R   0.793487 0.781646 0.872766 -0.274610
C30   C     C_R   0.349278 0.872239 0.111084 -0.274954
C31   C     C_R   0.706635 0.281921 0.127523 -0.274649
C32   C     C_R   0.650769 0.872227 0.888766 -0.274964
C33   C     C_R   0.293520 0.281573 0.872839 -0.274601
C34   C     C_R   0.596556 0.576138 0.425816 -0.209485
C35   C     C_R   0.213169 0.798689 0.473413 0.139819
C36   C     C_R   0.424643 0.390335 0.575442 -0.223799
C37   C     C_R   0.403436 0.576118 0.574176 -0.209545
C38   C     C_R   0.575380 0.390350 0.424563 -0.223775
C39   C     C_R   0.096554 0.076144 0.425814 -0.209466
C40   C     C_R   0.924635 0.890342 0.575445 -0.223778
C41   C     C_R   0.903436 0.076118 0.574176 -0.209538
C42   C     C_R   0.075381 0.890351 0.424563 -0.223774
C43   C     C_R   0.394934 0.609910 0.295973 -0.222326
C44   C     C_R   0.616244 0.415321 0.743171 -0.190294
C45   C     C_R   0.605074 0.609896 0.704049 -0.222417
C46   C     C_R   0.748328 0.138646 0.519134 0.140027
C47   C     C_R   0.383765 0.415299 0.256850 -0.190356
C48   C     C_R   0.894933 0.109909 0.295971 -0.222324
C49   C     C_R   0.116244 0.915322 0.743171 -0.190286
C50   C     C_R   0.105077 0.109892 0.704058 -0.222444
C51   C     C_R   0.883763 0.915303 0.256847 -0.190345
C52   C     C_R   0.579828 0.641883 0.734575 0.011493
C53   C     C_R   0.403940 0.398205 0.208412 0.003818
C54   C     C_R   0.420181 0.641904 0.265452 0.011457
C55   C     C_R   0.596082 0.398240 0.791638 0.003806
C56   C     C_R   0.079832 0.141877 0.734587 0.011507
C57   C     C_R   0.786977 0.798636 0.526892 0.139797
C58   C     C_R   0.903935 0.898210 0.208403 0.003816
C59   C     C_R   0.920180 0.141903 0.265448 0.011459
C60   C     C_R   0.096082 0.898241 0.791639 0.003800
C61   C     C_R   0.645827 0.585149 0.498621 0.024949
C62   C     C_R   0.386750 0.359278 0.502199 0.014422
C63   C     C_R   0.354161 0.585114 0.501368 0.024958
C64   C     C_R   0.613281 0.359299 0.497812 0.014386
C65   C     C_R   0.145823 0.085162 0.498618 0.024957
C66   C     C_R   0.886739 0.859289 0.502202 0.014410
C67   C     C_R   0.854161 0.085116 0.501368 0.024953
C68   C     C_R   0.251464 0.138720 0.480340 0.140052
C69   C     C_R   0.113283 0.859301 0.497810 0.014384
C70   C     C_R   0.643517 0.257242 0.513641 -0.255483
C71   C     C_R   0.318923 0.682279 0.482859 -0.259235
C72   C     C_R   0.356318 0.257269 0.485883 -0.255385
C73   C     C_R   0.681203 0.682267 0.517444 -0.259294
C74   C     C_R   0.143507 0.757241 0.513612 -0.255488
C75   C     C_R   0.818915 0.182277 0.482842 -0.259242
C76   C     C_R   0.856370 0.757265 0.486038 -0.255413
C77   C     C_R   0.181252 0.182261 0.517555 -0.259322
C78   C     C_R   0.644535 0.316446 0.492167 0.130772
C79   C     C_R   0.712945 0.238304 0.495024 0.027515
C80   C     C_R   0.317976 0.622565 0.501991 0.130571
C81   C     C_R   0.355507 0.316407 0.507845 0.130698
C82   C     C_R   0.682016 0.622593 0.497996 0.130651
C83   C     C_R   0.144536 0.816449 0.492164 0.130780
C84   C     C_R   0.817977 0.122566 0.501992 0.130577
C85   C     C_R   0.855495 0.816422 0.507853 0.130721
C86   C     C_R   0.182013 0.122601 0.497990 0.130681
C87   C     C_R   0.678175 0.337247 0.470857 -0.274965
C88   C     C_R   0.283737 0.600113 0.521055 -0.263335
C89   C     C_R   0.322038 0.337154 0.529568 -0.274942
C90   C     C_R   0.248419 0.699309 0.498172 0.028293
C91   C     C_R   0.716108 0.600180 0.478570 -0.263415
C92   C     C_R   0.178184 0.837252 0.470872 -0.274965
C93   C     C_R   0.783748 0.100116 0.521082 -0.263343
C94   C     C_R   0.821976 0.837183 0.529457 -0.274948
C95   C     C_R   0.216045 0.100203 0.478415 -0.263448
C96   C     C_3   0.507836 0.615071 0.756639 -1.074079
C97   C     C_3   0.484007 0.436645 0.216750 -1.069093
C98   C     C_3   0.492142 0.615047 0.243318 -1.074099
C99   C     C_3   0.515991 0.436669 0.783246 -1.069220
C100  C     C_3   0.007833 0.115074 0.756635 -1.074068
C101  C     C_R   0.287052 0.238296 0.504906 0.027499
C102  C     C_3   0.984006 0.936647 0.216749 -1.069125
C103  C     C_3   0.992139 0.115044 0.243311 -1.074100
C104  C     C_3   0.015992 0.936672 0.783247 -1.069212
C105  C     C_3   0.781149 0.450353 0.037821 -1.025293
C106  C     C_3   0.286306 0.740420 0.261002 -1.054201
C107  C     C_3   0.218931 0.450318 0.961895 -1.025228
C108  C     C_3   0.713857 0.740032 0.739377 -1.054594
C109  C     C_3   0.281149 0.950352 0.037812 -1.025296
C110  C     C_3   0.786305 0.240418 0.260998 -1.054230
C111  C     C_3   0.718912 0.950319 0.961964 -1.025231
C112  C     C_R   0.455267 0.417627 0.257016 0.317647
C113  C     C_R   0.751571 0.699319 0.501779 0.028338
C114  C     C_3   0.213902 0.239913 0.739486 -1.054744
C115  C     C_3   0.693841 0.559808 0.662390 -1.066472
C116  C     C_3   0.318697 0.388083 0.339963 -1.051043
C117  C     C_3   0.306162 0.559848 0.337575 -1.066385
C118  C     C_3   0.681308 0.388084 0.660068 -1.051128
C119  C     C_3   0.193842 0.059798 0.662378 -1.066489
C120  C     C_3   0.818694 0.888088 0.339958 -1.051060
C121  C     C_3   0.806161 0.059848 0.337576 -1.066393
C122  C     C_3   0.181308 0.888084 0.660069 -1.051139
C123  C     C_R   0.212942 0.738304 0.495013 0.027519
C124  C     C_R   0.748422 0.199309 0.498183 0.028291
C125  C     C_R   0.787057 0.738300 0.504946 0.027505
C126  C     C_R   0.251561 0.199321 0.501739 0.028353
C127  C     C_R   0.677640 0.217267 0.514396 0.136833
C128  C     C_R   0.284304 0.721133 0.480815 0.141637
C129  C     C_R   0.322175 0.217307 0.485093 0.136805
C130  C     C_R   0.715821 0.721113 0.519474 0.141535
C131  C     C_R   0.177629 0.717266 0.514363 0.136837
C132  C     C_R   0.463927 0.608348 0.287401 0.345104
C133  C     C_R   0.784297 0.221132 0.480802 0.141641
C134  C     C_R   0.822234 0.717298 0.485262 0.136814
C135  C     C_R   0.215866 0.221104 0.519566 0.141507
C136  C     C_R   0.749025 0.319925 0.456794 -0.198725
C137  C     C_R   0.212947 0.617905 0.537455 -0.203097
C138  C     C_R   0.251332 0.319818 0.544007 -0.198642
C139  C     C_R   0.786761 0.617996 0.461816 -0.203101
C140  C     C_R   0.249040 0.819928 0.456824 -0.198724
C141  C     C_R   0.712969 0.117909 0.537510 -0.203095
C142  C     C_R   0.751232 0.819848 0.543795 -0.198666
C143  C     C_R   0.544743 0.417645 0.743008 0.317704
C144  C     C_R   0.286639 0.118029 0.461509 -0.203098
C145  C     C_R   0.284998 0.781225 0.461456 -0.224999
C146  C     C_R   0.677790 0.157234 0.535483 -0.203391
C147  C     C_R   0.715261 0.781164 0.539151 -0.225009
C148  C     C_R   0.321829 0.157338 0.463542 -0.203379
C149  C     C_R   0.784983 0.281223 0.461427 -0.225005
C150  C     C_R   0.177768 0.657230 0.535427 -0.203395
C151  C     C_R   0.215356 0.281143 0.539358 -0.225015
C152  C     C_R   0.821948 0.657311 0.463850 -0.203384
C153  C     C_R   0.403408 0.701914 0.223775 0.132423
C154  C     C_R   0.036076 0.108342 0.712607 0.345071
C155  C     C_R   0.625502 0.372525 0.882857 0.137131
C156  C     C_R   0.596615 0.701875 0.776277 0.132382
C157  C     C_R   0.374554 0.372426 0.117252 0.137144
C158  C     C_R   0.903405 0.201912 0.223769 0.132418
C159  C     C_R   0.125502 0.872526 0.882858 0.137124
C160  C     C_R   0.096623 0.201863 0.776299 0.132365
C161  C     C_R   0.874541 0.872443 0.117233 0.137141
C162  C     C_R   0.419537 0.799355 0.185217 -0.190638
C163  C     C_R   0.626071 0.313343 0.995099 -0.196360
C164  C     C_R   0.580486 0.799378 0.814651 -0.190625
C165  C     C_R   0.955265 0.917630 0.257011 0.317667
C166  C     C_R   0.374051 0.313082 0.005218 -0.196376
C167  C     C_R   0.919533 0.299352 0.185205 -0.190638
C168  C     C_R   0.126072 0.813345 0.995103 -0.196363
C169  C     C_R   0.080495 0.299386 0.814619 -0.190624
C170  C     C_R   0.874025 0.813132 0.005158 -0.196373
C171  C     C_R   0.437338 0.742765 0.223008 -0.170830
C172  C     C_R   0.599162 0.340149 0.911768 -0.156704
C173  C     C_R   0.562673 0.742781 0.776908 -0.170836
C174  C     C_R   0.400927 0.339968 0.088482 -0.156647
C175  C     C_R   0.937335 0.242762 0.222998 -0.170821
C176  C     C_R   0.963925 0.108347 0.287398 0.345108
C177  C     C_R   0.099162 0.840151 0.911772 -0.156707
C178  C     C_R   0.062678 0.242785 0.776891 -0.170830
C179  C     C_R   0.900907 0.840001 0.088434 -0.156659
C180  C     C_R   0.352755 0.720461 0.190838 -0.246676
C181  C     C_R   0.680001 0.376323 0.938906 -0.254141
C182  C     C_R   0.647297 0.720351 0.809342 -0.246626
C183  C     C_R   0.320059 0.376243 0.061135 -0.254173
C184  C     C_R   0.852754 0.220458 0.190833 -0.246675
C185  C     C_R   0.180002 0.876322 0.938907 -0.254121
C186  C     C_R   0.147314 0.220320 0.809402 -0.246605
C187  C     C_R   0.044743 0.917645 0.743008 0.317704
C188  C     C_R   0.820045 0.876255 0.061131 -0.254159
C189  C     C_R   0.336756 0.779379 0.164305 0.094398
C190  C     C_R   0.708306 0.349051 0.023731 0.094136
C191  C     C_R   0.663312 0.779270 0.835791 0.094431
C192  C     C_R   0.291787 0.348891 0.976376 0.094142
C193  C     C_R   0.836753 0.279377 0.164300 0.094399
C194  C     C_R   0.208308 0.849052 0.023732 0.094133
C195  C     C_R   0.163333 0.279242 0.835822 0.094444
C196  C     C_R   0.791766 0.848920 0.976358 0.094139
C197  C     C_R   0.646042 0.575041 0.572841 0.319720
C198  C     C_R   0.713162 0.298686 0.473402 0.139826
C199  C     C_R   0.370854 0.392583 0.426890 0.341740
C200  C     C_R   0.353955 0.575035 0.427153 0.319729
C201  C     C_R   0.629164 0.392595 0.573116 0.341789
C202  C     C_R   0.146041 0.075045 0.572839 0.319707
C203  C     C_R   0.870847 0.892589 0.426892 0.341749
C204  C     C_R   0.853955 0.075036 0.427153 0.319723
C205  C     C_R   0.129164 0.892595 0.573116 0.341793
C206  C     C_R   0.368705 0.817275 0.153387 0.132732
C207  C     C_R   0.680273 0.315608 0.049612 0.133667
C208  C     C_R   0.631342 0.817243 0.846554 0.132711
H1    H     H_    0.700276 0.396809 0.913471 0.144927
H2    H     H_    0.477424 0.731631 0.251306 0.137590
H3    H     H_    0.025546 0.145755 0.282277 0.249911
H4    H     H_    0.005145 0.071056 0.235653 0.257468
H5    H     H_    0.996992 0.898373 0.792111 0.237732
H6    H     H_    0.043045 0.958545 0.848756 0.268127
H7    H     H_    0.985090 0.969022 0.738671 0.254238
H8    H     H_    0.811901 0.481937 0.085600 0.254713
H9    H     H_    0.776094 0.454859 0.972443 0.248551
H10   H     H_    0.745191 0.464121 0.031990 0.259013
H11   H     H_    0.270514 0.756285 0.298937 0.263595
H12   H     H_    0.278228 0.692165 0.248591 0.248168
H13   H     H_    0.442177 0.332078 0.131960 0.129095
H14   H     H_    0.328833 0.748530 0.303776 0.258476
H15   H     H_    0.188202 0.481887 0.914005 0.254702
H16   H     H_    0.223940 0.454927 0.027224 0.248547
H17   H     H_    0.254914 0.464017 0.967768 0.259017
H18   H     H_    0.729736 0.755713 0.701495 0.263618
H19   H     H_    0.721878 0.691779 0.751967 0.248193
H20   H     H_    0.671342 0.748213 0.696478 0.258504
H21   H     H_    0.311908 0.981938 0.085569 0.254705
H22   H     H_    0.276077 0.954848 0.972419 0.248546
H23   H     H_    0.245202 0.964125 0.032012 0.259015
H24   H     H_    0.522571 0.731684 0.748530 0.137557
H25   H     H_    0.770513 0.256282 0.298932 0.263596
H26   H     H_    0.778228 0.192162 0.248587 0.248174
H27   H     H_    0.828831 0.248529 0.303771 0.258478
H28   H     H_    0.688176 0.981893 0.914104 0.254707
H29   H     H_    0.723937 0.954899 0.027309 0.248546
H30   H     H_    0.754887 0.964034 0.967819 0.259017
H31   H     H_    0.229806 0.255533 0.701619 0.263619
H32   H     H_    0.221904 0.191662 0.752134 0.248204
H33   H     H_    0.171390 0.248115 0.696550 0.258515
H34   H     H_    0.717238 0.526601 0.654221 0.261797
H35   H     H_    0.057910 0.832266 0.868366 0.129181
H36   H     H_    0.717774 0.600202 0.693820 0.254147
H37   H     H_    0.683545 0.540257 0.706550 0.252310
H38   H     H_    0.319017 0.351616 0.299055 0.254336
H39   H     H_    0.288296 0.378090 0.351992 0.260704
H40   H     H_    0.307892 0.431098 0.303933 0.251414
H41   H     H_    0.282702 0.526711 0.345699 0.261799
H42   H     H_    0.282289 0.600281 0.306103 0.254019
H43   H     H_    0.316470 0.540231 0.293470 0.252315
H44   H     H_    0.680969 0.351623 0.700969 0.254388
H45   H     H_    0.711724 0.378080 0.648083 0.260692
H46   H     H_    0.977420 0.231628 0.251293 0.137593
H47   H     H_    0.692107 0.431100 0.696087 0.251410
H48   H     H_    0.217219 0.026570 0.654193 0.261801
H49   H     H_    0.217795 0.100180 0.693797 0.254184
H50   H     H_    0.183549 0.040267 0.706554 0.252308
H51   H     H_    0.819019 0.851622 0.299054 0.254347
H52   H     H_    0.788289 0.878094 0.351976 0.260698
H53   H     H_    0.807891 0.931103 0.303929 0.251412
H54   H     H_    0.782703 0.026709 0.345702 0.261797
H55   H     H_    0.782287 0.100280 0.306105 0.254023
H56   H     H_    0.816469 0.040232 0.293469 0.252316
H57   H     H_    0.942158 0.832111 0.131898 0.129110
H58   H     H_    0.180968 0.851622 0.700967 0.254392
H59   H     H_    0.211725 0.878081 0.648086 0.260692
H60   H     H_    0.192106 0.931099 0.696089 0.251411
H61   H     H_    0.022571 0.231698 0.748490 0.137548
H62   H     H_    0.445531 0.829139 0.181351 0.124892
H63   H     H_    0.604589 0.287504 0.014457 0.123883
H64   H     H_    0.554479 0.829214 0.818403 0.124888
H65   H     H_    0.324882 0.688314 0.183438 0.146737
H66   H     H_    0.395555 0.287176 0.985973 0.123877
H67   H     H_    0.945527 0.329135 0.181336 0.124895
H68   H     H_    0.104590 0.787507 0.014461 0.123883
H69   H     H_    0.054485 0.329237 0.818339 0.124887
H70   H     H_    0.895525 0.787238 0.985891 0.123878
H71   H     H_    0.586271 0.572148 0.358587 0.139895
H72   H     H_    0.441634 0.378695 0.644031 0.150518
H73   H     H_    0.413721 0.572122 0.641406 0.139916
H74   H     H_    0.558401 0.378720 0.355977 0.150524
H75   H     H_    0.086269 0.072155 0.358585 0.139887
H76   H     H_    0.299764 0.396812 0.086475 0.144935
H77   H     H_    0.941623 0.878706 0.644034 0.150517
H78   H     H_    0.913721 0.072121 0.641405 0.139917
H79   H     H_    0.058401 0.878720 0.355976 0.150525
H80   H     H_    0.361223 0.623769 0.293809 0.147879
H81   H     H_    0.656898 0.418266 0.770341 0.129988
H82   H     H_    0.638792 0.623752 0.706231 0.147922
H83   H     H_    0.343107 0.418218 0.229673 0.130012
H84   H     H_    0.861222 0.123768 0.293806 0.147878
H85   H     H_    0.156898 0.918267 0.770343 0.129985
H86   H     H_    0.138797 0.123748 0.706247 0.147934
H87   H     H_    0.675172 0.688148 0.816878 0.146755
H88   H     H_    0.843106 0.918227 0.229673 0.130006
H89   H     H_    0.616830 0.242939 0.530466 0.128034
H90   H     H_    0.346671 0.698134 0.469178 0.135699
H91   H     H_    0.382862 0.243011 0.468718 0.128040
H92   H     H_    0.653556 0.698100 0.531375 0.135734
H93   H     H_    0.116813 0.742936 0.530421 0.128031
H94   H     H_    0.846656 0.198131 0.469144 0.135705
H95   H     H_    0.882955 0.742994 0.468973 0.128037
H96   H     H_    0.153646 0.198087 0.531585 0.135752
H97   H     H_    0.678180 0.384041 0.455651 0.134814
H98   H     H_    0.200276 0.896806 0.913469 0.144923
H99   H     H_    0.284546 0.553246 0.536306 0.126192
H100  H     H_    0.322173 0.383903 0.545112 0.134808
H101  H     H_    0.715190 0.553348 0.463060 0.126172
H102  H     H_    0.178197 0.884047 0.455683 0.134815
H103  H     H_    0.784564 0.053251 0.536348 0.126186
H104  H     H_    0.822068 0.883945 0.544900 0.134808
H105  H     H_    0.215083 0.053384 0.462806 0.126171
H106  H     H_    0.749516 0.366392 0.441095 0.130854
H107  H     H_    0.212677 0.571517 0.553653 0.131293
H108  H     H_    0.250984 0.366241 0.560044 0.130864
H109  H     H_    0.824880 0.188312 0.183436 0.146739
H110  H     H_    0.786920 0.571645 0.445353 0.131294
H111  H     H_    0.249537 0.866397 0.441140 0.130858
H112  H     H_    0.712706 0.071522 0.553724 0.131288
H113  H     H_    0.750841 0.866284 0.559735 0.130861
H114  H     H_    0.286753 0.071690 0.444944 0.131297
H115  H     H_    0.313090 0.798109 0.449457 0.139224
H116  H     H_    0.650834 0.140841 0.550435 0.132188
H117  H     H_    0.687265 0.798031 0.551393 0.139302
H118  H     H_    0.348643 0.140982 0.448244 0.132198
H119  H     H_    0.813070 0.298107 0.449413 0.139223
H120  H     H_    0.799754 0.896804 0.086492 0.144931
H121  H     H_    0.150805 0.640837 0.550363 0.132186
H122  H     H_    0.187396 0.298005 0.551691 0.139326
H123  H     H_    0.848805 0.640945 0.448654 0.132194
H124  H     H_    0.874577 0.402932 0.106622 0.146692
H125  H     H_    0.185288 0.759882 0.150555 0.149312
H126  H     H_    0.125468 0.402991 0.893032 0.146692
H127  H     H_    0.814858 0.759536 0.849834 0.149291
H128  H     H_    0.374580 0.902934 0.106629 0.146687
H129  H     H_    0.685286 0.259880 0.150552 0.149313
H130  H     H_    0.625456 0.902975 0.893105 0.146691
H131  H     H_    0.175189 0.188102 0.816979 0.146759
H132  H     H_    0.314897 0.259443 0.849932 0.149285
H133  H     H_    0.534391 0.633440 0.824944 0.260138
H134  H     H_    0.474424 0.645774 0.717618 0.249929
H135  H     H_    0.494838 0.571089 0.764336 0.257467
H136  H     H_    0.502999 0.398343 0.207874 0.237739
H137  H     H_    0.456944 0.458520 0.151240 0.268123
H138  H     H_    0.514911 0.468992 0.261310 0.254206
H139  H     H_    0.465568 0.633390 0.174997 0.260143
H140  H     H_    0.525551 0.645756 0.282289 0.249909
H141  H     H_    0.505146 0.571059 0.235656 0.257467
H142  H     H_    0.557910 0.332263 0.868361 0.129180
H143  H     H_    0.496992 0.398369 0.792111 0.237733
H144  H     H_    0.543044 0.458543 0.848754 0.268130
H145  H     H_    0.485088 0.469018 0.738669 0.254237
H146  H     H_    0.034386 0.133448 0.824938 0.260136
H147  H     H_    0.974422 0.145778 0.717607 0.249934
H148  H     H_    0.994835 0.071095 0.764337 0.257464
H149  H     H_    0.002999 0.898344 0.207874 0.237738
H150  H     H_    0.956945 0.958522 0.151240 0.268127
H151  H     H_    0.014911 0.968992 0.261312 0.254209
H152  H     H_    0.965563 0.133383 0.174988 0.260143
N1    N     N_R   0.532970 0.559900 0.665210 -0.052644
N2    N     N_R   0.402100 0.440070 0.454470 -0.053461
N3    N     N_R   0.402100 0.559930 0.454470 -0.057315
N4    N     N_R   0.597900 0.440070 0.545530 -0.053464
N5    N     N_R   0.097900 0.059930 0.545530 -0.057290
N6    N     N_R   0.902100 0.940070 0.454470 -0.053465
N7    N     N_R   0.902100 0.059930 0.454470 -0.057313
N8    N     N_R   0.097900 0.940070 0.545530 -0.053461
N9    N     N_R   0.567170 0.559950 0.454460 -0.051581
N10   N     N_R   0.432830 0.440050 0.545540 -0.052515
N11   N     N_R   0.432830 0.559950 0.545540 -0.051579
N12   N     N_R   0.467030 0.440100 0.334790 -0.054581
N13   N     N_R   0.567170 0.440050 0.454460 -0.052531
N14   N     N_R   0.067170 0.059950 0.454460 -0.051580
N15   N     N_R   0.932830 0.940050 0.545540 -0.052519
N16   N     N_R   0.932830 0.059950 0.545540 -0.051578
N17   N     N_R   0.067170 0.940050 0.454460 -0.052533
N18   N     N_R   0.421470 0.559970 0.334770 -0.051267
N19   N     N_R   0.578530 0.440030 0.665230 -0.051200
N20   N     N_R   0.578530 0.559970 0.665230 -0.051262
N21   N     N_R   0.421470 0.440030 0.334770 -0.051206
N22   N     N_R   0.921470 0.059970 0.334770 -0.051267
N23   N     N_R   0.467030 0.559900 0.334790 -0.052649
N24   N     N_R   0.078530 0.940030 0.665230 -0.051198
N25   N     N_R   0.078530 0.059970 0.665230 -0.051260
N26   N     N_R   0.921470 0.940030 0.334770 -0.051206
N27   N     N_R   0.532970 0.440100 0.665210 -0.054582
N28   N     N_R   0.032970 0.059900 0.665210 -0.052644
N29   N     N_R   0.967030 0.940100 0.334790 -0.054582
N30   N     N_R   0.967030 0.059900 0.334790 -0.052649
N31   N     N_R   0.032970 0.940100 0.665210 -0.054583
N32   N     N_R   0.597900 0.559930 0.545530 -0.057297
Ni1   Ni    Ni4+2 0.483030 0.500000 0.604430 0.200421
Ni2   Ni    Ni4+2 0.516970 0.500000 0.395570 0.200422
Ni3   Ni    Ni4+2 0.983030 1.000000 0.604430 0.200422
Ni4   Ni    Ni4+2 0.016970 1.000000 0.395570 0.200423
Ni5   Ni    Ni4+2 0.587400 0.500000 0.604430 0.201551
Ni6   Ni    Ni4+2 0.412600 0.500000 0.395570 0.201557
Ni7   Ni    Ni4+2 0.087400 1.000000 0.604430 0.201552
Ni8   Ni    Ni4+2 0.912600 1.000000 0.395570 0.201557

loop_
_geom_bond_atom_site_label_1
_geom_bond_atom_site_label_2
_ccdc_geom_bond_type
C70   C127  A    
C102  H149  S    
C7    C29   A    
N13   Ni2   S    
C182  H87   S    
C34   H71   S    
C47   H83   S    
C66   C85   S    
C41   C67   A    
C98   H139  S    
C111  H29   S    
C49   C60   A    
C124  C133  A    
N2    N10   A    
C14   C21   A    
C99   C143  S    
C61   C82   S    
N30   Ni4   S    
C128  C145  A    
C172  H142  S    
C184  C193  A    
C139  C152  A    
C112  N12   A    
C11   C192  A    
C199  N2    A    
C2    C90   A    
C58   C165  A    
C97   H138  S    
C71   C80   A    
C150  H121  S    
C11   C15   A    
C162  C171  A    
C10   C20   A    
N9    N32   A    
C49   H85   S    
N23   Ni2   S    
C32   H130  S    
C74   C83   A    
C136  C198  A    
C47   C53   A    
C106  H11   S    
C14   C194  A    
C153  C180  A    
C39   C65   A    
C46   C124  A    
C99   H145  S    
C36   C62   A    
C37   C63   A    
C197  N32   A    
C38   C64   A    
C91   H101  S    
C33   H132  S    
C165  N29   A    
C156  C173  A    
C166  C174  A    
C68   C95   A    
C48   N22   A    
C72   C129  A    
C56   C154  A    
C113  C130  A    
C61   C197  A    
C103  H152  S    
C100  H148  S    
C97   C112  S    
C108  H20   S    
C120  H52   S    
C34   C61   A    
C82   C91   A    
C97   H136  S    
C50   H86   S    
C31   C207  A    
N27   Ni1   S    
C109  H22   S    
C43   C54   A    
C116  H39   S    
C189  C206  A    
C111  H28   S    
C96   H134  S    
C164  C173  A    
N5    Ni7   S    
N3    Ni6   S    
N6    Ni8   S    
C163  C172  A    
C160  C178  A    
C187  N31   A    
C62   C81   S    
C105  H9    S    
C71   C128  A    
C145  H115  S    
N26   N29   A    
N18   Ni6   S    
C143  N27   A    
C110  H27   S    
C114  H32   S    
C79   C127  A    
C73   C130  A    
C201  N4    A    
C137  H107  S    
C140  C145  A    
C26   H124  S    
C117  H42   S    
C200  N3    A    
C138  C151  A    
C13   C89   A    
C28   H126  S    
C10   C191  A    
N15   Ni3   S    
C80   C88   A    
C10   C16   A    
C25   C114  S    
C44   C55   A    
C103  C176  S    
C51   N26   A    
C47   N21   A    
C84   C93   A    
C45   N20   A    
C170  H70   S    
N24   Ni7   S    
C147  H117  S    
C86   C95   A    
C119  H50   S    
C42   N17   A    
N29   Ni4   S    
C120  H53   S    
C7    C170  A    
C87   C198  A    
C7    C196  A    
C76   C85   A    
C5    C194  A    
C20   C108  S    
C78   C87   A    
C90   C123  A    
C29   H127  S    
C119  H48   S    
C122  H60   S    
C55   C155  S    
N32   Ni5   S    
C57   C142  A    
N17   Ni4   S    
C62   C199  A    
C161  C188  A    
C180  C189  A    
C57   C125  A    
C59   C158  S    
C75   C84   A    
C15   C25   A    
C12   C22   A    
C74   H93   S    
N10   Ni1   S    
C49   N24   A    
C166  H66   S    
C5    C27   A    
C118  H47   S    
C6    C28   A    
C27   H125  S    
C37   N11   A    
C161  C179  A    
C110  H25   S    
C157  C174  A    
C79   C198  A    
C74   C131  A    
C119  C202  S    
C149  H119  S    
N2    Ni6   S    
C63   C80   S    
C55   C143  A    
C44   H81   S    
C146  H116  S    
C116  H40   S    
C154  N28   A    
C59   C176  A    
C164  C208  A    
C89   H100  S    
C103  H3    S    
C116  C199  S    
C156  C182  A    
C99   H144  S    
C45   C52   A    
C50   C56   A    
C163  H63   S    
N7    N16   A    
C34   N9    A    
C18   C106  S    
C180  H65   S    
C118  H45   S    
C121  H54   S    
N21   Ni6   S    
N19   Ni5   S    
N16   Ni3   S    
C19   C28   A    
C51   H88   S    
N7    Ni8   S    
C177  H35   S    
C116  H38   S    
C16   C23   A    
C57   C94   A    
C137  C150  A    
C72   H91   S    
C37   H73   S    
C122  H58   S    
C175  H46   S    
C167  C175  A    
C107  H16   S    
C100  C154  S    
C102  H150  S    
C130  C147  A    
C64   C78   S    
C142  C147  A    
C96   H133  S    
C42   H79   S    
C21   C109  S    
C155  C181  A    
C96   H135  S    
C98   H140  S    
C23   C111  S    
C79   C124  A    
C69   C205  A    
C170  C179  A    
C30   H128  S    
C13   C138  A    
C159  C185  A    
C35   C123  A    
C81   C89   A    
C3    C192  A    
C107  H17   S    
C70   H89   S    
C68   C144  A    
C9    C12   A    
C97   H137  S    
C168  H68   S    
C151  H122  S    
C115  H36   S    
C98   H141  S    
C190  C207  A    
C98   C132  S    
C203  N6    A    
C25   C33   A    
C101  C129  A    
C125  C134  A    
C106  H12   S    
C64   C201  A    
C12   C193  A    
C60   C159  S    
C185  C194  A    
C183  C192  A    
C136  C149  A    
C65   C86   S    
C186  H131  S    
C115  C197  S    
C43   N18   A    
C11   C19   A    
C141  H112  S    
C48   C59   A    
C204  N7    A    
C142  H113  S    
C104  H5    S    
C43   H80   S    
C121  H56   S    
C3    C33   A    
C168  C177  A    
C40   H77   S    
C63   C200  A    
C5    C168  A    
N18   N23   A    
C36   H72   S    
C109  H21   S    
C155  C172  A    
C65   C202  A    
N11   Ni1   S    
C22   C110  S    
C46   C141  A    
C44   N19   A    
N12   Ni2   S    
C72   C81   A    
C31   H129  S    
C15   C195  A    
C35   C92   A    
C105  H8    S    
C40   C66   A    
C162  C206  A    
C122  C205  S    
C174  H13   S    
N14   Ni4   S    
C6    C195  A    
N5    N14   A    
C77   H96   S    
C24   C139  A    
C4    C193  A    
C111  H30   S    
N24   N31   A    
C171  H2    S    
C117  H41   S    
C136  H106  S    
C8    C18   A    
C1    N1    A    
C103  H4    S    
N31   Ni3   S    
C48   H84   S    
C173  H24   S    
C35   C140  A    
C115  H34   S    
C8    C189  A    
C36   N10   A    
C51   C58   A    
C117  C200  S    
C141  C146  A    
C119  H49   S    
C126  C135  A    
C60   C187  A    
N12   N21   A    
N20   Ni5   S    
C52   C156  S    
C182  C191  A    
C41   H78   S    
C73   C82   A    
C140  H111  S    
C76   C134  A    
C123  C131  A    
C2    C137  A    
N4    N13   A    
C104  H7    S    
C100  H147  S    
C4    C26   A    
C75   C133  A    
C108  H19   S    
C120  H51   S    
C21   C30   A    
C4    C167  A    
C23   C32   A    
N8    N17   A    
C109  H23   S    
C135  C151  A    
C163  C207  A    
C1    C52   A    
C144  H114  S    
C38   H74   S    
C127  C146  A    
N1    Ni1   S    
N22   N30   A    
C105  H10   S    
C131  C150  A    
C157  C183  A    
C58   C161  S    
C158  C184  A    
C76   H95   S    
C110  H26   S    
C114  H31   S    
C115  H37   S    
C152  H123  S    
C50   N25   A    
C70   C78   A    
C160  C186  A    
C144  C148  A    
C54   C153  S    
C117  H43   S    
C92   H102  S    
N28   Ni3   S    
C83   C92   A    
C93   H103  S    
C94   H104  S    
C16   C196  A    
C17   C26   A    
N8    Ni7   S    
C99   H143  S    
C113  C125  A    
C30   C206  A    
C181  H1    S    
C181  C190  A    
N22   Ni8   S    
C184  H109  S    
C129  C148  A    
C67   C204  A    
C39   H75   S    
C45   H82   S    
C2    C88   A    
C39   N14   A    
N26   Ni8   S    
C139  H110  S    
C202  N5    A    
C164  H64   S    
C134  C152  A    
C24   C113  A    
C73   H92   S    
C159  C177  A    
N4    Ni5   S    
C122  H59   S    
C107  H15   S    
C20   C29   A    
C41   N16   A    
C183  H76   S    
C22   C31   A    
C188  H120  S    
C186  C195  A    
C40   N15   A    
C133  C149  A    
C95   H105  S    
C32   C208  A    
C167  H67   S    
C42   C69   A    
N1    N20   A    
C69   C83   S    
C17   C105  S    
C85   C94   A    
C158  C175  A    
N3    N11   A    
C153  C171  A    
C101  C126  A    
C75   H94   S    
C66   C203  A    
C179  H57   S    
C53   C112  A    
C9    C17   A    
C77   C86   A    
C102  C165  S    
C185  H98   S    
C118  C201  S    
C169  H69   S    
C13   C101  A    
C24   C91   A    
C68   C126  A    
C169  C178  A    
C104  C187  S    
C162  H62   S    
C8    C14   A    
N19   N27   A    
C38   N13   A    
C18   C27   A    
C121  C204  S    
N6    N15   A    
C205  N8    A    
C138  H108  S    
C178  H61   S    
N25   Ni7   S    
C87   H97   S    
C53   C157  S    
N25   N28   A    
C71   H90   S    
C104  H6    S    
C56   C160  S    
C118  H44   S    
C121  H55   S    
C100  H146  S    
C106  H14   S    
C46   C93   A    
C108  H18   S    
C1    C96   S    
C176  N30   A    
C191  C208  A    
C148  H118  S    
C54   C132  A    
C67   C84   S    
C114  H33   S    
C188  C196  A    
C88   H99   S    
C120  C203  S    
C90   C128  A    
N9    Ni2   S    
C102  H151  S    
C77   C135  A    
C132  N23   A    
C9    C190  A    
C3    C166  A    
C19   C107  S    
C6    C169  A    
