data_mof_unit_53020.cif
_audit_creation_date              2012-12-10T18:54:29-0500
_audit_creation_method            fapswitch 2.2
_symmetry_space_group_name_H-M    P1
_symmetry_Int_Tables_number       1
_space_group_crystal_system       triclinic
_cell_length_a                    10.715707
_cell_length_b                    9.821077
_cell_length_c                    23.443469
_cell_angle_alpha                 90.001493
_cell_angle_beta                  90.11229
_cell_angle_gamma                 90.004566
_cell_volume                      2467.18085654

loop_
_atom_site_label
_atom_site_type_symbol
_atom_type_description
_atom_site_fract_x
_atom_site_fract_y
_atom_site_fract_z
_atom_type_partial_charge
C1    C     C_R   0.259814 0.499995 0.499965 0.877832
C2    C     C_R   0.740186 0.500006 0.500032 0.876075
C3    C     C_R   0.476420 0.624759 0.238207 0.419035
C4    C     C_R   0.483253 0.625948 0.761784 0.419466
C5    C     C_R   0.477960 0.622689 0.297588 -0.286959
C6    C     C_R   0.484081 0.623648 0.702412 -0.282467
C7    C     C_R   0.498420 0.500516 0.327068 -0.120419
C8    C     C_R   0.499883 0.500649 0.672961 -0.123329
C9    C     C_R   0.517485 0.379185 0.296933 -0.220482
C10   C     C_R   0.515749 0.378793 0.703155 -0.219375
C11   C     C_R   0.517077 0.379825 0.237672 -0.021346
C12   C     C_R   0.516028 0.379657 0.762425 -0.024494
C13   C     C_R   0.496620 0.502483 0.208252 0.146451
C14   C     C_R   0.499429 0.503028 0.791794 0.144335
C15   C     C_R   0.063949 0.378519 0.510875 -0.177147
C16   C     C_R   0.936052 0.621484 0.489117 -0.177778
C17   C     C_R   0.936128 0.378541 0.510932 -0.178643
C18   C     C_R   0.063874 0.621462 0.489060 -0.175586
C19   C     C_R   0.872593 0.500018 0.500040 -0.016953
C20   C     C_R   0.127408 0.499985 0.499954 -0.017134
C21   C     C_R   0.575819 0.072032 0.536314 -0.062602
C22   C     C_R   0.424187 0.927964 0.463683 -0.060841
C23   C     C_R   0.424183 0.072006 0.463686 -0.062375
C24   C     C_R   0.575811 0.927991 0.536316 -0.060031
C25   C     C_R   0.499645 0.500046 0.389268 0.914628
C26   C     C_R   0.500076 0.500057 0.610741 0.914334
C27   C     C_R   0.609104 0.522624 0.880929 0.588857
C28   C     C_R   0.387695 0.478541 0.119119 0.593689
C29   C     C_R   0.389494 0.478348 0.880408 0.575436
C30   C     C_R   0.607485 0.521731 0.119647 0.576320
C31   C     C_R   0.386743 0.477296 0.939922 -0.005424
C32   C     C_R   0.610410 0.521766 0.060131 -0.007887
C33   C     C_R   0.498741 0.499883 0.970073 -0.011156
C34   C     C_R   0.498310 0.499792 0.029979 -0.012854
C35   C     C_R   0.611224 0.522220 0.940461 -0.021055
C36   C     C_R   0.385836 0.477395 0.059588 -0.021365
C37   C     C_R   0.275286 0.454621 0.969798 -0.125636
C38   C     C_R   0.722055 0.543305 0.030255 -0.127009
C39   C     C_R   0.274825 0.454734 0.029169 -0.122903
C40   C     C_R   0.722450 0.543590 0.970882 -0.128524
H1    H     H_    0.188183 0.437094 0.947452 0.196240
H2    H     H_    0.809248 0.560296 0.052600 0.198800
H3    H     H_    0.187380 0.437282 0.051087 0.197142
H4    H     H_    0.809938 0.560785 0.948964 0.198049
H5    H     H_    0.462481 0.716304 0.320907 0.202509
H6    H     H_    0.471897 0.717859 0.679088 0.206543
H7    H     H_    0.533636 0.284305 0.319428 0.179523
H8    H     H_    0.528761 0.283304 0.680711 0.178373
H9    H     H_    0.112671 0.284133 0.519703 0.162489
H10   H     H_    0.887330 0.715869 0.480289 0.161705
H11   H     H_    0.887467 0.284176 0.519809 0.157486
H12   H     H_    0.112536 0.715826 0.480182 0.158403
H13   H     H_    0.636380 0.126773 0.565308 0.130045
H14   H     H_    0.363639 0.873222 0.434681 0.135014
H15   H     H_    0.363628 0.126725 0.434689 0.139049
H16   H     H_    0.636356 0.873269 0.565317 0.137490
N1    N     N_R   0.499134 0.502685 0.852548 -0.344376
N2    N     N_R   0.497041 0.502220 0.147500 -0.345523
N3    N     N_R   0.500000 0.857200 0.500000 -0.086728
N4    N     N_R   0.500000 0.142800 0.500000 -0.086418
O1    O     O_R   0.316770 0.614620 0.500000 -0.626765
O2    O     O_R   0.683230 0.385380 0.500000 -0.627906
O3    O     O_R   0.683230 0.614620 0.500000 -0.627094
O4    O     O_R   0.316770 0.385380 0.500000 -0.626530
O5    O     O_R   0.499970 0.614690 0.416160 -0.622346
O6    O     O_R   0.500030 0.385310 0.583840 -0.621661
O7    O     O_R   0.500030 0.614690 0.583840 -0.620052
O8    O     O_R   0.499970 0.385310 0.416160 -0.620625
O9    O     O_2   0.715596 0.542680 0.851437 -0.521578
O10   O     O_2   0.281529 0.456531 0.148613 -0.515369
O11   O     O_2   0.283837 0.455836 0.850409 -0.544363
O12   O     O_2   0.713645 0.541200 0.149649 -0.543602
Zn1   Zn    Zn3+2 0.500000 0.653120 0.500000 0.962561
Zn2   Zn    Zn3+2 0.500000 0.346880 0.500000 0.960784
S1    S     S_3+6 0.449208 0.780584 0.202222 0.057333
O13   O     O_2   0.334827 0.767354 0.165487 -0.215193
O14   O     O_2   0.429613 0.894713 0.244001 -0.309470
O15   O     O_3   0.571558 0.818030 0.160304 -0.504257
H17   H     H_    0.643598 0.824671 0.186697 0.368791
S2    S     S_3+6 0.462928 0.783104 0.797637 0.054814
O16   O     O_2   0.580021 0.816685 0.830049 -0.219686
O17   O     O_2   0.436479 0.895739 0.755900 -0.309809
O18   O     O_3   0.344010 0.772011 0.844046 -0.505606
H18   H     H_    0.270271 0.749139 0.820370 0.372667
C41   C     C_1   0.538427 0.254196 0.207268 0.248835
N5    N     N_1   0.555645 0.153702 0.182752 -0.082798
C42   C     C_1   0.534365 0.253594 0.792941 0.249330
N6    N     N_1   0.549220 0.152836 0.817610 -0.060901

loop_
_geom_bond_atom_site_label_1
_geom_bond_atom_site_label_2
_ccdc_geom_bond_type
C38   C40   A    
C42   N6    T    
C8    C26   S    
C17   H11   S    
C18   H12   S    
C22   H14   S    
C41   N5    T    
C6    C8    A    
C26   O7    A    
C16   H10   S    
C4    S2    S    
C24   N3    A    
C8    C10   A    
O8    Zn2   S    
O6    Zn2   S    
O5    Zn1   S    
C7    C9    A    
C33   C35   A    
C31   C33   A    
O7    Zn1   S    
C32   C38   A    
C3    S1    S    
N3    Zn1   S    
C18   C20   A    
C27   O9    S    
C4    C14   A    
C23   N4    A    
C25   O8    A    
S2    O18   S    
C15   C20   A    
C37   C39   A    
C26   O6    A    
C25   O5    A    
C21   N4    A    
S2    O17   D    
C27   N1    A    
C22   N3    A    
C5    C7    A    
O15   H17   S    
C39   H3    S    
C13   N2    S    
O3    Zn1   S    
C27   C35   A    
C5    H5    S    
C31   C37   A    
C32   C34   A    
C3    C13   A    
S1    O13   D    
C21   H13   S    
C9    C11   A    
O18   H18   S    
C33   C34   A    
S1    O14   D    
C10   C12   A    
C4    C6    A    
C29   N1    A    
C9    H7    S    
C10   H8    S    
C1    O4    A    
C2    O3    A    
C15   C17   A    
C14   N1    S    
C1    C20   S    
C6    H6    S    
C12   C42   S    
C2    C19   S    
C36   C39   A    
C28   O10   S    
C12   C14   A    
S2    O16   D    
C3    C5    A    
C1    O1    A    
C30   O12   S    
C23   H15   S    
C28   N2    A    
C24   H16   S    
C7    C25   S    
O1    Zn1   S    
C35   C40   A    
C29   C31   A    
C30   C32   A    
C11   C13   A    
C11   C41   S    
C16   C19   A    
C30   N2    A    
N4    Zn2   S    
C17   C19   A    
C34   C36   A    
C15   H9    S    
C37   H1    S    
S1    O15   S    
C38   H2    S    
C40   H4    S    
C28   C36   A    
C16   C18   A    
C21   C24   A    
O4    Zn2   S    
C22   C23   A    
O2    Zn2   S    
C2    O2    A    
C29   O11   S    
