data_mof_unit_40047.cif
_audit_creation_date              2012-12-11T14:55:57-0500
_audit_creation_method            fapswitch 2.2
_symmetry_space_group_name_H-M    P1
_symmetry_Int_Tables_number       1
_space_group_crystal_system       triclinic
_cell_length_a                    28.047822
_cell_length_b                    17.369926
_cell_length_c                    18.031701
_cell_angle_alpha                 90.107473
_cell_angle_beta                  138.10974
_cell_angle_gamma                 89.938597
_cell_volume                      5865.6788636

loop_
_atom_site_label
_atom_site_type_symbol
_atom_type_description
_atom_site_fract_x
_atom_site_fract_y
_atom_site_fract_z
_atom_type_partial_charge
C1    C     C_R   0.688423 0.892983 0.792794 0.545717
C2    C     C_3   0.271482 0.703520 0.006436 -0.134343
C3    C     C_3   0.707613 0.693113 0.907316 -0.059690
C4    C     C_3   0.208376 0.806904 0.908741 -0.058018
C5    C     C_3   0.791622 0.193079 0.091281 -0.058026
C6    C     C_3   0.837855 0.758215 0.051948 -0.093097
C7    C     C_3   0.162148 0.241774 0.948044 -0.093106
C8    C     C_3   0.251704 0.777233 0.025295 -0.089415
C9    C     C_3   0.748318 0.222747 0.974733 -0.089357
C10   C     C_3   0.794711 0.729154 0.933948 -0.120150
C11   C     C_3   0.205280 0.270828 0.066039 -0.120146
C12   C     C_3   0.705366 0.229216 0.066732 -0.121282
C13   C     C_3   0.224716 0.345803 0.046144 -0.143842
C14   C     C_3   0.294616 0.770810 0.933240 -0.121336
C15   C     C_3   0.249909 0.276937 0.976519 -0.087020
C16   C     C_3   0.750095 0.723082 0.023493 -0.087000
C17   C     C_3   0.318342 0.815815 0.069819 0.140045
C18   C     C_3   0.681661 0.184191 0.930179 0.140039
C19   C     C_3   0.727805 0.766747 0.889436 0.141932
C20   C     C_3   0.272195 0.233252 0.110563 0.141933
C21   C     C_3   0.771870 0.266799 0.109925 0.141552
C22   C     C_3   0.228131 0.733201 0.890077 0.141544
C23   C     C_3   0.182870 0.315433 0.930695 0.140256
C24   C     C_3   0.775267 0.654191 0.953850 -0.143873
C25   C     C_3   0.817125 0.684568 0.069305 0.140261
C26   C     C_3   0.275606 0.845871 0.953925 -0.142677
C27   C     C_3   0.724373 0.154138 0.046066 -0.142699
C28   C     C_3   0.770300 0.796716 0.005409 -0.134910
C29   C     C_3   0.229712 0.203290 0.994595 -0.134896
C30   C     C_R   0.702498 0.759291 0.571894 -0.035058
C31   C     C_R   0.297500 0.240712 0.428098 -0.035053
C32   C     C_R   0.394329 0.864390 0.654961 -0.004141
C33   C     C_R   0.311577 0.107016 0.207204 0.545711
C34   C     C_R   0.605674 0.135611 0.345042 -0.004158
C35   C     C_R   0.105313 0.364044 0.344514 -0.004282
C36   C     C_R   0.894687 0.635951 0.655487 -0.004278
C37   C     C_R   0.797789 0.259577 0.428972 -0.034897
C38   C     C_R   0.202206 0.740412 0.571000 -0.034901
C39   C     C_R   0.278656 0.367240 0.460165 -0.249442
C40   C     C_R   0.721338 0.632764 0.539818 -0.249445
C41   C     C_R   0.606718 0.236081 0.252949 -0.246976
C42   C     C_R   0.393277 0.763898 0.747016 -0.246978
C43   C     C_R   0.893565 0.736572 0.747693 -0.246789
C44   C     C_R   0.333657 0.919743 0.182195 0.463307
C45   C     C_R   0.106434 0.263425 0.252306 -0.246785
C46   C     C_R   0.220664 0.866716 0.538305 -0.249439
C47   C     C_R   0.779336 0.133275 0.461682 -0.249440
C48   C     C_R   0.325057 0.310085 0.490840 0.461448
C49   C     C_R   0.674938 0.689921 0.509144 0.461447
C50   C     C_R   0.570113 0.195850 0.266029 0.468601
C51   C     C_R   0.429886 0.804143 0.733963 0.468597
C52   C     C_R   0.930152 0.696437 0.734399 0.468641
C53   C     C_R   0.069848 0.303557 0.265603 0.468640
C54   C     C_R   0.174443 0.809448 0.507849 0.461503
C55   C     C_R   0.666344 0.080259 0.817805 0.463303
C56   C     C_R   0.825554 0.190545 0.492134 0.461501
C57   C     C_R   0.223247 0.229493 0.338719 -0.262720
C58   C     C_R   0.776752 0.770508 0.661276 -0.262717
C59   C     C_R   0.665611 0.102933 0.380832 -0.253320
C60   C     C_R   0.334390 0.897061 0.619169 -0.253329
C61   C     C_R   0.835039 0.602944 0.620234 -0.253246
C62   C     C_R   0.164958 0.397053 0.379762 -0.253247
C63   C     C_R   0.276488 0.729519 0.660413 -0.263207
C64   C     C_R   0.723505 0.270460 0.339545 -0.263241
C65   C     C_R   0.177838 0.282145 0.320446 0.098403
C66   C     C_R   0.167479 0.419072 0.818141 0.464415
C67   C     C_R   0.822159 0.717854 0.679548 0.098405
C68   C     C_R   0.706685 0.148614 0.382479 0.107085
C69   C     C_R   0.293313 0.851374 0.617503 0.107079
C70   C     C_R   0.793915 0.648491 0.618742 0.107113
C71   C     C_R   0.206080 0.351510 0.381248 0.107115
C72   C     C_R   0.321761 0.782258 0.678568 0.098607
C73   C     C_R   0.678234 0.217723 0.321398 0.098612
C74   C     C_R   0.329436 0.103100 0.420967 -0.119333
C75   C     C_R   0.670564 0.896901 0.579031 -0.119333
C76   C     C_R   0.636196 0.068116 0.502710 -0.082319
C77   C     C_R   0.832516 0.580930 0.181859 0.464435
C78   C     C_R   0.363805 0.931885 0.497291 -0.082312
C79   C     C_R   0.863798 0.568335 0.497283 -0.081020
C80   C     C_R   0.136202 0.431663 0.502718 -0.081030
C81   C     C_R   0.170503 0.603020 0.578833 -0.119304
C82   C     C_R   0.829494 0.396976 0.421156 -0.119310
C83   C     C_R   0.445208 0.837979 0.583775 -0.086160
C84   C     C_R   0.554793 0.162021 0.416226 -0.086158
C85   C     C_R   0.587924 0.805203 0.493828 -0.068973
C86   C     C_R   0.412075 0.194798 0.506170 -0.068969
C87   C     C_R   0.912163 0.305312 0.506377 -0.070412
C88   C     C_R   0.811566 0.393129 0.206779 0.543197
C89   C     C_R   0.087835 0.694685 0.493613 -0.070435
C90   C     C_R   0.054792 0.337749 0.416205 -0.084722
C91   C     C_R   0.945209 0.662248 0.583797 -0.084716
C92   C     C_R   0.582358 0.171241 0.724785 -0.193676
C93   C     C_R   0.417644 0.828763 0.275214 -0.193677
C94   C     C_R   0.396023 0.194547 0.289634 -0.189118
C95   C     C_R   0.603977 0.805452 0.710364 -0.189132
C96   C     C_R   0.104001 0.694450 0.711027 -0.187572
C97   C     C_R   0.895999 0.305549 0.288974 -0.187563
C98   C     C_R   0.916864 0.671338 0.274641 -0.193322
C99   C     C_R   0.188434 0.606872 0.793219 0.543260
C100  C     C_R   0.083134 0.328661 0.725357 -0.193329
C101  C     C_R   0.675429 0.818488 0.797312 -0.082206
C102  C     C_R   0.324572 0.181510 0.202684 -0.082206
C103  C     C_R   0.360586 0.859202 0.171964 -0.071840
C104  C     C_R   0.639417 0.140803 0.828035 -0.071838
C105  C     C_R   0.140875 0.358554 0.828648 -0.073525
C106  C     C_R   0.859122 0.641445 0.171350 -0.073549
C107  C     C_R   0.824564 0.318744 0.201771 -0.082013
C108  C     C_R   0.175437 0.681256 0.798231 -0.082009
C109  C     C_R   0.345451 0.180025 0.456612 0.106586
C110  C     C_3   0.728543 0.296476 0.993572 -0.134376
C111  C     C_R   0.654548 0.819977 0.543384 0.106591
C112  C     C_R   0.597159 0.121388 0.415729 0.074280
C113  C     C_R   0.402843 0.878613 0.584273 0.074266
C114  C     C_R   0.902916 0.621708 0.584387 0.073735
C115  C     C_R   0.097085 0.378289 0.415614 0.073739
C116  C     C_R   0.154399 0.679816 0.542963 0.106172
C117  C     C_R   0.845596 0.320177 0.457019 0.106167
C118  C     C_3   0.661378 0.257955 0.948316 -0.091918
C119  C     C_3   0.338628 0.742066 0.051662 -0.091919
C120  C     C_3   0.292380 0.306898 0.092691 -0.059714
Cl1   Cl    Cl    0.767456 0.916859 0.836314 -0.626274
Cl2   Cl    Cl    0.415423 0.324944 0.619998 -0.674218
Cl3   Cl    Cl    0.518996 0.778131 0.818713 -0.665040
Cl4   Cl    Cl    0.481003 0.221865 0.181285 -0.665046
Cl5   Cl    Cl    0.980890 0.277095 0.181250 -0.664999
Cl6   Cl    Cl    0.019112 0.722895 0.818756 -0.664988
Cl7   Cl    Cl    0.915956 0.176327 0.621446 -0.674540
Cl8   Cl    Cl    0.084039 0.823677 0.378547 -0.674542
Cl9   Cl    Cl    0.232544 0.083144 0.163686 -0.626279
Cl10  Cl    Cl    0.250058 0.960937 0.067214 -0.632734
Cl11  Cl    Cl    0.749940 0.039057 0.932791 -0.632744
Cl12  Cl    Cl    0.251435 0.459953 0.932620 -0.630105
Cl13  Cl    Cl    0.748548 0.540089 0.067402 -0.630053
Cl14  Cl    Cl    0.732698 0.416505 0.164020 -0.626417
Cl15  Cl    Cl    0.267300 0.583498 0.835969 -0.626429
Cl16  Cl    Cl    0.584573 0.675070 0.379978 -0.674206
H1    H     H_    0.917976 0.786693 0.801352 0.189470
H2    H     H_    0.722658 0.923302 0.635678 0.152608
H3    H     H_    0.675884 0.029124 0.528181 0.102060
H4    H     H_    0.324117 0.970877 0.471824 0.102060
H5    H     H_    0.824049 0.529444 0.471722 0.101895
H6    H     H_    0.175953 0.470551 0.528279 0.101893
H7    H     H_    0.222610 0.576697 0.635415 0.152861
H8    H     H_    0.777387 0.423297 0.364571 0.152874
H9    H     H_    0.480227 0.790750 0.636286 0.167184
H10   H     H_    0.519775 0.209252 0.363715 0.167185
H11   H     H_    0.565504 0.749538 0.480701 0.146415
H12   H     H_    0.082023 0.213303 0.198649 0.189471
H13   H     H_    0.434496 0.250462 0.519294 0.146422
H14   H     H_    0.934600 0.249602 0.519615 0.146051
H15   H     H_    0.065397 0.750395 0.480373 0.146064
H16   H     H_    0.019758 0.290454 0.363669 0.167609
H17   H     H_    0.980243 0.709543 0.636335 0.167604
H18   H     H_    0.552741 0.222678 0.704261 0.169419
H19   H     H_    0.447261 0.777327 0.295737 0.169427
H20   H     H_    0.422320 0.249940 0.318268 0.134453
H21   H     H_    0.577680 0.750059 0.681729 0.134452
H22   H     H_    0.078025 0.750020 0.682188 0.134264
H23   H     H_    0.198753 0.918553 0.488340 0.179399
H24   H     H_    0.921975 0.249980 0.317815 0.134262
H25   H     H_    0.947049 0.722173 0.295183 0.169343
H26   H     H_    0.052949 0.277826 0.704813 0.169345
H27   H     H_    0.234662 0.779808 0.064526 0.176287
H28   H     H_    0.765376 0.220153 0.935525 0.176304
H29   H     H_    0.811096 0.732887 0.893866 0.161941
H30   H     H_    0.188889 0.267079 0.106111 0.161960
H31   H     H_    0.689697 0.233109 0.107859 0.162102
H32   H     H_    0.310269 0.766935 0.892091 0.162095
H33   H     H_    0.267638 0.279402 0.938309 0.177500
H34   H     H_    0.801249 0.081444 0.511659 0.179401
H35   H     H_    0.732374 0.720630 0.061713 0.177505
H36   H     H_    0.607108 0.283505 0.887923 0.181456
H37   H     H_    0.392901 0.716534 0.112037 0.181464
H38   H     H_    0.346247 0.333438 0.152581 0.167475
H39   H     H_    0.653741 0.666582 0.847431 0.167487
H40   H     H_    0.154480 0.833254 0.849548 0.168467
H41   H     H_    0.845516 0.166712 0.150493 0.168440
H42   H     H_    0.892111 0.783897 0.113015 0.181496
H43   H     H_    0.107897 0.216083 0.886974 0.181499
H44   H     H_    0.731278 0.355620 0.973593 0.178052
H45   H     H_    0.300411 0.419310 0.509878 0.179355
H46   H     H_    0.268766 0.644370 0.026423 0.178106
H47   H     H_    0.221076 0.405196 0.064427 0.162928
H48   H     H_    0.778895 0.594792 0.935565 0.162921
H49   H     H_    0.278915 0.905172 0.935186 0.163812
H50   H     H_    0.721044 0.094841 0.064796 0.163797
H51   H     H_    0.767270 0.855939 0.025022 0.178958
H52   H     H_    0.232755 0.144072 0.974986 0.178933
H53   H     H_    0.798885 0.822971 0.709837 0.176543
H54   H     H_    0.201114 0.177028 0.290163 0.176542
H55   H     H_    0.310963 0.949439 0.570995 0.140404
H56   H     H_    0.699582 0.580697 0.490100 0.179357
H57   H     H_    0.689041 0.050560 0.429016 0.140402
H58   H     H_    0.188214 0.449623 0.427755 0.140387
H59   H     H_    0.811782 0.550375 0.572239 0.140389
H60   H     H_    0.701234 0.322701 0.290739 0.176462
H61   H     H_    0.298758 0.677273 0.709208 0.176447
H62   H     H_    0.582179 0.285996 0.199129 0.189486
H63   H     H_    0.417812 0.713977 0.800823 0.189493
H64   H     H_    0.277342 0.076699 0.364320 0.152611
N1    N     N_R   0.625380 0.928280 0.709340 -0.094971
N2    N     N_R   0.613900 0.929750 0.547530 -0.049064
N3    N     N_R   0.613900 0.070250 0.547530 -0.040090
N4    N     N_R   0.386100 0.929750 0.452470 -0.040088
N5    N     N_R   0.886100 0.570250 0.452470 -0.039736
N6    N     N_R   0.113900 0.429750 0.547530 -0.039740
N7    N     N_R   0.113900 0.570250 0.547530 -0.049131
N8    N     N_R   0.886100 0.429750 0.452470 -0.049132
N9    N     N_R   0.437800 0.869550 0.507970 -0.056948
N10   N     N_R   0.562200 0.130450 0.492030 -0.056949
N11   N     N_R   0.562200 0.869550 0.492030 -0.058438
N12   N     N_R   0.374620 0.071720 0.290660 -0.094974
N13   N     N_R   0.437800 0.130450 0.507970 -0.058438
N14   N     N_R   0.937800 0.369550 0.507970 -0.058432
N15   N     N_R   0.062200 0.630450 0.492030 -0.058435
N16   N     N_R   0.062200 0.369550 0.492030 -0.056925
N17   N     N_R   0.937800 0.630450 0.507970 -0.056925
N18   N     N_R   0.573690 0.128980 0.653840 -0.069890
N19   N     N_R   0.426310 0.871020 0.346160 -0.069890
N20   N     N_R   0.426310 0.128980 0.346160 -0.072036
N21   N     N_R   0.573690 0.871020 0.653840 -0.072034
N22   N     N_R   0.073690 0.628980 0.653840 -0.072136
N23   N     N_R   0.374620 0.928280 0.290660 -0.080988
N24   N     N_R   0.926310 0.371020 0.346160 -0.072138
N25   N     N_R   0.926310 0.628980 0.346160 -0.069524
N26   N     N_R   0.073690 0.371020 0.653840 -0.069526
N27   N     N_R   0.625380 0.071720 0.709340 -0.080991
N28   N     N_R   0.125380 0.428280 0.709340 -0.081212
N29   N     N_R   0.874620 0.571720 0.290660 -0.081204
N30   N     N_R   0.874620 0.428280 0.290660 -0.095144
N31   N     N_R   0.125380 0.571720 0.709340 -0.095137
N32   N     N_R   0.386100 0.070250 0.452470 -0.049064
Ni1   Ni    Ni4+2 0.616560 0.000000 0.627280 0.295843
Ni2   Ni    Ni4+2 0.383440 1.000000 0.372720 0.295847
Ni3   Ni    Ni4+2 0.116560 0.500000 0.627280 0.296173
Ni4   Ni    Ni4+2 0.883440 0.500000 0.372720 0.296181
Ni5   Ni    Ni4+2 0.497990 0.870580 0.500000 0.212025
Ni6   Ni    Ni4+2 0.502010 0.129420 0.500000 0.212024
Ni7   Ni    Ni4+2 0.997990 0.370580 0.500000 0.211612
Ni8   Ni    Ni4+2 0.002010 0.629420 0.500000 0.211617

loop_
_geom_bond_atom_site_label_1
_geom_bond_atom_site_label_2
_ccdc_geom_bond_type
C61   C70   A    
C16   C28   S    
C88   N30   A    
C97   N24   A    
C7    C29   S    
C24   H48   S    
C45   H12   S    
C51   Cl3   S    
C83   C113  A    
C96   H22   S    
N1    N21   A    
N2    N11   A    
C4    C8    S    
C36   C114  S    
C93   C103  A    
C12   H31   S    
C82   N8    A    
C21   C110  S    
C76   N3    A    
N7    Ni3   S    
C59   H57   S    
C7    C11   S    
C99   C108  A    
N5    N17   A    
C100  C105  A    
C95   N21   A    
C40   C70   A    
C39   C48   A    
C17   C26   S    
N10   Ni6   S    
C42   H63   S    
N9    Ni5   S    
C87   C117  A    
C10   H29   S    
C48   Cl2   S    
C26   H49   S    
C84   N10   A    
C43   C52   A    
C6    C25   S    
C35   C53   A    
C46   H23   S    
C44   Cl10  S    
C40   C49   A    
C23   C105  S    
C30   C58   A    
C16   C25   S    
C34   C112  S    
C15   C120  S    
C13   C23   S    
C15   H33   S    
C2    H46   S    
C56   Cl7   S    
C55   N27   A    
C19   C101  S    
C46   C69   A    
N4    Ni2   S    
C83   H9    S    
C37   C56   A    
N1    Ni1   S    
C75   N2    A    
C6    C28   S    
C89   H15   S    
C13   H47   S    
C87   H14   S    
C38   C54   A    
N4    N9    A    
C2    C22   S    
C11   H30   S    
C64   C73   A    
N11   Ni5   S    
N3    N10   A    
C35   C115  S    
C118  H36   S    
C32   C113  S    
C61   H59   S    
C36   C52   A    
C37   C117  S    
C42   C51   A    
C81   N7    A    
C98   N25   A    
C15   C23   S    
C4    C22   S    
C96   C108  A    
C89   C116  A    
C1    N1    A    
C5    C27   S    
C6    H42   S    
C110  C118  S    
C3    C24   S    
C77   Cl13  S    
C74   C109  A    
C85   N11   A    
C20   C102  S    
N32   Ni2   S    
C44   C103  A    
C25   C106  S    
C15   C29   S    
C66   Cl12  S    
C20   C29   S    
N27   Ni1   S    
C96   N22   A    
C4    C26   S    
C34   C50   A    
N18   Ni6   S    
C41   C73   A    
C12   C27   S    
C99   Cl15  S    
C33   C102  A    
C97   H24   S    
C93   H19   S    
C86   C109  A    
C50   Cl4   S    
C24   C25   S    
C90   H16   S    
N13   Ni6   S    
C28   H51   S    
C57   C65   A    
C88   C107  A    
C52   Cl6   S    
C18   C104  S    
N12   N20   A    
C10   C24   S    
C68   C73   A    
C79   N5    A    
C80   N6    A    
C11   C20   S    
C45   C53   A    
N25   N29   A    
C63   H61   S    
C47   H34   S    
N21   Ni5   S    
C37   C64   A    
C27   H50   S    
C97   C107  A    
C91   N17   A    
C9    H28   S    
C92   N18   A    
C77   N29   A    
C32   C51   A    
C5    C9    S    
N23   Ni2   S    
N24   N30   A    
C59   C68   A    
C74   N32   A    
C38   C116  S    
C9    C18   S    
C92   C104  A    
N12   Ni2   S    
C40   H56   S    
C80   C115  A    
C110  H44   S    
C10   C19   S    
C76   C112  A    
C3    C19   S    
C46   C54   A    
C58   H53   S    
N7    N15   A    
C31   C109  S    
C7    H43   S    
C43   C67   A    
C44   N23   A    
C84   C112  A    
C90   N16   A    
C14   C26   S    
C100  N26   A    
C19   C28   S    
N17   Ni8   S    
C5    H41   S    
C30   C49   A    
C39   H45   S    
N13   N32   A    
C53   Cl5   S    
C12   C118  S    
C82   H8    S    
C98   H25   S    
C21   C107  S    
C49   Cl16  S    
C74   H64   S    
N22   N31   A    
C55   Cl11  S    
C31   C48   A    
C45   C65   A    
C34   C59   A    
N31   Ni3   S    
C33   Cl9   S    
C86   H13   S    
C78   C113  A    
C94   N20   A    
C62   H58   S    
C66   C105  A    
C14   H32   S    
C36   C61   A    
C1    C101  A    
C41   C50   A    
C20   C120  S    
C13   C120  S    
C3    H39   S    
C38   C63   A    
C76   H3    S    
C120  H38   S    
C9    C110  S    
N8    Ni4   S    
C77   C106  A    
C80   H6    S    
N8    N14   A    
N26   Ni7   S    
C95   H21   S    
N16   Ni7   S    
C75   C111  A    
C83   N9    A    
N5    Ni4   S    
C2    C8    S    
C18   C27   S    
C85   H11   S    
C78   N4    A    
C41   H62   S    
C85   C111  A    
C75   H2    S    
C78   H4    S    
C6    C10   S    
C99   N31   A    
C2    C119  S    
C8    H27   S    
C91   H17   S    
C18   C118  S    
N15   Ni8   S    
C84   H10   S    
N20   Ni6   S    
N26   N28   A    
C8    C17   S    
C98   C106  A    
C29   H52   S    
C89   N15   A    
C30   C111  S    
C93   N19   A    
C67   C70   A    
N6    N16   A    
N30   Ni4   S    
C14   C22   S    
N29   Ni4   S    
C90   C115  A    
N14   Ni7   S    
C17   C103  S    
C86   N13   A    
C88   Cl14  S    
C57   H54   S    
C65   C71   A    
C119  H37   S    
N2    Ni1   S    
C11   C13   S    
C16   H35   S    
C31   C57   A    
C47   C68   A    
C79   H5    S    
C7    C23   S    
C54   Cl8   S    
C60   C69   A    
C55   C104  A    
C60   H55   S    
C22   C108  S    
N19   Ni5   S    
C64   H60   S    
C81   C116  A    
N22   Ni8   S    
C33   N12   A    
C87   N14   A    
C62   C71   A    
C43   H1    S    
C35   C62   A    
N24   Ni7   S    
C1    Cl1   S    
C17   C119  S    
N19   N23   A    
C12   C21   S    
N3    Ni1   S    
C58   C67   A    
C81   H7    S    
C5    C21   S    
C63   C72   A    
C94   C102  A    
C94   H20   S    
C14   C119  S    
C4    H40   S    
C79   C114  A    
C66   N28   A    
N25   Ni8   S    
C32   C60   A    
N6    Ni3   S    
C92   H18   S    
N18   N27   A    
C69   C72   A    
C82   C117  A    
C100  H26   S    
C42   C72   A    
C91   C114  A    
C3    C16   S    
C95   C101  A    
C47   C56   A    
C39   C71   A    
N28   Ni3   S    
