data_mof_unit_31490.cif
_audit_creation_date              2012-12-10T17:02:14-0500
_audit_creation_method            fapswitch 2.2
_symmetry_space_group_name_H-M    P1
_symmetry_Int_Tables_number       1
_space_group_crystal_system       triclinic
_cell_length_a                    10.631971
_cell_length_b                    10.716225
_cell_length_c                    10.02892
_cell_angle_alpha                 89.20064
_cell_angle_beta                  90.000147
_cell_angle_gamma                 90.030762
_cell_volume                      1142.52955613

loop_
_atom_site_label
_atom_site_type_symbol
_atom_type_description
_atom_site_fract_x
_atom_site_fract_y
_atom_site_fract_z
_atom_type_partial_charge
C1    C     C_R   0.494056 0.262689 0.500865 0.936303
C2    C     C_R   0.065919 0.387531 0.563516 0.091775
C3    C     C_R   0.128301 0.488110 0.499800 -0.097611
C4    C     C_R   0.064299 0.583262 0.433026 -0.199316
C5    C     C_R   0.935786 0.583220 0.433013 -0.218219
C6    C     C_R   0.871712 0.488048 0.499797 -0.090388
C7    C     C_2   0.450376 0.934276 0.391288 0.519787
C8    C     C_2   0.500879 0.869931 0.494123 -0.447329
C9    C     C_2   0.459123 0.069607 0.390242 -0.246040
C10   C     C_2   0.472637 0.131708 0.503742 -0.418336
C11   C     C_2   0.576018 0.567824 0.924011 -0.126824
C12   C     C_R   0.260552 0.496624 0.500047 0.870770
C13   C     C_2   0.581664 0.561024 0.074020 -0.153789
C14   C     C_R   0.498138 0.737495 0.498724 0.971677
C15   C     C_R   0.739443 0.496521 0.500027 0.858536
C16   C     C_R   0.131087 0.286176 0.623450 -0.179225
C17   C     C_R   0.065411 0.187635 0.683320 -0.131001
C18   C     C_R   0.934519 0.187569 0.683243 -0.137554
C19   C     C_R   0.868845 0.286055 0.623333 -0.178717
C20   C     C_R   0.934050 0.387489 0.563494 0.095907
H1    H     H_    0.114201 0.659008 0.383316 0.169795
H2    H     H_    0.463757 0.087473 0.601276 0.160088
H3    H     H_    0.640730 0.630939 0.873582 0.160927
H4    H     H_    0.445352 0.436096 0.898833 0.164608
H5    H     H_    0.656392 0.612110 0.122736 0.157622
H6    H     H_    0.426121 0.459363 0.102721 0.166938
H7    H     H_    0.232598 0.281027 0.623039 0.146076
H8    H     H_    0.116254 0.110554 0.728767 0.135694
H9    H     H_    0.883678 0.110408 0.728607 0.134167
H10   H     H_    0.767304 0.280784 0.622725 0.149932
H11   H     H_    0.885939 0.658920 0.383269 0.146851
H12   H     H_    0.552524 0.913568 0.574199 0.115427
H13   H     H_    0.455752 0.118268 0.294629 0.176479
N1    N     N_2   0.501340 0.501330 0.852150 -0.188880
N2    N     N_2   0.501380 0.501360 0.147810 -0.191093
O1    O     O_R   0.499980 0.319060 0.613040 -0.634039
O2    O     O_R   0.500020 0.319100 0.386900 -0.608257
O3    O     O_R   0.316750 0.499980 0.613090 -0.618132
O4    O     O_R   0.316790 0.500020 0.386950 -0.608971
O5    O     O_R   0.499980 0.680900 0.613100 -0.619790
O6    O     O_R   0.500020 0.680940 0.386960 -0.580352
O7    O     O_R   0.683210 0.499980 0.613050 -0.617357
O8    O     O_R   0.683250 0.500020 0.386910 -0.613963
Zn1   Zn    Zn3+2 0.499970 0.499970 0.650990 0.935038
Zn2   Zn    Zn3+2 0.500030 0.500030 0.349010 0.951653
O9    O     O_3   0.382978 0.874460 0.291885 -0.625099
C21   C     C_3   0.442146 0.890072 0.166028 0.103949
H14   H     H_    0.464204 0.795829 0.127936 0.177614
H15   H     H_    0.533143 0.942238 0.168378 0.103219
C22   C     C_3   0.351477 0.954144 0.068406 -0.348639
H16   H     H_    0.263221 0.898832 0.062402 0.234836
H17   H     H_    0.327588 0.048595 0.104989 0.216677
C23   C     C_3   0.408786 0.966261 0.929171 -0.973602
H18   H     H_    0.495899 0.023441 0.932164 0.262390
H19   H     H_    0.340603 0.012647 0.860805 0.263283
H20   H     H_    0.431414 0.872611 0.889475 0.274505

loop_
_geom_bond_atom_site_label_1
_geom_bond_atom_site_label_2
_ccdc_geom_bond_type
C22   H17   S    
O3    Zn1   S    
C2    C16   A    
C11   C13   S    
C9    C10   D    
C19   C20   A    
C1    O2    A    
O4    Zn2   S    
C17   H8    S    
C12   O4    A    
C17   C18   A    
C15   O8    A    
C7    C8    D    
C21   H15   S    
C18   H9    S    
C23   H18   S    
C10   H2    S    
C9    H13   S    
C4    H1    S    
O8    Zn2   S    
C13   H5    S    
O7    Zn1   S    
C16   H7    S    
C14   O6    A    
C13   N2    D    
C11   H3    S    
C14   O5    A    
C2    C3    A    
C21   C22   S    
C23   H19   S    
C12   O3    A    
C5    C6    A    
O1    Zn1   S    
C22   C23   S    
O2    Zn2   S    
C3    C4    A    
C8    H12   S    
C7    O9    S    
H6    N2    S    
O5    Zn1   S    
C6    C20   A    
C15   O7    A    
C18   C19   A    
C23   H20   S    
C7    C9    S    
N1    Zn1   S    
O6    Zn2   S    
O9    C21   S    
C16   C17   A    
C8    C14   S    
C3    C12   S    
C22   H16   S    
C6    C15   S    
C19   H10   S    
C2    C20   A    
C11   N1    D    
H4    N1    S    
C1    C10   S    
C21   H14   S    
C1    O1    A    
C4    C5    A    
C5    H11   S    
N2    Zn2   S    
