data_mof_unit_18095.cif
_audit_creation_date              2012-12-10T19:47:23-0500
_audit_creation_method            fapswitch 2.2
_symmetry_space_group_name_H-M    P1
_symmetry_Int_Tables_number       1
_space_group_crystal_system       triclinic
_cell_length_a                    10.861574
_cell_length_b                    10.830878
_cell_length_c                    12.750976
_cell_angle_alpha                 92.225293
_cell_angle_beta                  92.487314
_cell_angle_gamma                 90.172256
_cell_volume                      1497.46976962

loop_
_atom_site_label
_atom_site_type_symbol
_atom_type_description
_atom_site_fract_x
_atom_site_fract_y
_atom_site_fract_z
_atom_type_partial_charge
C1    C     C_R   0.261971 0.502386 0.500994 0.783590
C2    C     C_R   0.738029 0.497609 0.499006 0.783575
C3    C     C_R   0.495078 0.871565 0.497725 -0.078341
C4    C     C_R   0.504927 0.128435 0.502274 -0.078342
C5    C     C_R   0.431607 0.935636 0.417870 0.000144
C6    C     C_R   0.568397 0.064364 0.582130 0.000144
C7    C     C_R   0.190777 0.577255 0.872383 -0.131400
C8    C     C_R   0.809301 0.422759 0.127589 -0.131393
C9    C     C_R   0.126071 0.532339 0.781685 -0.129720
C10   C     C_R   0.873993 0.467654 0.218300 -0.129746
C11   C     C_R   0.128685 0.597425 0.688667 0.123626
C12   C     C_R   0.871316 0.402581 0.311321 0.123618
C13   C     C_R   0.193880 0.709641 0.688338 -0.099698
C14   C     C_R   0.806072 0.290392 0.311640 -0.099623
C15   C     C_R   0.259133 0.753799 0.779052 -0.108897
C16   C     C_R   0.740831 0.246255 0.220913 -0.108900
C17   C     C_R   0.258105 0.687176 0.870676 -0.131301
C18   C     C_R   0.741923 0.312868 0.129285 -0.131329
C19   C     C_R   0.937765 0.540928 0.588026 -0.252678
C20   C     C_R   0.062235 0.459056 0.411974 -0.252677
C21   C     C_R   0.871733 0.495922 0.497678 -0.082259
C22   C     C_R   0.128267 0.504065 0.502322 -0.082258
C23   C     C_R   0.503161 0.262089 0.501079 0.784039
C24   C     C_R   0.496841 0.737911 0.498921 0.784057
C25   C     C_R   0.934665 0.453728 0.408588 -0.004248
C26   C     C_R   0.065334 0.546258 0.591410 -0.004255
C27   C     C_2   0.473831 0.458566 0.031602 -0.151079
C28   C     C_2   0.526170 0.541434 0.968398 -0.151074
C29   C     C_1   0.522492 0.527588 0.852463 0.191266
C30   C     C_1   0.477509 0.472412 0.147537 0.191276
C31   C     C_R   0.817456 0.259786 0.726461 -0.115554
C32   C     C_R   0.182534 0.740220 0.273554 -0.115558
C33   C     C_R   0.742208 0.206292 0.645161 -0.086970
C34   C     C_R   0.257787 0.793716 0.354850 -0.086982
C35   C     C_R   0.645760 0.125998 0.667777 0.112714
C36   C     C_R   0.354239 0.874002 0.332227 0.112717
C37   C     C_R   0.627976 0.098042 0.772778 -0.126836
C38   C     C_R   0.372023 0.901948 0.227224 -0.126838
C39   C     C_R   0.704686 0.149953 0.853530 -0.126383
C40   C     C_R   0.295307 0.850035 0.146477 -0.126377
C41   C     C_R   0.798715 0.231705 0.830631 -0.133470
C42   C     C_R   0.201273 0.768290 0.169382 -0.133457
C43   C     C_R   0.561791 0.936157 0.578788 -0.237166
C44   C     C_R   0.438214 0.063842 0.421211 -0.237167
Cu1   Cu    Cu3+1 0.492140 0.492110 0.395880 0.989843
Cu2   Cu    Cu3+1 0.507860 0.507890 0.604120 0.989848
H1    H     H_    0.857811 0.272213 0.893409 0.128237
H2    H     H_    0.142173 0.727781 0.106607 0.128237
H3    H     H_    0.195919 0.761434 0.617572 0.096253
H4    H     H_    0.803982 0.238607 0.382408 0.096238
H5    H     H_    0.311438 0.838948 0.778034 0.128417
H6    H     H_    0.688488 0.161130 0.221922 0.128414
H7    H     H_    0.889848 0.574769 0.656215 0.164615
H8    H     H_    0.110153 0.425216 0.343785 0.164614
H9    H     H_    0.891221 0.321769 0.708562 0.127641
H10   H     H_    0.108764 0.678245 0.291459 0.127639
H11   H     H_    0.759574 0.226786 0.564793 0.084265
H12   H     H_    0.240424 0.773229 0.435220 0.084267
H13   H     H_    0.555318 0.035135 0.792019 0.130535
H14   H     H_    0.444684 0.964848 0.207978 0.130535
H15   H     H_    0.691665 0.125296 0.933616 0.130350
H16   H     H_    0.308327 0.874684 0.066389 0.130343
H17   H     H_    0.612625 0.885950 0.638485 0.157761
H18   H     H_    0.387380 0.114049 0.361515 0.157761
H19   H     H_    0.310941 0.719581 0.939936 0.126603
H20   H     H_    0.689100 0.280480 0.060013 0.126618
H21   H     H_    0.190119 0.526074 0.943600 0.133903
H22   H     H_    0.810009 0.473931 0.056370 0.133894
H23   H     H_    0.076045 0.445860 0.783318 0.118420
H24   H     H_    0.924061 0.554109 0.216673 0.118412
N1    N     N_1   0.480320 0.480250 0.239400 -0.149189
N2    N     N_1   0.519680 0.519750 0.760600 -0.149184
O1    O     O_R   0.313000 0.493330 0.412070 -0.585081
O2    O     O_R   0.687000 0.506670 0.587930 -0.585082
O3    O     O_R   0.326280 0.506660 0.587930 -0.562571
O4    O     O_R   0.673720 0.493340 0.412070 -0.562577
O5    O     O_R   0.493370 0.312980 0.412070 -0.585657
O6    O     O_R   0.506630 0.687020 0.587930 -0.585646
O7    O     O_R   0.506650 0.326310 0.587930 -0.561393
O8    O     O_R   0.493350 0.673690 0.412070 -0.561392
C45   C     C_1   0.586567 0.650998 0.014198 0.228669
N3    N     N_1   0.634830 0.738772 0.050958 -0.300995
C46   C     C_1   0.413433 0.349002 0.985802 0.228642
N4    N     N_1   0.365169 0.261229 0.949042 -0.300998

loop_
_geom_bond_atom_site_label_1
_geom_bond_atom_site_label_2
_ccdc_geom_bond_type
Cu1   N1    S    
C45   N3    T    
C43   H17   S    
C39   C41   A    
Cu1   Cu2   S    
C44   H18   S    
C3    C43   A    
Cu1   O4    S    
C28   C29   S    
C35   C37   A    
C9    H23   S    
Cu2   O7    S    
C20   C25   A    
C5    C36   S    
C40   H16   S    
C6    C35   S    
Cu1   O1    S    
C19   C26   A    
C24   O8    A    
C7    C17   A    
C31   C33   A    
C15   H5    S    
Cu2   N2    S    
C2    O2    A    
C29   N2    T    
C19   H7    S    
C40   C42   A    
C1    C22   S    
C27   C30   S    
C3    C24   S    
Cu2   O3    S    
C30   N1    T    
C39   H15   S    
C1    O3    A    
C20   H8    S    
Cu2   O6    S    
C4    C23   S    
C4    C44   A    
C11   C26   S    
C8    C18   A    
C32   C34   A    
C46   N4    T    
C2    C21   S    
C41   H1    S    
C16   C18   A    
C42   H2    S    
C23   O5    A    
C13   H3    S    
C9    C11   A    
C37   H13   S    
C10   C12   A    
C38   H14   S    
C10   H24   S    
C4    C6    A    
C5    C44   A    
C12   C14   A    
C8    H22   S    
C6    C43   A    
C13   C15   A    
C14   C16   A    
Cu2   O2    S    
C2    O4    A    
C24   O6    A    
C15   C17   A    
C21   C25   A    
C33   H11   S    
C31   C41   A    
C19   C21   A    
C28   C45   S    
C16   H6    S    
C20   C22   A    
C3    C5    A    
C23   O7    A    
C18   H20   S    
C17   H19   S    
C12   C25   S    
C1    O1    A    
C36   C38   A    
C37   C39   A    
C38   C40   A    
C11   C13   A    
C14   H4    S    
C27   C46   S    
C33   C35   A    
Cu1   O8    S    
C34   C36   A    
C7    H21   S    
C7    C9    A    
C8    C10   A    
C22   C26   A    
C27   C28   D    
C34   H12   S    
C32   C42   A    
Cu1   O5    S    
C31   H9    S    
C32   H10   S    
