data_mof_unit_37900.cif
_audit_creation_date              2012-12-10T17:06:42-0500
_audit_creation_method            fapswitch 2.2
_symmetry_space_group_name_H-M    P1
_symmetry_Int_Tables_number       1
_space_group_crystal_system       triclinic
_cell_length_a                    15.872701
_cell_length_b                    11.093909
_cell_length_c                    9.813188
_cell_angle_alpha                 111.179736
_cell_angle_beta                  97.945234
_cell_angle_gamma                 91.053558
_cell_volume                      1591.44202435

loop_
_atom_site_label
_atom_site_type_symbol
_atom_type_description
_atom_site_fract_x
_atom_site_fract_y
_atom_site_fract_z
_atom_type_partial_charge
C1    C     C_R   0.495791 0.254630 0.440878 0.884582
C2    C     C_R   0.504180 0.745373 0.559101 0.883138
C3    C     C_2   0.516671 0.065085 0.507846 0.223609
C4    C     C_2   0.483427 0.934623 0.491507 0.228687
C5    C     C_2   0.507204 0.510808 0.081328 -0.011717
C6    C     C_2   0.492632 0.489428 0.918725 -0.016732
C7    C     C_R   0.339984 0.500002 0.501387 0.828241
C8    C     C_R   0.660028 0.500023 0.498651 0.823548
C9    C     C_3   0.976257 0.424389 0.576445 -0.493591
C10   C     C_3   0.024019 0.578020 0.431806 -0.375797
C11   C     C_3   0.020561 0.380401 0.436688 0.382812
C12   C     C_3   0.979741 0.621017 0.571196 0.455436
C13   C     C_1   0.250759 0.500582 0.504280 -0.148828
C14   C     C_1   0.749317 0.499696 0.496232 -0.148494
C15   C     C_3   0.040301 0.546450 0.642910 0.387895
C16   C     C_3   0.961354 0.455470 0.364166 0.394276
C17   C     C_3   0.083922 0.501659 0.504503 -0.061139
C18   C     C_3   0.916675 0.500292 0.501721 -0.064512
C19   C     C_1   0.175414 0.500999 0.504896 0.056573
C20   C     C_1   0.824833 0.499828 0.497432 0.057761
C21   C     C_2   0.484764 0.117044 0.409418 -0.342639
C22   C     C_2   0.515044 0.882969 0.590420 -0.344639
Cu1   Cu    Cu3+1 0.514700 0.521810 0.644910 0.992397
Cu2   Cu    Cu3+1 0.485300 0.478190 0.355090 0.995875
H1    H     H_    0.955115 0.362296 0.634034 0.168204
H2    H     H_    0.044034 0.641401 0.374861 0.174766
H3    H     H_    0.557454 0.939010 0.691133 0.175926
H4    H     H_    0.442007 0.061314 0.309031 0.178781
H5    H     H_    0.443420 0.416812 0.845752 0.160130
H6    H     H_    0.556326 0.583562 0.154335 0.163883
H7    H     H_    0.583125 0.622883 0.934482 0.198779
H8    H     H_    0.416911 0.377058 0.065504 0.196301
N1    N     N_2   0.463210 0.445420 0.137360 -0.277179
N2    N     N_2   0.536790 0.554580 0.862640 -0.274314
O1    O     O_R   0.507840 0.332340 0.577400 -0.533923
O2    O     O_R   0.492160 0.667660 0.422600 -0.535367
O3    O     O_R   0.483020 0.295500 0.332650 -0.579851
O4    O     O_R   0.516980 0.704500 0.667350 -0.581587
O5    O     O_R   0.391490 0.518400 0.622350 -0.581832
O6    O     O_R   0.608510 0.481600 0.377650 -0.573683
O7    O     O_R   0.366660 0.481570 0.377600 -0.559357
O8    O     O_R   0.633340 0.518430 0.622400 -0.561866
O9    O     O_3   0.047892 0.256327 0.363730 -0.579509
C23   C     C_3   0.979660 0.161851 0.329892 0.088443
H9    H     H_    0.920889 0.187114 0.272845 0.178043
H10   H     H_    0.965733 0.150166 0.432656 0.156352
C24   C     C_3   0.004531 0.032671 0.227058 -0.769342
H11   H     H_    0.062419 0.003071 0.280919 0.265660
H12   H     H_    0.951629 0.957047 0.200741 0.199834
H13   H     H_    0.017746 0.041149 0.122492 0.247683
O10   O     O_3   0.956651 0.749519 0.634885 -0.562996
C25   C     C_3   0.931384 0.770934 0.773671 0.102631
H14   H     H_    0.988583 0.788682 0.859458 0.198652
H15   H     H_    0.890108 0.688241 0.772753 0.136159
C26   C     C_3   0.881242 0.891091 0.816328 -0.788574
H16   H     H_    0.823173 0.876468 0.733073 0.261819
H17   H     H_    0.861772 0.910026 0.926207 0.203021
H18   H     H_    0.921285 0.976478 0.822090 0.252209
O11   O     O_3   0.914072 0.405679 0.220241 -0.566564
C27   C     C_3   0.969662 0.384566 0.114796 0.062702
H19   H     H_    0.022458 0.325031 0.133818 0.177959
H20   H     H_    0.996954 0.478644 0.117429 0.145193
C28   C     C_3   0.919624 0.311695 0.961510 -0.752682
H21   H     H_    0.869334 0.371530 0.934758 0.262840
H22   H     H_    0.963035 0.289386 0.877476 0.180589
H23   H     H_    0.889251 0.219213 0.957518 0.258014
O12   O     O_3   0.084311 0.603264 0.788970 -0.581952
C29   C     C_3   0.116540 0.505836 0.837886 0.054496
H24   H     H_    0.155233 0.440879 0.758951 0.161251
H25   H     H_    0.063381 0.447457 0.852712 0.140948
C30   C     C_3   0.173346 0.568918 0.986897 -0.728849
H26   H     H_    0.136163 0.632884 0.069005 0.244642
H27   H     H_    0.198550 0.492979 0.027067 0.198139
H28   H     H_    0.227806 0.627411 0.976028 0.272800
Br1   Br    Br    0.388391 0.844488 0.336260 -0.532065
Br2   Br    Br    0.612213 0.154694 0.662142 -0.532098

loop_
_geom_bond_atom_site_label_1
_geom_bond_atom_site_label_2
_ccdc_geom_bond_type
C26   H16   S    
C28   H22   S    
C1    C21   S    
C9    H1    S    
C24   H12   S    
C25   H14   S    
Cu2   O2    S    
Cu1   O8    S    
C27   C28   S    
C8    O8    A    
C5    C6    S    
C10   C17   S    
O10   C25   S    
C27   H20   S    
C4    Br1   S    
C17   C19   S    
C25   H15   S    
C29   H24   S    
C5    N1    D    
C2    C22   S    
Cu1   Cu2   S    
C11   O9    S    
C23   C24   S    
C1    O3    A    
C10   H2    S    
C28   H23   S    
O11   C27   S    
Cu2   O7    S    
C23   H10   S    
C24   H13   S    
C13   C19   T    
O12   C29   S    
C14   C20   T    
C30   H27   S    
C6    N2    D    
C27   H19   S    
C16   O11   S    
O9    C23   S    
C4    C22   D    
C11   C16   S    
C2    O4    A    
C24   H11   S    
C12   C15   S    
Cu1   N2    S    
C15   O12   S    
Cu2   O3    S    
H7    N2    S    
C3    Br2   S    
C9    C11   S    
C10   C12   S    
C29   H25   S    
C21   H4    S    
Cu1   O1    S    
C22   H3    S    
C26   H17   S    
C3    C21   D    
C3    C4    S    
C12   O10   S    
C23   H9    S    
C1    O1    A    
C5    H6    S    
C2    O2    A    
C15   C17   S    
C11   C17   S    
C8    C14   S    
C30   H28   S    
C25   C26   S    
Cu1   O4    S    
Cu2   N1    S    
H8    N1    S    
C9    C15   S    
C30   H26   S    
C10   C16   S    
C29   C30   S    
Cu1   O5    S    
Cu2   O6    S    
C18   C20   S    
C7    O7    A    
C28   H21   S    
C9    C18   S    
C7    C13   S    
C6    H5    S    
C16   C18   S    
C26   H18   S    
C12   C18   S    
C7    O5    A    
C8    O6    A    
