data_mof_unit_15709.cif
_audit_creation_date              2012-12-10T16:51:12-0500
_audit_creation_method            fapswitch 2.2
_symmetry_space_group_name_H-M    P1
_symmetry_Int_Tables_number       1
_space_group_crystal_system       triclinic
_cell_length_a                    27.749588
_cell_length_b                    8.801063
_cell_length_c                    7.414191
_cell_angle_alpha                 102.631754
_cell_angle_beta                  93.935752
_cell_angle_gamma                 92.77674
_cell_volume                      1758.99400074

loop_
_atom_site_label
_atom_site_type_symbol
_atom_type_description
_atom_site_fract_x
_atom_site_fract_y
_atom_site_fract_z
_atom_type_partial_charge
C1    C     C_R   0.497978 0.200551 0.454728 0.899231
C2    C     C_R   0.502019 0.799448 0.545272 0.899067
C3    C     C_R   0.101989 0.505798 0.515140 -0.045392
C4    C     C_R   0.897928 0.505860 0.484900 -0.046077
C5    C     C_R   0.125333 0.372643 0.540654 -0.018743
C6    C     C_R   0.875050 0.647209 0.503822 -0.020311
C7    C     C_R   0.097650 0.241226 0.560813 -0.146486
C8    C     C_R   0.903218 0.787537 0.530013 -0.145507
C9    C     C_R   0.129824 0.638551 0.496150 -0.019292
C10   C     C_R   0.869620 0.364568 0.459894 -0.020909
C11   C     C_R   0.354552 0.499753 0.509040 -0.035449
C12   C     C_R   0.645475 0.502081 0.490997 -0.035522
C13   C     C_R   0.971832 0.364453 0.487067 0.044321
C14   C     C_R   0.027908 0.644162 0.495251 0.044741
C15   C     C_R   0.977107 0.647314 0.504710 0.045170
C16   C     C_R   0.022990 0.367875 0.512727 0.045117
C17   C     C_R   0.949105 0.505853 0.491982 0.069836
C18   C     C_R   0.050812 0.505995 0.507853 0.069586
C19   C     C_R   0.942525 0.223939 0.453578 -0.213468
C20   C     C_R   0.056618 0.773779 0.470506 -0.213277
C21   C     C_R   0.892303 0.224151 0.439673 -0.138981
C22   C     C_R   0.106663 0.770648 0.470383 -0.140800
C23   C     C_R   0.407447 0.499724 0.502816 0.795940
C24   C     C_R   0.592558 0.500526 0.497201 0.795588
C25   C     C_R   0.047360 0.238566 0.546484 -0.208830
C26   C     C_R   0.953342 0.787686 0.529958 -0.208837
C27   C     C_2   0.491454 0.035150 0.432324 -0.083872
C28   C     C_2   0.508539 0.964849 0.567681 -0.083859
C29   C     C_R   0.176013 0.374431 0.545388 0.536299
C30   C     C_R   0.824378 0.644706 0.499841 0.536791
C31   C     C_R   0.180346 0.634914 0.500234 0.537675
C32   C     C_R   0.819070 0.367331 0.455365 0.538610
C33   C     C_R   0.283122 0.504695 0.681614 -0.094455
C34   C     C_R   0.716764 0.496661 0.317602 -0.098429
C35   C     C_R   0.333293 0.504420 0.676833 -0.212867
C36   C     C_R   0.666570 0.494391 0.322312 -0.210083
C37   C     C_R   0.324770 0.495034 0.346432 -0.207591
C38   C     C_R   0.675462 0.512188 0.654513 -0.205143
C39   C     C_R   0.274726 0.495788 0.351749 -0.098785
C40   C     C_R   0.725555 0.514233 0.649263 -0.102609
C41   C     C_R   0.253761 0.500850 0.519155 0.357269
C42   C     C_R   0.746254 0.506488 0.481053 0.365156
Cu1   Cu    Cu3+1 0.505380 0.517380 0.684380 0.952791
Cu2   Cu    Cu3+1 0.494620 0.482620 0.315620 0.952773
H1    H     H_    0.340075 0.491424 0.215161 0.157476
H2    H     H_    0.660289 0.518175 0.786436 0.157261
H3    H     H_    0.462275 0.378877 0.948375 0.225968
H4    H     H_    0.537725 0.621124 0.051625 0.226023
H5    H     H_    0.252138 0.492585 0.225732 0.139484
H6    H     H_    0.748364 0.521428 0.775763 0.134124
H7    H     H_    0.114757 0.139594 0.587546 0.179898
H8    H     H_    0.886637 0.898141 0.551963 0.179790
H9    H     H_    0.644374 0.486800 0.194276 0.156551
H10   H     H_    0.355347 0.507806 0.804142 0.156363
H11   H     H_    0.732760 0.490333 0.187189 0.132128
H12   H     H_    0.267056 0.508939 0.811533 0.137514
H13   H     H_    0.871248 0.113652 0.413234 0.190434
H14   H     H_    0.127179 0.872136 0.449068 0.191404
H15   H     H_    0.957690 0.111670 0.430673 0.134516
H16   H     H_    0.040973 0.876888 0.443255 0.134613
H17   H     H_    0.028178 0.136011 0.569300 0.128178
H18   H     H_    0.973037 0.899822 0.557855 0.127639
N1    N     N_R   0.202290 0.503905 0.523683 -0.471907
N2    N     N_R   0.797677 0.506122 0.476542 -0.474743
N3    N     N_2   0.486510 0.456430 0.038510 -0.223567
N4    N     N_2   0.513490 0.543570 0.961490 -0.223553
O1    O     O_R   0.503500 0.286120 0.619780 -0.618972
O2    O     O_R   0.496500 0.713880 0.380220 -0.619003
O3    O     O_R   0.494410 0.256780 0.308360 -0.556657
O4    O     O_R   0.505590 0.743220 0.691640 -0.556721
O5    O     O_R   0.434810 0.514700 0.655690 -0.592776
O6    O     O_R   0.565190 0.485300 0.344310 -0.592807
O7    O     O_R   0.425720 0.485350 0.344280 -0.586016
O8    O     O_R   0.574280 0.514650 0.655720 -0.585963
O9    O     O_2   0.198809 0.247170 0.568460 -0.518241
O10   O     O_2   0.801944 0.779365 0.519809 -0.513255
O11   O     O_2   0.791479 0.232787 0.431659 -0.509583
O12   O     O_2   0.207405 0.761346 0.481517 -0.513633
N5    N     N_3   0.463567 0.953405 0.265031 -0.576978
H19   H     H_    0.434588 0.886431 0.297367 0.236548
H20   H     H_    0.485826 0.884727 0.176950 0.259046
N6    N     N_3   0.536417 0.046595 0.734989 -0.576714
H21   H     H_    0.565399 0.113568 0.702679 0.236779
H22   H     H_    0.514154 0.115270 0.823045 0.258967

loop_
_geom_bond_atom_site_label_1
_geom_bond_atom_site_label_2
_ccdc_geom_bond_type
C29   N1    A    
C30   N2    A    
C8    C26   A    
C14   C18   A    
C34   C42   A    
C39   C41   A    
C3    C18   A    
C19   C21   A    
C27   N5    S    
C9    C22   A    
C14   C20   A    
C11   C37   A    
C36   H9    S    
C1    O1    A    
C32   O11   S    
C12   C36   A    
C8    H8    S    
C33   H12   S    
C40   C42   A    
C34   H11   S    
C35   H10   S    
Cu2   N3    S    
C23   O7    A    
C5    C29   A    
C10   C21   A    
C13   C19   A    
C28   N6    S    
C31   N1    A    
C32   N2    A    
C4    C6    A    
C5    C7    A    
C15   C26   A    
C6    C8    A    
C19   H15   S    
C1    O3    A    
Cu1   Cu2   S    
C21   H13   S    
C3    C9    A    
C23   O5    A    
C30   O10   S    
Cu2   O3    S    
C25   H17   S    
C4    C17   A    
Cu1   O1    S    
C39   H5    S    
C20   C22   A    
N6    H21   S    
Cu1   O4    S    
N6    H22   S    
Cu2   O2    S    
C20   H16   S    
C41   N1    S    
C37   H1    S    
C42   N2    S    
C24   O6    A    
C31   O12   S    
N5    H20   S    
C16   C25   A    
C15   C17   A    
Cu1   O5    S    
C6    C30   A    
C3    C5    A    
C22   H14   S    
C29   O9    S    
C12   C24   S    
C2    O2    A    
C7    C25   A    
C13   C17   A    
C33   C41   A    
C11   C35   A    
C26   H18   S    
C7    H7    S    
C37   C39   A    
C38   C40   A    
C24   O8    A    
Cu1   O8    S    
Cu1   N4    S    
C40   H6    S    
C11   C23   S    
C33   C35   A    
Cu2   O6    S    
C34   C36   A    
C12   C38   A    
Cu2   O7    S    
C38   H2    S    
C9    C31   A    
N5    H19   S    
C10   C32   A    
C16   C18   A    
N3    N4    D    
C13   C16   A    
C27   C28   D    
C1    C27   S    
C14   C15   A    
C2    C28   S    
H4    N4    S    
C2    O4    A    
C4    C10   A    
H3    N3    S    
