data_mof_unit_14057.cif
_audit_creation_date              2012-10-26T21:33:21-0400
_audit_creation_method            fapswitch 2.2
_symmetry_space_group_name_H-M    P1
_symmetry_Int_Tables_number       1
_space_group_crystal_system       triclinic
_cell_length_a                    28.208904
_cell_length_b                    18.581565
_cell_length_c                    17.076605
_cell_angle_alpha                 89.999977
_cell_angle_beta                  60.629175
_cell_angle_gamma                 89.999954
_cell_volume                      7800.44393003

loop_
_atom_site_label
_atom_site_type_symbol
_atom_type_description
_atom_site_fract_x
_atom_site_fract_y
_atom_site_fract_z
_atom_type_partial_charge
Br1   Br    Br    0.717511 0.503723 0.577459 -0.483812
Br2   Br    Br    0.265366 0.499223 0.419973 -0.474771
Br3   Br    Br    0.217511 0.996277 0.577459 -0.483813
Br4   Br    Br    0.765366 0.000776 0.419973 -0.474771
C1    C     C_R   0.701851 0.268875 0.675786 0.853575
C2    C     C_R   0.080096 0.500254 0.561798 0.073132
C3    C     C_R   0.190332 0.216362 0.904970 0.073252
C4    C     C_R   0.074159 0.099376 0.933836 0.912450
C5    C     C_R   0.925915 0.900533 0.066100 0.912649
C6    C     C_R   0.925960 0.099522 0.066060 0.913142
C7    C     C_R   0.074109 0.900565 0.933878 0.911892
C8    C     C_R   0.574109 0.599435 0.933878 0.911891
C9    C     C_R   0.425960 0.400478 0.066060 0.913142
C10   C     C_R   0.425915 0.599468 0.066100 0.912648
C11   C     C_R   0.574159 0.400624 0.933836 0.912449
C12   C     C_R   0.520702 0.127920 0.592185 0.112903
C13   C     C_R   0.396007 0.003798 0.514462 0.069067
C14   C     C_R   0.456718 0.877118 0.485251 0.110688
C15   C     C_R   0.425492 0.128532 0.576019 0.105227
C16   C     C_R   0.536413 0.870996 0.537843 0.105295
C17   C     C_R   0.036414 0.629003 0.537838 0.105294
C18   C     C_R   0.925492 0.371468 0.576018 0.105226
C19   C     C_R   0.956719 0.622881 0.485247 0.110689
C20   C     C_R   0.020702 0.372081 0.592184 0.112904
C21   C     C_R   0.488953 0.190531 0.611453 -0.208331
C22   C     C_R   0.482450 0.811630 0.481800 -0.208969
C23   C     C_R   0.441316 0.190530 0.604690 -0.213520
C24   C     C_R   0.580095 0.999746 0.561800 0.073133
C25   C     C_R   0.520252 0.807947 0.512092 -0.208937
C26   C     C_R   0.020253 0.692053 0.512086 -0.208937
C27   C     C_R   0.941316 0.309470 0.604690 -0.213520
C28   C     C_R   0.982451 0.688369 0.481795 -0.208968
C29   C     C_R   0.988953 0.309469 0.611453 -0.208331
C30   C     C_R   0.456594 0.065628 0.557685 0.027992
C31   C     C_R   0.512596 0.936877 0.537600 0.028447
C32   C     C_R   0.503092 0.064868 0.568631 0.028557
C33   C     C_R   0.470010 0.939048 0.517464 0.026890
C34   C     C_R   0.970011 0.560951 0.517461 0.026890
C35   C     C_R   0.070432 0.372418 0.593175 -0.231162
C36   C     C_R   0.003092 0.435132 0.568629 0.028557
C37   C     C_R   0.012597 0.563123 0.537596 0.028447
C38   C     C_R   0.956595 0.434371 0.557683 0.027992
C39   C     C_R   0.941256 0.496846 0.528726 -0.039613
C40   C     C_R   0.031331 0.499563 0.557771 -0.038582
C41   C     C_R   0.441255 0.003154 0.528729 -0.039613
C42   C     C_R   0.531330 0.000437 0.557773 -0.038582
C43   C     C_R   0.865099 0.433017 0.531348 0.021471
C44   C     C_R   0.106084 0.566181 0.556763 0.012386
C45   C     C_R   0.103614 0.435145 0.568366 0.010146
C46   C     C_R   0.916879 0.618980 0.459539 -0.226679
C47   C     C_R   0.881557 0.558888 0.483448 0.009102
C48   C     C_R   0.381556 0.941112 0.483450 0.009103
C49   C     C_R   0.603614 0.064855 0.568367 0.010146
C50   C     C_R   0.606084 0.933819 0.556765 0.012385
C51   C     C_R   0.365098 0.066983 0.531349 0.021471
C52   C     C_R   0.819849 0.434549 0.516220 -0.183977
C53   C     C_R   0.161170 0.564431 0.539150 -0.183688
C54   C     C_R   0.160209 0.435862 0.543646 -0.186719
C55   C     C_R   0.829876 0.560771 0.486082 -0.187143
C56   C     C_R   0.329876 0.939229 0.486083 -0.187144
C57   C     C_R   0.878985 0.371870 0.566103 -0.219013
C58   C     C_R   0.660209 0.064139 0.543646 -0.186719
C59   C     C_R   0.661170 0.935569 0.539151 -0.183688
C60   C     C_R   0.319849 0.065450 0.516220 -0.183977
C61   C     C_R   0.796810 0.499558 0.514692 0.185557
C62   C     C_R   0.189307 0.499837 0.515632 0.178502
C63   C     C_R   0.296810 0.000442 0.514693 0.185556
C64   C     C_R   0.689306 0.000163 0.515633 0.178502
C65   C     C_R   0.077508 0.630344 0.560456 -0.228357
C66   C     C_R   0.577507 0.869656 0.560459 -0.228357
C67   C     C_R   0.378985 0.128130 0.566104 -0.219014
C68   C     C_R   0.416878 0.881019 0.459543 -0.226679
C69   C     C_R   0.298188 0.731188 0.324195 0.902216
C70   C     C_R   0.570431 0.127582 0.593175 -0.231162
C71   C     C_R   0.721372 0.265989 0.952944 0.114466
C72   C     C_R   0.279492 0.735521 0.046261 0.113484
C73   C     C_R   0.280068 0.263518 0.045722 0.113032
C74   C     C_R   0.720747 0.735072 0.953530 0.113588
C75   C     C_R   0.220747 0.764928 0.953530 0.113586
C76   C     C_R   0.780068 0.236483 0.045721 0.113033
C77   C     C_R   0.779492 0.764479 0.046261 0.113485
C78   C     C_R   0.221372 0.234010 0.952944 0.114466
C79   C     C_R   0.778650 0.265567 0.907114 -0.172488
C80   C     C_R   0.298223 0.268750 0.324173 0.924698
C81   C     C_R   0.222226 0.736019 0.092098 -0.170183
C82   C     C_R   0.222810 0.263053 0.091494 -0.169938
C83   C     C_R   0.778015 0.735559 0.907688 -0.171243
C84   C     C_R   0.278015 0.764446 0.907689 -0.171242
C85   C     C_R   0.722810 0.236947 0.091495 -0.169937
C86   C     C_R   0.722226 0.763976 0.092099 -0.170183
C87   C     C_R   0.278650 0.234434 0.907114 -0.172489
C88   C     C_R   0.807542 0.251007 0.952811 -0.177615
C89   C     C_R   0.193318 0.750512 0.046442 -0.178711
C90   C     C_R   0.193931 0.248520 0.045823 -0.177953
C91   C     C_R   0.701836 0.731141 0.675791 0.891438
C92   C     C_R   0.806926 0.750058 0.953347 -0.178540
C93   C     C_R   0.306926 0.749947 0.953348 -0.178541
C94   C     C_R   0.693931 0.251479 0.045824 -0.177953
C95   C     C_R   0.693317 0.749483 0.046443 -0.178711
C96   C     C_R   0.307542 0.248995 0.952812 -0.177614
C97   C     C_R   0.644039 0.327489 0.945529 -0.201463
C98   C     C_R   0.356568 0.673489 0.053932 -0.201476
C99   C     C_R   0.356955 0.325905 0.053590 -0.201636
C100  C     C_R   0.643602 0.673201 0.945917 -0.202536
C101  C     C_R   0.143601 0.826798 0.945917 -0.202536
C102  C     C_R   0.201836 0.768859 0.675791 0.891439
C103  C     C_R   0.856955 0.174096 0.053589 -0.201636
C104  C     C_R   0.856568 0.826512 0.053933 -0.201475
C105  C     C_R   0.144039 0.172510 0.945528 -0.201463
C106  C     C_R   0.616745 0.347671 0.898189 -0.069010
C107  C     C_R   0.383547 0.652742 0.101584 -0.066461
C108  C     C_R   0.383718 0.347025 0.101455 -0.067191
C109  C     C_R   0.616541 0.652608 0.898343 -0.067881
C110  C     C_R   0.116541 0.847392 0.898344 -0.067881
C111  C     C_R   0.883718 0.152975 0.101454 -0.067191
C112  C     C_R   0.883547 0.847259 0.101584 -0.066460
C113  C     C_R   0.798223 0.231250 0.324173 0.924698
C114  C     C_R   0.116745 0.152329 0.898189 -0.069010
C115  C     C_R   0.633331 0.322551 0.813155 -0.246525
C116  C     C_R   0.366830 0.677616 0.186778 -0.244154
C117  C     C_R   0.366898 0.322333 0.186764 -0.239666
C118  C     C_R   0.633231 0.677533 0.813184 -0.244088
C119  C     C_R   0.133231 0.822467 0.813184 -0.244089
C120  C     C_R   0.866899 0.177667 0.186764 -0.239666
C121  C     C_R   0.866830 0.822384 0.186778 -0.244153
C122  C     C_R   0.133331 0.177448 0.813155 -0.246525
C123  C     C_R   0.679746 0.282065 0.770706 -0.035892
C124  C     C_R   0.798188 0.768811 0.324195 0.902215
C125  C     C_R   0.320556 0.718398 0.229087 -0.050085
C126  C     C_R   0.320712 0.281371 0.228982 -0.055726
C127  C     C_R   0.679535 0.718248 0.770849 -0.048891
C128  C     C_R   0.179536 0.781752 0.770849 -0.048890
C129  C     C_R   0.820712 0.218630 0.228982 -0.055727
C130  C     C_R   0.820556 0.781602 0.229087 -0.050086
C131  C     C_R   0.179746 0.217935 0.770706 -0.035892
C132  C     C_R   0.708118 0.261005 0.816399 -0.203454
C133  C     C_R   0.292545 0.740092 0.183035 -0.193794
C134  C     C_R   0.292911 0.259319 0.182722 -0.193463
C135  C     C_R   0.201851 0.231125 0.675786 0.853574
C136  C     C_R   0.707634 0.739784 0.816819 -0.196232
C137  C     C_R   0.207634 0.760216 0.816819 -0.196233
C138  C     C_R   0.792911 0.240681 0.182722 -0.193463
C139  C     C_R   0.792545 0.759908 0.183035 -0.193793
C140  C     C_R   0.208118 0.238994 0.816399 -0.203454
C141  C     C_R   0.692150 0.129014 0.531250 0.938380
C142  C     C_R   0.305453 0.872430 0.476640 0.927164
C143  C     C_R   0.297386 0.130030 0.498912 0.942250
C144  C     C_R   0.692949 0.871214 0.528352 0.944471
C145  C     C_R   0.192949 0.628786 0.528351 0.944471
C146  C     C_R   0.896007 0.496201 0.514460 0.069067
C147  C     C_R   0.797386 0.369970 0.498912 0.942250
C148  C     C_R   0.805453 0.627570 0.476640 0.927163
C149  C     C_R   0.192150 0.370986 0.531250 0.938380
C150  C     C_R   0.690332 0.283637 0.904970 0.073252
C151  C     C_R   0.310446 0.717658 0.094331 0.073410
C152  C     C_R   0.310924 0.281571 0.093901 0.074283
C153  C     C_R   0.689767 0.717286 0.905483 0.072967
C154  C     C_R   0.189767 0.782714 0.905484 0.072966
C155  C     C_R   0.810924 0.218429 0.093901 0.074283
C156  C     C_R   0.810445 0.782342 0.094331 0.073411
H1    H     H_    0.001194 0.260375 0.630869 0.140090
H2    H     H_    0.913967 0.664149 0.422567 0.174488
H3    H     H_    0.852983 0.325012 0.589305 0.169725
H4    H     H_    0.086784 0.682531 0.576453 0.181780
H5    H     H_    0.586783 0.817469 0.576457 0.181779
H6    H     H_    0.352983 0.174988 0.589304 0.169725
H7    H     H_    0.413967 0.835850 0.422570 0.174489
H8    H     H_    0.582546 0.176606 0.612459 0.170430
H9    H     H_    0.649913 0.250371 0.083213 0.132665
H10   H     H_    0.350945 0.750953 0.915929 0.131417
H11   H     H_    0.351563 0.248001 0.915430 0.131190
H12   H     H_    0.971953 0.737035 0.458772 0.140123
H13   H     H_    0.649299 0.750501 0.083867 0.130956
H14   H     H_    0.149299 0.749490 0.083864 0.130958
H15   H     H_    0.851564 0.252001 0.915429 0.131191
H16   H     H_    0.850945 0.749056 0.915926 0.131415
H17   H     H_    0.149913 0.249627 0.083213 0.132665
H18   H     H_    0.801299 0.277907 0.836067 0.130404
H19   H     H_    0.199585 0.723713 0.163139 0.136097
H20   H     H_    0.200144 0.275461 0.162504 0.136795
H21   H     H_    0.800652 0.723262 0.836642 0.135848
H22   H     H_    0.300652 0.776746 0.836645 0.135850
H23   H     H_    0.917580 0.260485 0.619793 0.136900
H24   H     H_    0.700144 0.224537 0.162504 0.136795
H25   H     H_    0.699584 0.776278 0.163142 0.136095
H26   H     H_    0.301299 0.222094 0.836067 0.130404
H27   H     H_    0.630852 0.348758 0.012133 0.150615
H28   H     H_    0.369826 0.652375 0.987235 0.149736
H29   H     H_    0.370287 0.346874 0.986804 0.149000
H30   H     H_    0.630361 0.652042 0.012587 0.149909
H31   H     H_    0.130361 0.847957 0.012589 0.149910
H32   H     H_    0.870287 0.153127 0.986803 0.148999
H33   H     H_    0.869825 0.847627 0.987236 0.149735
H34   H     H_    0.038831 0.743360 0.510984 0.140032
H35   H     H_    0.130853 0.151240 0.012132 0.150615
H36   H     H_    0.612113 0.338809 0.777517 0.181680
H37   H     H_    0.387789 0.660884 0.222662 0.180003
H38   H     H_    0.387693 0.339359 0.222802 0.181981
H39   H     H_    0.612213 0.660912 0.777355 0.182335
H40   H     H_    0.112213 0.839088 0.777355 0.182336
H41   H     H_    0.887694 0.160641 0.222802 0.181981
H42   H     H_    0.887789 0.839116 0.222662 0.180002
H43   H     H_    0.112113 0.161191 0.777517 0.181679
H44   H     H_    0.744516 0.228431 0.782588 0.148918
H45   H     H_    0.538830 0.756639 0.510990 0.140032
H46   H     H_    0.256284 0.772932 0.216714 0.151124
H47   H     H_    0.256713 0.226357 0.216337 0.151796
H48   H     H_    0.743923 0.772568 0.783116 0.151479
H49   H     H_    0.243924 0.727433 0.783115 0.151480
H50   H     H_    0.756713 0.273643 0.216337 0.151795
H51   H     H_    0.756285 0.727067 0.216714 0.151122
H52   H     H_    0.244516 0.271569 0.782588 0.148918
H53   H     H_    0.417580 0.239515 0.619792 0.136900
H54   H     H_    0.471952 0.762964 0.458777 0.140123
H55   H     H_    0.501194 0.239625 0.630869 0.140090
H56   H     H_    0.082546 0.323395 0.612460 0.170430
O1    O     O_R   0.746490 0.236330 0.638080 -0.664289
O2    O     O_R   0.325830 0.813840 0.483730 -0.653475
O3    O     O_R   0.325830 0.186160 0.483730 -0.652252
O4    O     O_R   0.674170 0.813840 0.516270 -0.658479
O5    O     O_R   0.174170 0.686160 0.516270 -0.658481
O6    O     O_R   0.825830 0.313840 0.483730 -0.652252
O7    O     O_R   0.825830 0.686160 0.483730 -0.653474
O8    O     O_R   0.174170 0.313840 0.516270 -0.646328
O9    O     O_R   0.739960 0.127620 0.525000 -0.576942
O10   O     O_R   0.260040 0.872380 0.475000 -0.571583
O11   O     O_R   0.260040 0.127620 0.475000 -0.578630
O12   O     O_R   0.253510 0.763670 0.361920 -0.639303
O13   O     O_R   0.739960 0.872380 0.525000 -0.579434
O14   O     O_R   0.239960 0.627620 0.525000 -0.579433
O15   O     O_R   0.760040 0.372380 0.475000 -0.578631
O16   O     O_R   0.760040 0.627620 0.475000 -0.571583
O17   O     O_R   0.239960 0.372380 0.525000 -0.576941
O18   O     O_R   0.680700 0.294870 0.629350 -0.629131
O19   O     O_R   0.319300 0.705130 0.370650 -0.617676
O20   O     O_R   0.319300 0.294870 0.370650 -0.607384
O21   O     O_R   0.680700 0.705130 0.629350 -0.616972
O22   O     O_R   0.180700 0.794870 0.629350 -0.616972
O23   O     O_R   0.253510 0.236330 0.361920 -0.635452
O24   O     O_R   0.819300 0.205130 0.370650 -0.607384
O25   O     O_R   0.819300 0.794870 0.370650 -0.617676
O26   O     O_R   0.180700 0.205130 0.629350 -0.629131
O27   O     O_R   0.062020 0.072840 0.007170 -0.629879
O28   O     O_R   0.937980 0.927160 0.992830 -0.630288
O29   O     O_R   0.937980 0.072840 0.992830 -0.630736
O30   O     O_R   0.062020 0.927160 0.007170 -0.630812
O31   O     O_R   0.562020 0.572840 0.007170 -0.630812
O32   O     O_R   0.437980 0.427160 0.992830 -0.630736
O33   O     O_R   0.437980 0.572840 0.992830 -0.630287
O34   O     O_R   0.746490 0.763670 0.638080 -0.642715
O35   O     O_R   0.562020 0.427160 0.007170 -0.629879
O36   O     O_R   0.947860 0.073950 0.109290 -0.616914
O37   O     O_R   0.052140 0.926050 0.890710 -0.616636
O38   O     O_R   0.052140 0.073950 0.890710 -0.617473
O39   O     O_R   0.947860 0.926050 0.109290 -0.618074
O40   O     O_R   0.447860 0.573950 0.109290 -0.618073
O41   O     O_R   0.552140 0.426050 0.890710 -0.617472
O42   O     O_R   0.552140 0.573950 0.890710 -0.616636
O43   O     O_R   0.447860 0.426050 0.109290 -0.616913
O44   O     O_R   0.246490 0.736330 0.638080 -0.642715
O45   O     O_R   0.753510 0.263670 0.361920 -0.635452
O46   O     O_R   0.753510 0.736330 0.361920 -0.639303
O47   O     O_R   0.246490 0.263670 0.638080 -0.664289
O48   O     O_R   0.674170 0.186160 0.516270 -0.646328
Zn1   Zn    Zn3+2 0.792340 0.208750 0.507670 0.974321
Zn2   Zn    Zn3+2 0.494040 0.500000 0.919480 0.953194
Zn3   Zn    Zn3+2 0.005960 1.000000 0.080520 0.953491
Zn4   Zn    Zn3+2 0.994040 1.000000 0.919480 0.953194
Zn5   Zn    Zn3+2 0.207660 0.791250 0.492330 0.985424
Zn6   Zn    Zn3+2 0.207660 0.208750 0.492330 0.987564
Zn7   Zn    Zn3+2 0.792340 0.791250 0.507670 0.980749
Zn8   Zn    Zn3+2 0.292340 0.708750 0.507670 0.980749
Zn9   Zn    Zn3+2 0.707660 0.291250 0.492330 0.987564
Zn10  Zn    Zn3+2 0.707660 0.708750 0.492330 0.985424
Zn11  Zn    Zn3+2 0.292340 0.291250 0.507670 0.974321
Zn12  Zn    Zn3+2 0.505960 0.500000 0.080520 0.953491

loop_
_geom_bond_atom_site_label_1
_geom_bond_atom_site_label_2
_ccdc_geom_bond_type
C74   C83   A    
C121  C130  A    
C102  O44   A    
C50   C66   A    
C76   C88   A    
C78   C90   A    
C135  O47   A    
C119  C128  A    
C46   H2    S    
C101  H31   S    
C15   C67   A    
C49   C70   A    
C14   C22   A    
C65   H4    S    
C13   C48   A    
C100  C153  A    
C113  C129  S    
C75   C154  S    
C70   H8    S    
C4    C114  S    
C44   C53   A    
C104  H33   S    
C10   O33   A    
C18   C38   A    
C55   C148  S    
C131  C135  S    
C79   C88   A    
C93   H10   S    
C24   C42   A    
C129  C138  A    
O18   Zn9   S    
C2    C44   A    
C35   H56   S    
C12   C70   A    
C145  O14   A    
O26   Zn6   S    
C80   O20   A    
C14   C33   A    
O27   Zn3   S    
C73   C82   A    
C75   C89   A    
C9    C108  S    
C11   O35   A    
O12   Zn5   S    
O10   Zn5   S    
O32   Zn2   S    
C50   C59   A    
C52   C61   A    
O17   Zn11  S    
C10   O40   A    
C89   H14   S    
C12   C21   A    
C20   C35   A    
C25   H45   S    
O15   Zn9   S    
C73   C96   A    
C115  H36   S    
C91   O21   A    
C4    O38   A    
C76   C85   A    
C7    C110  S    
C135  O26   A    
C75   C84   A    
C145  O5    A    
C127  C136  A    
C82   C90   A    
C20   C36   A    
C130  C139  A    
C16   C31   A    
C81   C89   A    
C54   C62   A    
C8    O31   A    
C1    O1    A    
C109  C118  A    
O21   Zn10  S    
C113  O24   A    
C58   C141  S    
C53   C145  S    
C103  H32   S    
Br1   C61   S    
C27   C29   A    
C32   C42   A    
C99   H29   S    
C124  O46   A    
C118  H39   S    
C83   H21   S    
C15   C23   A    
C44   C65   A    
C36   C40   A    
C30   C32   A    
C84   C93   A    
O23   Zn6   S    
C133  H46   S    
O40   Zn12  S    
C113  O45   A    
C36   C38   A    
C28   H12   S    
C100  H30   S    
C88   H15   S    
C77   C156  S    
C2    C40   A    
C51   C60   A    
C96   H11   S    
C91   C127  S    
C124  O25   A    
C7    O30   A    
C11   C106  S    
C16   C66   A    
C98   C107  A    
C5    O39   A    
C56   C142  S    
O34   Zn7   S    
C8    O42   A    
C136  H48   S    
C91   O34   A    
O9    Zn1   S    
C3    C140  A    
C125  C133  A    
C105  C114  A    
C116  H37   S    
C69   C125  S    
C16   C25   A    
O37   Zn4   S    
C14   C68   A    
C10   C107  S    
O46   Zn10  S    
C147  O15   A    
C121  H42   S    
C86   C95   A    
C18   C27   A    
O4    Zn10  S    
C116  C125  A    
C60   C63   A    
O16   Zn10  S    
C119  H40   S    
C139  C156  A    
O35   Zn12  S    
C56   C63   A    
C34   C37   A    
C37   C40   A    
C66   H5    S    
Br4   C64   S    
O6    Zn1   S    
C143  O11   A    
C76   C155  S    
C139  H51   S    
C142  O10   A    
C4    O27   A    
Br2   C62   S    
C72   C93   A    
C141  O9    A    
C67   H6    S    
C71   C94   A    
O2    Zn8   S    
C78   C87   A    
C3    C105  A    
C17   C65   A    
C107  C116  A    
O28   Zn4   S    
C90   H17   S    
C112  C121  A    
O33   Zn2   S    
O44   Zn8   S    
O22   Zn5   S    
C29   H1    S    
C85   H24   S    
O7    Zn7   S    
C48   C68   A    
C54   C149  S    
C124  C130  S    
C136  C153  A    
C132  C150  A    
C49   C58   A    
C137  C154  A    
O11   Zn6   S    
C84   H22   S    
C101  C154  A    
C95   H13   S    
C43   C146  A    
C21   H55   S    
C81   H19   S    
C51   C67   A    
O38   Zn4   S    
C83   C92   A    
C1    C123  S    
C141  O48   A    
C82   H20   S    
C46   C47   A    
C149  O17   A    
O43   Zn12  S    
C6    O29   A    
C123  C132  A    
C52   C147  S    
C144  O4    A    
C132  H44   S    
C103  C111  A    
C39   C146  A    
C30   C41   A    
C149  O8    A    
C138  C155  A    
C17   C37   A    
C110  C119  A    
C120  C129  A    
C131  C140  A    
C35   C45   A    
C87   H26   S    
C122  C131  A    
O1    Zn1   S    
C1    O18   A    
C60   C143  S    
C87   C96   A    
C68   H7    S    
C34   C39   A    
C80   O23   A    
C47   C55   A    
C38   C39   A    
C77   C86   A    
C33   C41   A    
O30   Zn3   S    
O42   Zn2   S    
C137  H49   S    
C59   C144  S    
C140  H52   S    
C74   C153  S    
O5    Zn5   S    
C102  C128  S    
C117  C126  A    
C134  C152  A    
C128  C137  A    
C77   C92   A    
C13   C51   A    
C59   C64   A    
C24   C50   A    
C111  C120  A    
C92   H16   S    
C79   H18   S    
C31   C33   A    
C57   H3    S    
C5    C112  S    
O24   Zn1   S    
C94   H9    S    
Br3   C63   S    
O41   Zn2   S    
C20   C29   A    
C97   C106  A    
C13   C41   A    
C19   C46   A    
C15   C30   A    
C11   O41   A    
C106  C115  A    
C43   C57   A    
C69   O12   A    
C103  C155  A    
C134  H47   S    
C104  C156  A    
C86   H25   S    
C47   C146  A    
C21   C23   A    
C19   C34   A    
C17   C26   A    
C120  H41   S    
C72   C151  S    
O47   Zn11  S    
O48   Zn9   S    
O29   Zn4   S    
C147  O6    A    
C58   C64   A    
C85   C94   A    
C22   H54   S    
O20   Zn11  S    
C19   C28   A    
C104  C112  A    
O19   Zn8   S    
C108  C117  A    
C73   C152  S    
C53   C62   A    
C55   C61   A    
C18   C57   A    
C26   C28   A    
O13   Zn7   S    
C71   C150  S    
C71   C79   A    
C118  C127  A    
C26   H34   S    
O14   Zn8   S    
C97   C150  A    
O3    Zn11  S    
C98   C151  A    
C80   C126  S    
C7    O37   A    
C126  C134  A    
C8    C109  S    
C105  H35   S    
C6    O36   A    
C27   H23   S    
C2    C45   A    
C9    O43   A    
C98   H28   S    
C117  H38   S    
C69   O19   A    
C31   C42   A    
C143  O3    A    
C45   C54   A    
O8    Zn6   S    
C100  C109  A    
C142  O2    A    
O25   Zn7   S    
C99   C152  A    
O36   Zn3   S    
C9    O32   A    
O45   Zn9   S    
C3    C78   S    
C22   C25   A    
C48   C56   A    
C102  O22   A    
C148  O7    A    
C122  H43   S    
C74   C95   A    
C23   H53   S    
C138  H50   S    
O39   Zn3   S    
C99   C108  A    
C144  O13   A    
C114  C122  A    
O31   Zn12  S    
C97   H27   S    
C5    O28   A    
C133  C151  A    
C72   C81   A    
C12   C32   A    
C6    C111  S    
C101  C110  A    
C24   C49   A    
C43   C52   A    
C148  O16   A    
C115  C123  A    
