data_mof_unit_9770.cif
_audit_creation_date              2012-12-11T14:44:20-0500
_audit_creation_method            fapswitch 2.2
_symmetry_space_group_name_H-M    P1
_symmetry_Int_Tables_number       1
_space_group_crystal_system       triclinic
_cell_length_a                    19.084204
_cell_length_b                    10.927292
_cell_length_c                    18.889183
_cell_angle_alpha                 90.061586
_cell_angle_beta                  89.314164
_cell_angle_gamma                 90.142485
_cell_volume                      3938.8285616

loop_
_atom_site_label
_atom_site_type_symbol
_atom_type_description
_atom_site_fract_x
_atom_site_fract_y
_atom_site_fract_z
_atom_type_partial_charge
C1    C     C_R   0.727473 0.370647 0.143351 0.553717
C2    C     C_R   0.269736 0.376644 0.854132 0.552072
C3    C     C_R   0.227473 0.870649 0.143351 0.553715
C4    C     C_R   0.769736 0.876645 0.854132 0.552073
C5    C     C_R   0.492884 0.396041 0.931738 -0.087786
C6    C     C_R   0.475417 0.380898 0.078059 -0.091671
C7    C     C_R   0.992889 0.896040 0.931736 -0.087788
C8    C     C_R   0.975422 0.880901 0.078058 -0.091670
C9    C     C_R   0.980372 0.001521 0.971452 -0.140024
C10   C     C_R   0.969497 0.993437 0.044135 -0.132355
C11   C     C_R   0.480364 0.501520 0.971454 -0.140017
C12   C     C_R   0.469489 0.493434 0.044137 -0.132348
C13   C     C_R   0.703413 0.857134 0.039794 -0.140474
C14   C     C_R   0.307069 0.878847 0.961223 -0.137332
C15   C     C_R   0.203422 0.357119 0.039797 -0.140476
C16   C     C_R   0.807069 0.378844 0.961223 -0.137329
C17   C     C_R   0.705595 0.841320 0.966767 -0.135651
C18   C     C_R   0.301686 0.865988 0.034295 -0.148214
C19   C     C_R   0.205604 0.341302 0.966770 -0.135648
C20   C     C_R   0.801685 0.365985 0.034294 -0.148209
C21   C     C_R   0.749920 0.915474 0.924927 0.029607
C22   C     C_R   0.238195 0.893069 0.068362 0.032624
C23   C     C_R   0.249919 0.415470 0.924928 0.029610
C24   C     C_R   0.738194 0.393065 0.068362 0.032626
C25   C     C_R   0.788080 0.010230 0.955865 -0.121902
C26   C     C_R   0.179254 0.925226 0.028430 -0.126543
C27   C     C_R   0.288071 0.510239 0.955863 -0.121905
C28   C     C_R   0.679253 0.425221 0.028429 -0.126541
C29   C     C_R   0.787078 0.024049 0.028239 -0.116249
C30   C     C_R   0.184273 0.935875 0.956160 -0.140084
C31   C     C_R   0.287069 0.524062 0.028237 -0.116248
C32   C     C_R   0.684272 0.435871 0.956160 -0.140080
C33   C     C_R   0.746135 0.945924 0.070893 0.033006
C34   C     C_R   0.248730 0.918231 0.922391 0.027131
C35   C     C_R   0.246136 0.445925 0.070893 0.033009
C36   C     C_R   0.748729 0.418229 0.922390 0.027132
C37   C     C_R   0.539937 0.054747 0.474687 -0.139023
C38   C     C_R   0.524349 0.056246 0.545740 -0.137193
C39   C     C_R   0.039937 0.554747 0.474687 -0.139023
C40   C     C_R   0.024349 0.556246 0.545740 -0.137193
C41   C     C_R   0.505915 0.165884 0.579133 0.031906
C42   C     C_R   0.543533 0.162792 0.436020 0.031551
C43   C     C_R   0.005915 0.665884 0.579133 0.031906
C44   C     C_R   0.043533 0.662792 0.436020 0.031551
C45   C     C_R   0.532282 0.154901 0.146316 0.548234
C46   C     C_R   0.468429 0.156306 0.853262 0.544101
C47   C     C_R   0.032282 0.654901 0.146317 0.548236
C48   C     C_R   0.968429 0.656306 0.853262 0.544101
C49   C     C_R   0.511479 0.276717 0.541743 -0.135735
C50   C     C_R   0.531623 0.275315 0.470314 -0.130319
C51   C     C_R   0.011479 0.776717 0.541743 -0.135735
C52   C     C_R   0.031623 0.775315 0.470314 -0.130319
C53   C     C_R   0.793558 0.041136 0.477518 -0.017231
C54   C     C_R   0.199923 0.028081 0.526107 -0.014773
C55   C     C_R   0.293558 0.541136 0.477518 -0.017231
C56   C     C_R   0.699923 0.528081 0.526107 -0.014773
C57   C     C_R   0.796748 0.019459 0.549823 -0.098081
C58   C     C_R   0.193673 0.999657 0.455458 -0.098445
C59   C     C_R   0.296748 0.519459 0.549823 -0.098081
C60   C     C_R   0.693674 0.499657 0.455458 -0.098445
C61   C     C_R   0.748760 0.940460 0.582953 0.015962
C62   C     C_R   0.248038 0.940590 0.418355 0.015259
C63   C     C_R   0.248760 0.440460 0.582953 0.015962
C64   C     C_R   0.748038 0.440590 0.418355 0.015259
C65   C     C_R   0.690837 0.898978 0.545742 -0.147289
C66   C     C_R   0.313466 0.928881 0.449620 -0.149820
C67   C     C_R   0.190837 0.398978 0.545742 -0.147289
C68   C     C_R   0.813467 0.428882 0.449620 -0.149820
C69   C     C_R   0.687042 0.918112 0.473218 -0.144779
C70   C     C_R   0.321570 0.958071 0.521032 -0.148816
C71   C     C_R   0.187042 0.418112 0.473218 -0.144779
C72   C     C_R   0.821570 0.458071 0.521032 -0.148816
C73   C     C_R   0.737387 0.989386 0.438280 0.026637
C74   C     C_R   0.264030 0.999495 0.561197 0.026604
C75   C     C_R   0.237387 0.489385 0.438280 0.026637
C76   C     C_R   0.764030 0.499495 0.561197 0.026604
C77   C     C_R   0.740274 0.974639 0.145610 0.558387
C78   C     C_R   0.258456 0.968507 0.852038 0.557493
C79   C     C_R   0.240274 0.474639 0.145610 0.558385
C80   C     C_R   0.758456 0.468506 0.852037 0.557494
C81   C     C_R   0.730021 0.382657 0.351012 0.533436
C82   C     C_R   0.269353 0.383288 0.649558 0.539183
C83   C     C_R   0.230021 0.882656 0.351012 0.533436
C84   C     C_R   0.769353 0.883288 0.649558 0.539183
C85   C     C_R   0.562111 0.153775 0.360996 0.546858
C86   C     C_R   0.469158 0.157410 0.647105 0.539342
C87   C     C_R   0.062111 0.653775 0.360996 0.546858
C88   C     C_R   0.969158 0.657410 0.647105 0.539342
C89   C     C_R   0.729482 0.016601 0.362252 0.540169
C90   C     C_R   0.271570 0.021098 0.638126 0.560311
C91   C     C_R   0.229482 0.516601 0.362252 0.540169
C92   C     C_R   0.771570 0.521098 0.638126 0.560311
C93   C     C_R   0.497730 0.167902 0.924765 0.000800
C94   C     C_R   0.506923 0.161367 0.073259 0.001636
C95   C     C_R   0.997730 0.667901 0.924766 0.000800
C96   C     C_R   0.006921 0.661368 0.073260 0.001635
C97   C     C_R   0.494338 0.279344 0.964249 0.031043
C98   C     C_R   0.492180 0.273836 0.039354 0.020539
C99   C     C_R   0.994340 0.779343 0.964248 0.031045
C100  C     C_R   0.992182 0.773837 0.039353 0.020542
C101  C     C_R   0.515244 0.054881 0.032431 -0.148934
C102  C     C_R   0.510891 0.058174 0.959950 -0.155376
C103  C     C_R   0.015239 0.554881 0.032432 -0.148935
C104  C     C_R   0.010887 0.558172 0.959951 -0.155375
Cr1   Cr    Cr6+3 0.772000 0.169640 0.250110 0.989806
Cr2   Cr    Cr6+3 0.228000 0.169640 0.749890 0.989891
Cr3   Cr    Cr6+3 0.272000 0.669640 0.250110 0.989805
Cr4   Cr    Cr6+3 0.728000 0.669640 0.749890 0.989892
Cr5   Cr    Cr6+3 0.614960 0.323350 0.249260 1.001827
Cr6   Cr    Cr6+3 0.385040 0.323350 0.750740 1.001227
Cr7   Cr    Cr6+3 0.114960 0.823350 0.249260 1.001826
Cr8   Cr    Cr6+3 0.885040 0.823350 0.750740 1.001227
Cr9   Cr    Cr6+3 0.616670 0.010620 0.250840 1.009472
Cr10  Cr    Cr6+3 0.383330 0.010620 0.749160 1.007112
Cr11  Cr    Cr6+3 0.116670 0.510620 0.250840 1.009473
Cr12  Cr    Cr6+3 0.883330 0.510620 0.749160 1.007112
H1    H     H_    0.527226 0.967323 0.056208 0.142151
H2    H     H_    0.515258 0.972246 0.931542 0.135209
H3    H     H_    0.027219 0.467321 0.056210 0.142152
H4    H     H_    0.015252 0.472244 0.931544 0.135211
H5    H     H_    0.839945 0.056335 0.579599 0.136030
H6    H     H_    0.143741 0.016042 0.430846 0.138120
H7    H     H_    0.339945 0.556334 0.579599 0.136030
H8    H     H_    0.643741 0.516042 0.430846 0.138120
H9    H     H_    0.649911 0.849149 0.572304 0.116568
H10   H     H_    0.357335 0.895280 0.419297 0.128285
H11   H     H_    0.149911 0.349149 0.572304 0.116568
H12   H     H_    0.857335 0.395280 0.419297 0.128285
H13   H     H_    0.645978 0.874398 0.443762 0.115814
H14   H     H_    0.372188 0.945779 0.545296 0.129279
H15   H     H_    0.145978 0.374398 0.443762 0.115814
H16   H     H_    0.872188 0.445779 0.545296 0.129279
H17   H     H_    0.504137 0.408474 0.876073 0.132930
H18   H     H_    0.465484 0.378551 0.134494 0.137378
H19   H     H_    0.004142 0.908470 0.876071 0.132929
H20   H     H_    0.965488 0.878557 0.134492 0.137379
H21   H     H_    0.978531 0.089795 0.945587 0.101293
H22   H     H_    0.957616 0.074977 0.074537 0.108966
H23   H     H_    0.478520 0.589795 0.945590 0.101293
H24   H     H_    0.457605 0.574972 0.074540 0.108969
H25   H     H_    0.669578 0.799234 0.071866 0.122505
H26   H     H_    0.357654 0.864796 0.935926 0.130929
H27   H     H_    0.169595 0.299207 0.071870 0.122503
H28   H     H_    0.857654 0.364793 0.935926 0.130928
H29   H     H_    0.675881 0.766962 0.943749 0.134558
H30   H     H_    0.346914 0.837073 0.064023 0.115552
H31   H     H_    0.175897 0.266932 0.943754 0.134564
H32   H     H_    0.846913 0.337070 0.064023 0.115552
H33   H     H_    0.822003 0.069260 0.924533 0.129401
H34   H     H_    0.128495 0.941747 0.052758 0.154531
H35   H     H_    0.321987 0.569277 0.924529 0.129394
H36   H     H_    0.628493 0.441742 0.052757 0.154529
H37   H     H_    0.818045 0.097365 0.050601 0.134721
H38   H     H_    0.138650 0.965422 0.927303 0.130945
H39   H     H_    0.318029 0.597389 0.050598 0.134721
H40   H     H_    0.638649 0.465418 0.927302 0.130944
H41   H     H_    0.547633 0.968074 0.449257 0.116040
H42   H     H_    0.521854 0.969693 0.573206 0.125804
H43   H     H_    0.047633 0.468074 0.449257 0.116040
H44   H     H_    0.021854 0.469693 0.573206 0.125804
H45   H     H_    0.497439 0.362785 0.566545 0.119298
H46   H     H_    0.535025 0.360761 0.441528 0.120149
H47   H     H_    0.997439 0.862785 0.566545 0.119298
H48   H     H_    0.035025 0.860761 0.441528 0.120149
O1    O     O_R   0.787540 0.042690 0.170470 -0.523523
O2    O     O_R   0.212460 0.042690 0.829530 -0.523382
O3    O     O_R   0.287540 0.542690 0.170470 -0.523523
O4    O     O_R   0.712460 0.542690 0.829530 -0.523380
O5    O     O_R   0.556540 0.252920 0.323970 -0.502476
O6    O     O_R   0.443460 0.252920 0.676030 -0.506641
O7    O     O_R   0.056540 0.752920 0.323970 -0.502476
O8    O     O_R   0.943460 0.752920 0.676030 -0.506641
O9    O     O_R   0.545870 0.051100 0.330840 -0.524656
O10   O     O_R   0.454130 0.051100 0.669160 -0.538687
O11   O     O_R   0.045870 0.551100 0.330840 -0.524656
O12   O     O_R   0.954130 0.551100 0.669160 -0.538687
O13   O     O_R   0.681340 0.959300 0.325510 -0.510052
O14   O     O_R   0.318660 0.959300 0.674490 -0.498690
O15   O     O_R   0.181340 0.459300 0.325510 -0.510053
O16   O     O_R   0.818660 0.459300 0.674490 -0.498690
O17   O     O_3   0.667880 0.167870 0.250070 -0.277405
O18   O     O_3   0.332120 0.167870 0.749930 -0.255717
O19   O     O_3   0.167880 0.667870 0.250070 -0.277405
O20   O     O_3   0.832120 0.667870 0.749930 -0.255716
O21   O     O_R   0.765660 0.292160 0.175050 -0.504218
O22   O     O_R   0.234340 0.292160 0.824950 -0.505929
O23   O     O_R   0.265660 0.792160 0.175050 -0.504218
O24   O     O_R   0.734340 0.792160 0.824950 -0.505927
O25   O     O_R   0.670190 0.408980 0.168550 -0.524546
O26   O     O_R   0.329810 0.408980 0.831450 -0.519732
O27   O     O_R   0.170190 0.908980 0.168550 -0.524547
O28   O     O_R   0.829810 0.908980 0.831450 -0.519734
O29   O     O_R   0.556580 0.251450 0.175160 -0.506430
O30   O     O_R   0.443420 0.251450 0.824840 -0.508755
O31   O     O_R   0.056580 0.751450 0.175160 -0.506430
O32   O     O_R   0.943420 0.751450 0.824840 -0.508753
O33   O     O_R   0.545920 0.049510 0.170320 -0.518918
O34   O     O_R   0.454080 0.049510 0.829680 -0.523437
O35   O     O_R   0.045920 0.549510 0.170320 -0.518917
O36   O     O_R   0.954080 0.549510 0.829680 -0.523437
O37   O     O_R   0.681390 0.957840 0.176710 -0.497216
O38   O     O_R   0.318610 0.957840 0.823290 -0.501144
O39   O     O_R   0.181390 0.457840 0.176710 -0.497214
O40   O     O_R   0.818610 0.457840 0.823290 -0.501145
O41   O     O_R   0.787500 0.044280 0.330990 -0.537346
O42   O     O_R   0.212500 0.044280 0.669010 -0.549429
O43   O     O_R   0.287500 0.544280 0.330990 -0.537346
O44   O     O_R   0.712500 0.544280 0.669010 -0.549429
O45   O     O_R   0.765610 0.293630 0.323860 -0.533491
O46   O     O_R   0.234390 0.293630 0.676140 -0.532131
O47   O     O_R   0.265610 0.793630 0.323860 -0.533491
O48   O     O_R   0.734390 0.793630 0.676140 -0.532132
O49   O     O_R   0.670140 0.410570 0.329080 -0.534730
O50   O     O_R   0.329860 0.410570 0.670920 -0.528973
O51   O     O_R   0.170140 0.910570 0.329080 -0.534730
O52   O     O_R   0.829860 0.910570 0.670920 -0.528973
C105  C     C_3   0.852443 0.108005 0.439575 -0.247404
C106  C     C_3   0.910552 0.165752 0.479606 -0.349398
C107  C     C_3   0.962706 0.221450 0.425534 -0.448326
H49   H     H_    0.997535 0.149382 0.403371 0.144352
H50   H     H_    0.936470 0.264621 0.379844 0.153923
H51   H     H_    0.994193 0.293031 0.450842 0.141897
H52   H     H_    0.889201 0.236637 0.515703 0.166653
H53   H     H_    0.935362 0.092393 0.510425 0.168725
H54   H     H_    0.879177 0.040269 0.404419 0.194386
H55   H     H_    0.828493 0.184003 0.410418 0.201876
C108  C     C_3   0.137419 0.080389 0.566153 -0.246307
C109  C     C_3   0.075355 0.135674 0.530890 -0.349529
C110  C     C_3   0.028872 0.193654 0.589888 -0.453339
H56   H     H_    0.996539 0.121930 0.616257 0.146412
H57   H     H_    0.059847 0.239869 0.631590 0.144188
H58   H     H_    0.994570 0.265529 0.569049 0.145142
H59   H     H_    0.093456 0.205825 0.492686 0.159282
H60   H     H_    0.047228 0.061790 0.502943 0.154576
H61   H     H_    0.116081 0.007749 0.601821 0.188245
H62   H     H_    0.158917 0.159810 0.594442 0.202982
C111  C     C_3   0.352443 0.608005 0.439575 -0.247405
C112  C     C_3   0.410552 0.665752 0.479606 -0.349398
C113  C     C_3   0.462706 0.721450 0.425534 -0.448326
H63   H     H_    0.497535 0.649382 0.403371 0.144352
H64   H     H_    0.436470 0.764621 0.379844 0.153923
H65   H     H_    0.494193 0.793031 0.450842 0.141897
H66   H     H_    0.389201 0.736637 0.515703 0.166653
H67   H     H_    0.435362 0.592393 0.510425 0.168725
H68   H     H_    0.379177 0.540269 0.404419 0.194386
H69   H     H_    0.328493 0.684003 0.410418 0.201876
C114  C     C_3   0.637419 0.580388 0.566153 -0.246307
C115  C     C_3   0.575355 0.635674 0.530890 -0.349529
C116  C     C_3   0.528872 0.693654 0.589888 -0.453339
H70   H     H_    0.496539 0.621930 0.616257 0.146412
H71   H     H_    0.559848 0.739869 0.631590 0.144188
H72   H     H_    0.494570 0.765529 0.569049 0.145142
H73   H     H_    0.593456 0.705825 0.492686 0.159282
H74   H     H_    0.547228 0.561790 0.502943 0.154576
H75   H     H_    0.616081 0.507749 0.601821 0.188245
H76   H     H_    0.658917 0.659810 0.594442 0.202982

loop_
_geom_bond_atom_site_label_1
_geom_bond_atom_site_label_2
_ccdc_geom_bond_type
C58   C62   A    
C81   O45   A    
C62   C83   S    
C14   H26   S    
Cr7   O27   S    
C101  C102  A    
C56   C76   A    
C48   C95   S    
C55   C59   A    
C83   O51   A    
C50   H46   S    
C14   C18   A    
Cr9   O13   S    
C113  H63   S    
Cr4   O44   S    
C33   C77   S    
C90   O14   A    
C97   C98   A    
C106  C107  S    
C106  H52   S    
Cr8   O20   S    
C66   C70   A    
C95   C104  A    
C5    H17   S    
C108  H62   S    
C116  H70   S    
C110  H56   S    
C57   C61   A    
C7    C99   A    
C48   O36   A    
C88   O8    A    
C43   C88   S    
Cr2   O2    S    
C47   O31   A    
C69   C73   A    
C16   H28   S    
Cr7   O51   S    
C15   C19   A    
C110  H58   S    
C67   H11   S    
C6    C12   A    
C84   O48   A    
Cr12  O36   S    
C115  H74   S    
C105  H54   S    
C46   O34   A    
C67   C71   A    
C8    H20   S    
C94   C98   A    
C37   H41   S    
Cr2   O46   S    
C112  H67   S    
C70   H14   S    
Cr1   O45   S    
C25   C29   A    
C25   H33   S    
Cr1   O21   S    
C37   C42   A    
C60   H8    S    
C11   H23   S    
C53   C73   A    
Cr8   O32   S    
Cr11  O11   S    
C92   O16   A    
Cr12  O40   S    
C54   C74   A    
Cr9   O33   S    
C9    H21   S    
C40   C43   A    
C89   O41   A    
C20   C24   A    
C94   C101  A    
Cr5   O25   S    
Cr10  O14   S    
C91   O15   A    
Cr7   O19   S    
C70   C74   A    
C85   O9    A    
C47   C96   S    
Cr10  O38   S    
C51   H47   S    
Cr9   O37   S    
C44   C87   S    
C103  C104  A    
C9    C10   A    
C68   H12   S    
Cr3   O43   S    
C102  H2    S    
C72   C76   A    
C105  H55   S    
C55   C75   A    
C114  H76   S    
C44   C52   A    
Cr4   O4    S    
C29   C33   A    
C14   C34   A    
C82   O50   A    
C111  C112  S    
C48   O32   A    
C53   C105  S    
Cr5   O29   S    
C77   O37   A    
C47   O35   A    
C4    O28   A    
C45   C94   S    
C28   C32   A    
C41   C49   A    
C109  C110  S    
Cr4   O48   S    
C83   O47   A    
Cr5   O5    S    
C46   O30   A    
Cr10  O10   S    
C63   C67   A    
C23   C27   A    
C59   H7    S    
C54   C108  S    
C56   C114  S    
Cr3   O3    S    
C75   C91   S    
C58   H6    S    
C107  H51   S    
C116  H71   S    
C30   C34   A    
C63   C82   S    
C27   C31   A    
C51   C52   A    
C6    C98   A    
C2    O26   A    
C26   H34   S    
C62   C66   A    
Cr2   O22   S    
C38   C41   A    
C36   C80   S    
C107  H49   S    
Cr12  O12   S    
C115  H73   S    
C82   O46   A    
C3    C22   S    
C78   O38   A    
C105  C106  S    
Cr10  O18   S    
Cr11  O35   S    
C112  H66   S    
Cr6   O26   S    
C85   O5    A    
C56   C60   A    
Cr11  O39   S    
C68   C72   A    
C86   O10   A    
C45   O29   A    
C65   H9    S    
C19   C23   A    
C17   C21   A    
C2    O22   A    
Cr6   O30   S    
C37   C38   A    
C92   O44   A    
C3    O27   A    
Cr8   O28   S    
C6    H18   S    
C93   C97   A    
C31   H39   S    
C108  C109  S    
C32   H40   S    
C16   C20   A    
C87   O7    A    
C40   H44   S    
C12   H24   S    
Cr9   O9    S    
C111  H68   S    
C113  H64   S    
C42   C85   S    
C55   C111  S    
Cr1   O41   S    
C57   H5    S    
C38   H42   S    
C109  H59   S    
C78   O2    A    
C76   C92   S    
C15   H27   S    
Cr6   O6    S    
C69   H13   S    
Cr2   O18   S    
C42   C50   A    
C26   C30   A    
C13   H25   S    
C89   O13   A    
Cr12  O16   S    
C22   C26   A    
C17   H29   S    
C49   C50   A    
C31   C35   A    
C59   C63   A    
Cr9   O17   S    
Cr11  O15   S    
C64   C68   A    
C39   C40   A    
C108  H61   S    
C115  C116  S    
C29   H37   S    
C54   C58   A    
Cr5   O17   S    
C52   H48   S    
C21   C25   A    
C112  C113  S    
C116  H72   S    
C53   C57   A    
C39   H43   S    
C86   O6    A    
C49   H45   S    
C109  H60   S    
Cr4   O24   S    
C103  H3    S    
C24   C28   A    
C27   H35   S    
C18   H30   S    
C61   C84   S    
C3    O23   A    
C93   C102  A    
Cr2   O42   S    
Cr11  O19   S    
C11   C12   A    
C32   C36   A    
C5    C11   A    
C39   C44   A    
Cr4   O20   S    
C1    O21   A    
C87   O11   A    
C96   C100  A    
C79   O39   A    
C88   O12   A    
C99   C100  A    
C13   C17   A    
C60   C64   A    
C101  H1    S    
C81   O49   A    
C4    O24   A    
C28   H36   S    
C18   C22   A    
C8    C100  A    
C66   H10   S    
C73   C89   S    
C110  H57   S    
C16   C36   A    
C72   H16   S    
C71   C75   A    
C4    C21   S    
C43   C51   A    
C20   H32   S    
Cr8   O8    S    
C46   C93   S    
C65   C69   A    
C74   C90   S    
Cr12  O20   S    
C35   C79   S    
C91   O43   A    
Cr1   O1    S    
C111  H69   S    
C5    C97   A    
C113  H65   S    
C95   C99   A    
C106  H53   S    
Cr8   O52   S    
C61   C65   A    
C1    O25   A    
Cr6   O50   S    
C19   H31   S    
C64   C81   S    
C15   C35   A    
C41   C86   S    
C7    H19   S    
Cr5   O49   S    
C71   H15   S    
C7    C9    A    
C30   H38   S    
Cr3   O47   S    
Cr6   O18   S    
C1    C24   S    
C8    C10   A    
C13   C33   A    
Cr10  O34   S    
C96   C103  A    
Cr3   O19   S    
C2    C23   S    
C79   O3    A    
C90   O42   A    
C45   O33   A    
Cr3   O23   S    
C10   H22   S    
Cr1   O17   S    
C80   O40   A    
C77   O1    A    
C80   O4    A    
C107  H50   S    
C34   C78   S    
C84   O52   A    
C114  C115  S    
Cr7   O31   S    
C104  H4    S    
Cr7   O7    S    
C114  H75   S    
