data_mof_unit_63068.cif
_audit_creation_date              2012-12-10T16:43:31-0500
_audit_creation_method            fapswitch 2.2
_symmetry_space_group_name_H-M    P1
_symmetry_Int_Tables_number       1
_space_group_crystal_system       triclinic
_cell_length_a                    18.464192
_cell_length_b                    18.457102
_cell_length_c                    18.435654
_cell_angle_alpha                 119.81434
_cell_angle_beta                  90.333464
_cell_angle_gamma                 119.770414
_cell_volume                      4457.48464731

loop_
_atom_site_label
_atom_site_type_symbol
_atom_type_description
_atom_site_fract_x
_atom_site_fract_y
_atom_site_fract_z
_atom_type_partial_charge
C1    C     C_R   0.361885 0.001691 0.138893 0.507831
C2    C     C_2   0.803223 0.998625 0.691055 -0.094545
C3    C     C_2   0.721785 0.940701 0.777989 -0.159808
C4    C     C_R   0.638897 0.000432 0.861828 0.513409
C5    C     C_2   0.697086 0.004752 0.809333 -0.094870
C6    C     C_2   0.280869 0.443720 0.721153 -0.158079
C7    C     C_2   0.192194 0.387745 0.696672 -0.093783
C8    C     C_2   0.337109 0.556069 0.779754 -0.159270
C9    C     C_2   0.304599 0.612284 0.803420 -0.093812
C10   C     C_2   0.278716 0.044561 0.333822 -0.170133
C11   C     C_2   0.190434 0.987553 0.303299 -0.112928
C12   C     C_R   0.101723 0.009100 0.799911 -0.097432
C13   C     C_2   0.327252 0.029035 0.271517 -0.145178
C14   C     C_2   0.310251 0.021470 0.195768 0.027076
C15   C     C_2   0.770671 0.934316 0.219246 -0.171148
C16   C     C_R   0.638166 0.277079 0.138623 0.511377
C17   C     C_2   0.813434 0.008420 0.305634 -0.106478
C18   C     C_2   0.721425 0.942854 0.165836 -0.148705
C19   C     C_2   0.669319 0.975395 0.192832 0.019490
C20   C     C_2   0.776182 0.556093 0.218907 -0.158717
C21   C     C_2   0.808864 0.612238 0.307709 -0.093798
C22   C     C_2   0.722487 0.443758 0.162749 -0.157840
C23   C     C_R   0.173975 0.006281 0.777528 0.028823
C24   C     C_2   0.690908 0.387758 0.195506 -0.094776
C25   C     C_R   0.138371 0.277041 0.638860 0.511462
C26   C     C_R   0.861718 0.722917 0.361561 0.513774
C27   C     C_R   0.861184 0.999812 0.638333 0.508175
C28   C     C_R   0.361452 0.722970 0.861213 0.512477
C29   C     C_R   0.138106 0.997974 0.361189 0.511223
C30   C     C_R   0.861771 0.001450 0.360363 0.513116
C31   C     C_R   0.139914 0.002112 0.642261 0.493243
C32   C     C_R   0.636484 0.996812 0.139643 0.517672
C33   C     C_R   0.359781 0.002300 0.862423 0.492074
C34   C     C_R   0.227898 0.005166 0.831720 0.028467
C35   C     C_R   0.206152 0.004638 0.905121 -0.099159
C36   C     C_R   0.131594 0.001358 0.922266 -0.125174
C37   C     C_R   0.080105 0.004659 0.870453 -0.123287
C38   C     C_3   0.255393 0.053521 0.175415 -0.255393
C39   C     C_3   0.314479 0.148859 0.175789 -0.290575
C40   C     C_3   0.267021 0.197534 0.177488 -0.455263
C41   C     C_3   0.635061 0.980705 0.269478 -0.250613
C42   C     C_3   0.533265 0.911258 0.237690 -0.293155
C43   C     C_3   0.499632 0.915731 0.314241 -0.456533
C44   C     C_R   0.303248 0.007797 0.812285 0.022212
C45   C     C_R   0.325723 0.015680 0.743060 -0.149985
C46   C     C_R   0.272543 0.015511 0.689690 -0.150631
C47   C     C_R   0.195754 0.008088 0.704464 0.022728
C48   C     C_2   0.780695 0.943472 0.724557 -0.161744
H1    H     H_    0.383613 0.018911 0.728443 0.134302
H2    H     H_    0.776559 0.870631 0.186158 0.158911
H3    H     H_    0.246454 0.008433 0.951203 0.137704
H4    H     H_    0.811537 0.075014 0.337229 0.112345
H5    H     H_    0.733609 0.927999 0.103915 0.144401
H6    H     H_    0.789907 0.593352 0.185110 0.155538
H7    H     H_    0.798851 0.578363 0.343806 0.107813
H8    H     H_    0.707876 0.406370 0.091606 0.157035
H9    H     H_    0.701750 0.421741 0.265564 0.106644
H10   H     H_    0.114404 0.997866 0.976950 0.105919
H11   H     H_    0.023792 0.005236 0.885749 0.112836
H12   H     H_    0.720346 0.064009 0.798637 0.106146
H13   H     H_    0.061947 0.016767 0.764899 0.137798
H14   H     H_    0.290303 0.018472 0.634822 0.132784
H15   H     H_    0.805141 0.896959 0.711655 0.153744
H16   H     H_    0.778385 0.043619 0.700180 0.106872
H17   H     H_    0.699116 0.884305 0.792652 0.155008
H18   H     H_    0.203883 0.141171 0.121142 0.149953
H19   H     H_    0.252828 0.227000 0.240615 0.155745
H20   H     H_    0.309832 0.262308 0.172549 0.149902
H21   H     H_    0.375342 0.206698 0.235389 0.174817
H22   H     H_    0.334785 0.127904 0.115836 0.153976
H23   H     H_    0.314521 0.406294 0.698459 0.156446
H24   H     H_    0.203046 0.989694 0.109303 0.139808
H25   H     H_    0.222102 0.072336 0.224450 0.154487
H26   H     H_    0.524786 0.889513 0.343930 0.156584
H27   H     H_    0.521572 0.994960 0.366073 0.155946
H28   H     H_    0.426111 0.865237 0.289293 0.143986
H29   H     H_    0.504290 0.934720 0.208101 0.180010
H30   H     H_    0.509472 0.831112 0.186168 0.160996
H31   H     H_    0.658580 0.955562 0.301608 0.152310
H32   H     H_    0.659095 0.061064 0.320477 0.152492
H33   H     H_    0.156203 0.421754 0.719658 0.107404
H34   H     H_    0.408086 0.593275 0.803122 0.155393
H35   H     H_    0.234699 0.578461 0.779768 0.108499
H36   H     H_    0.315253 0.096748 0.404575 0.157400
H37   H     H_    0.154828 0.929942 0.232440 0.116902
H38   H     H_    0.378300 0.020975 0.287946 0.129280
O1    O     O_3   0.500000 0.000000 0.000000 -0.439550
O2    O     O_R   0.054120 0.939900 0.325040 -0.543335
O3    O     O_R   0.884120 0.060070 0.444330 -0.541536
O4    O     O_R   0.325020 0.939940 0.054210 -0.547091
O5    O     O_R   0.175860 0.060090 0.615830 -0.543749
O6    O     O_R   0.884120 0.939900 0.324160 -0.541628
O7    O     O_R   0.055710 0.939940 0.615850 -0.549935
O8    O     O_R   0.885720 0.939940 0.614980 -0.546772
O9    O     O_R   0.174930 0.060060 0.445830 -0.538968
O10   O     O_R   0.054120 0.229160 0.614300 -0.540785
O11   O     O_R   0.885050 0.770830 0.325070 -0.541756
O12   O     O_R   0.614240 0.229150 0.054160 -0.540059
O13   O     O_R   0.614240 0.060060 0.885070 -0.540660
O14   O     O_R   0.614900 0.229170 0.174980 -0.540555
O15   O     O_R   0.445840 0.770840 0.885740 -0.542269
O16   O     O_R   0.615830 0.060100 0.175880 -0.545807
O17   O     O_R   0.324090 0.939910 0.884220 -0.550597
O18   O     O_R   0.615830 0.939930 0.055710 -0.550247
O19   O     O_R   0.444240 0.060060 0.884190 -0.542605
O20   O     O_R   0.325020 0.770840 0.885120 -0.536726
O21   O     O_R   0.445840 0.060100 0.175010 -0.552374
O22   O     O_R   0.614900 0.939900 0.885710 -0.540738
O23   O     O_3   0.999960 0.000000 0.500040 -0.440500
O24   O     O_R   0.174930 0.229160 0.614920 -0.540986
O25   O     O_R   0.885720 0.770850 0.445880 -0.537798
O26   O     O_R   0.885050 0.060100 0.614330 -0.540653
Zn1   Zn    Zn3+2 0.542440 0.085830 0.956610 0.934619
Zn2   Zn    Zn3+2 0.543390 0.085850 0.129220 0.920669
Zn3   Zn    Zn3+2 0.543390 0.914160 0.957530 0.929524
Zn4   Zn    Zn3+2 0.370780 0.914160 0.956640 0.925172
Zn5   Zn    Zn3+2 0.957510 0.914170 0.543430 0.931897
Zn6   Zn    Zn3+2 0.956570 0.085840 0.542520 0.938439
Zn7   Zn    Zn3+2 0.956570 0.914150 0.370820 0.934963
Zn8   Zn    Zn3+2 0.129180 0.085840 0.543400 0.932439

loop_
_geom_bond_atom_site_label_1
_geom_bond_atom_site_label_2
_ccdc_geom_bond_type
C15   C18   S    
C21   C26   S    
C1    O4    A    
C41   C42   S    
C35   C36   A    
C41   H32   S    
O23   Zn5   S    
C45   C46   A    
C4    O22   A    
C12   C23   A    
C46   H14   S    
C8    H34   S    
O22   Zn3   S    
O19   Zn1   S    
C36   C37   A    
O6    Zn7   S    
C34   C35   A    
C36   H10   S    
C38   C39   S    
O8    Zn5   S    
C3    C48   S    
C18   C19   D    
C15   H2    S    
C12   C37   A    
O1    Zn2   S    
C18   H5    S    
C28   O15   A    
C28   O20   A    
C8    C9    D    
C29   O2    A    
C40   H19   S    
C13   H38   S    
C32   O18   A    
C2    C27   S    
O4    Zn4   S    
O1    Zn3   S    
C43   H26   S    
O23   Zn8   S    
C16   C24   S    
C31   C47   S    
C13   C14   D    
C17   C30   S    
C3    H17   S    
O7    Zn5   S    
O5    Zn8   S    
C30   O3    A    
C19   C32   S    
C17   H4    S    
C2    H16   S    
O23   Zn6   S    
C43   H27   S    
C6    H23   S    
C38   H24   S    
C23   C47   A    
O14   Zn2   S    
C30   O6    A    
O24   Zn8   S    
C39   C40   S    
C21   H7    S    
C24   H9    S    
O12   Zn1   S    
C6    C8    S    
C2    C48   D    
C31   O7    A    
O20   Zn4   S    
O11   Zn7   S    
O21   Zn2   S    
C41   H31   S    
O16   Zn2   S    
C14   C38   S    
O18   Zn3   S    
C45   H1    S    
C23   C34   A    
C39   H21   S    
C33   O19   A    
O3    Zn6   S    
O2    Zn7   S    
O1    Zn4   S    
C37   H11   S    
C25   O24   A    
C1    O21   A    
C20   H6    S    
C7    H33   S    
C20   C22   S    
C27   O26   A    
C42   H30   S    
C31   O5    A    
C35   H3    S    
O15   Zn3   S    
C32   O16   A    
C42   C43   S    
C3    C5    D    
C44   C45   A    
O23   Zn7   S    
C29   O9    A    
O10   Zn6   S    
C43   H28   S    
C15   C17   D    
C34   C44   A    
C46   C47   A    
C5    H12   S    
C33   O17   A    
C33   C44   S    
C16   O14   A    
C4    C5    S    
C48   H15   S    
C10   C13   S    
O13   Zn1   S    
C22   H8    S    
C9    H35   S    
C6    C7    D    
O9    Zn8   S    
C7    C25   S    
O25   Zn5   S    
O17   Zn4   S    
O26   Zn6   S    
C12   H13   S    
C16   O12   A    
C11   H37   S    
C10   H36   S    
C39   H22   S    
C22   C24   D    
O1    Zn1   S    
C10   C11   D    
C26   O11   A    
C20   C21   D    
C11   C29   S    
C25   O10   A    
C40   H20   S    
C4    O13   A    
C42   H29   S    
C27   O8    A    
C40   H18   S    
C1    C14   S    
C26   O25   A    
C19   C41   S    
C9    C28   S    
C38   H25   S    
