data_mof_unit_19992.cif
_audit_creation_date              2013-03-05T15:42:20-0500
_audit_creation_method            fapswitch 2.2
_symmetry_space_group_name_H-M    P1
_symmetry_Int_Tables_number       1
_space_group_crystal_system       triclinic
_cell_length_a                    16.881592
_cell_length_b                    16.749823
_cell_length_c                    19.48172
_cell_angle_alpha                 117.870217
_cell_angle_beta                  61.994827
_cell_angle_gamma                 101.031982
_cell_volume                      4296.7394274

loop_
_atom_site_label
_atom_site_type_symbol
_atom_site_description
_atom_site_fract_x
_atom_site_fract_y
_atom_site_fract_z
_atom_type_partial_charge
C1    C     C_R   0.041359 0.759360 0.010318 -0.102559
H1    H     H_    0.083707 0.807648 0.036634 0.116098
N1    N     N_R   0.036080 0.671900 0.995420 -0.035215
C2    C     C_R   0.764247 0.417962 0.163993 -0.145622
H2    H     H_    0.723751 0.368568 0.135767 0.088816
N2    N     N_R   0.834710 0.454650 0.119760 -0.039254
C3    C     C_R   0.802985 0.561099 0.963960 -0.127209
H3    H     H_    0.812515 0.604859 0.934515 0.097896
N3    N     N_R   0.867430 0.509300 0.948100 -0.042433
C4    C     C_R   0.952745 0.672823 0.248984 -0.132522
H4    H     H_    0.910679 0.651275 0.298850 0.099916
N4    N     N_R   0.003360 0.617250 0.167070 -0.046733
C5    C     C_R   0.738512 0.482560 0.041196 -0.126286
H5    H     H_    0.693071 0.454698 0.084999 0.096769
N5    N     N_R   0.825450 0.461270 0.995400 -0.042971
C6    C     C_R   0.023383 0.752960 0.173898 -0.085270
H6    H     H_    0.049473 0.808018 0.156797 0.096672
N6    N     N_R   0.045340 0.665280 0.119770 -0.036698
C7    C     C_R   0.842379 0.486936 0.239898 -0.143082
H7    H     H_    0.873305 0.501467 0.281851 0.086280
N7    N     N_R   0.883740 0.497640 0.167070 -0.039017
C8    C     C_R   0.963128 0.690268 0.934307 -0.132588
H8    H     H_    0.932178 0.674984 0.892325 0.090665
N8    N     N_R   0.987050 0.628910 0.948110 -0.044521
C9    C     C_R   0.991114 0.774461 0.977582 0.040958
C10   C     C_R   0.767142 0.436394 0.239792 0.085627
C11   C     C_R   0.721525 0.547896 0.025150 0.089712
C12   C     C_R   0.961477 0.759455 0.255040 0.052018
C13   C     C_R   0.249760 0.570337 0.014199 0.304662
N9    N     N_R   0.174550 0.538730 0.004600 -0.088314
C14   C     C_R   0.920425 0.261879 0.835611 -0.131895
H9    H     H_    0.873051 0.219799 0.863518 0.086846
N10   N     N_R   0.954660 0.334720 0.880230 -0.040375
C15   C     C_R   0.171993 0.450490 0.751189 -0.125758
H10   H     H_    0.151121 0.408598 0.700976 0.099530
N11   N     N_R   0.116260 0.502360 0.832930 -0.047993
C16   C     C_R   0.051192 0.307626 0.051568 -0.118391
H11   H     H_    0.091606 0.321231 0.085204 0.100895
N12   N     N_R   0.012950 0.371090 0.051890 -0.041674
C17   C     C_R   0.973060 0.238683 0.975146 -0.120508
H12   H     H_    0.940787 0.188120 0.937606 0.097978
N13   N     N_R   0.963920 0.328100 0.004580 -0.043224
C18   C     C_R   0.251518 0.518247 0.826833 -0.081551
H13   H     H_    0.305123 0.537411 0.845503 0.154453
N14   N     N_R   0.165290 0.545350 0.880240 -0.035002
C19   C     C_R   0.181474 0.491765 0.089801 -0.196243
H14   H     H_    0.155739 0.470716 0.140881 0.114025
N15   N     N_R   0.132570 0.490700 0.051900 -0.061103
C20   C     C_R   0.987386 0.340907 0.759760 -0.146149
H15   H     H_    0.001534 0.372475 0.718122 0.089469
N16   N     N_R   0.996640 0.382750 0.832930 -0.041401
Ni1   Ni    Ni4+2 0.104370 0.604370 0.000010 0.299373
Ni2   Ni    Ni4+2 0.895630 0.395630 0.999990 0.206769
Ni3   Ni    Ni4+2 0.991920 0.505780 0.891500 0.213029
Ni4   Ni    Ni4+2 0.008080 0.494220 0.108500 0.203060
C21   C     C_R   0.255810 0.543362 0.069387 -0.051541
C22   C     C_R   0.938472 0.264597 0.759618 0.083867
C23   C     C_R   0.257953 0.457351 0.745457 0.037137
C24   C     C_R   0.028346 0.222498 0.003010 0.065375
C25   C     C_R   0.923230 0.220885 0.625433 -0.255053
C26   C     C_R   0.901368 0.206744 0.697944 0.112833
C27   C     C_R   0.850888 0.132189 0.706845 -0.252632
C28   C     C_R   0.834799 0.065076 0.638382 0.137529
C29   C     C_R   0.867788 0.074089 0.561166 0.029588
C30   C     C_R   0.907867 0.154370 0.556344 0.141575
C31   C     C_R   0.794789 0.985064 0.642666 -0.195664
C32   C     C_R   0.796813 0.910701 0.568093 -0.195755
C33   C     C_R   0.839097 0.916060 0.488973 0.134603
C34   C     C_R   0.870027 0.999325 0.486202 0.027635
C35   C     C_R   0.912540 0.005191 0.406801 0.141980
C36   C     C_R   0.942744 0.088355 0.404682 -0.197241
C37   C     C_R   0.940467 0.162825 0.479341 -0.202720
C38   C     C_R   0.860299 0.837888 0.411898 -0.247225
C39   C     C_R   0.915245 0.841953 0.332738 0.119078
C40   C     C_R   0.933349 0.926199 0.330260 -0.248335
H16   H     H_    0.959084 0.279549 0.618643 0.116907
H17   H     H_    0.830553 0.121780 0.763544 0.119006
H18   H     H_    0.767674 0.977949 0.702096 0.137769
H19   H     H_    0.771363 0.847351 0.571157 0.136262
H20   H     H_    0.841085 0.773763 0.414814 0.119519
H21   H     H_    0.970841 0.930675 0.269460 0.114490
H22   H     H_    0.974009 0.094087 0.344295 0.126360
H23   H     H_    0.969925 0.224876 0.475365 0.129272
C41   C     C_R   0.337676 0.358464 0.587625 -0.242495
C42   C     C_R   0.340653 0.411989 0.667394 0.114182
C43   C     C_R   0.424190 0.431207 0.670159 -0.239970
C44   C     C_R   0.503109 0.412117 0.594010 0.129788
C45   C     C_R   0.498286 0.370074 0.514331 0.028138
C46   C     C_R   0.415949 0.338746 0.510851 0.135126
C47   C     C_R   0.585262 0.443028 0.596908 -0.178358
C48   C     C_R   0.660023 0.441033 0.522614 -0.208874
C49   C     C_R   0.653066 0.408003 0.445005 0.144676
C50   C     C_R   0.573465 0.367973 0.439636 0.031657
C51   C     C_R   0.565898 0.334485 0.361869 0.139140
C52   C     C_R   0.486507 0.294800 0.357043 -0.190053
C53   C     C_R   0.411735 0.296894 0.431337 -0.195541
C54   C     C_R   0.720691 0.422505 0.375588 -0.271267
C55   C     C_R   0.708402 0.399695 0.302114 0.107411
C56   C     C_R   0.634122 0.349435 0.293083 -0.252228
H24   H     H_    0.274259 0.338990 0.584264 0.118815
H25   H     H_    0.428247 0.468255 0.731045 0.145424
H26   H     H_    0.590136 0.474222 0.657585 0.150499
H27   H     H_    0.721351 0.470623 0.527194 0.133133
H28   H     H_    0.778979 0.458271 0.382510 0.118049
H29   H     H_    0.624796 0.328347 0.235848 0.119604
H30   H     H_    0.480385 0.267546 0.297230 0.137640
H31   H     H_    0.349155 0.271302 0.427625 0.134534
C57   C     C_R   0.632825 0.591024 0.065024 0.087285
C58   C     C_R   0.319744 0.569210 0.107721 0.079283
C59   C     C_R   0.398948 0.524051 0.161905 0.184146
C60   C     C_R   0.325498 0.517709 0.145084 -0.200609
C61   C     C_R   0.380484 0.638218 0.100748 -0.150894
C62   C     C_R   0.461333 0.636122 0.103353 -0.045211
C63   C     C_R   0.471792 0.574600 0.129689 0.044609
C64   C     C_R   0.557344 0.555414 0.112647 -0.252065
C65   C     C_R   0.621285 0.661833 0.051111 -0.271615
C66   C     C_R   0.535355 0.686639 0.072099 0.363764
H32   H     H_    0.565179 0.503532 0.126937 0.123620
H33   H     H_    0.678875 0.694612 0.019710 0.153560
H34   H     H_    0.275272 0.469250 0.156882 0.137128
H35   H     H_    0.369076 0.687898 0.085840 0.204637
C67   C     C_R   0.832406 0.181817 0.146792 0.123675
C68   C     C_R   0.962967 0.863272 0.994842 0.128072
C69   C     C_R   0.889104 0.949855 0.968055 -0.197293
C70   C     C_R   0.928337 0.868988 0.944147 -0.161615
C71   C     C_R   0.960449 0.941298 0.068654 -0.265432
C72   C     C_R   0.920105 0.022482 0.093734 0.186755
C73   C     C_R   0.883001 0.026386 0.043566 0.180557
C74   C     C_R   0.838967 0.106307 0.070838 -0.264313
C75   C     C_R   0.869880 0.178461 0.195858 -0.155483
C76   C     C_R   0.913617 0.099172 0.169647 -0.219855
H36   H     H_    0.809453 0.110482 0.033782 0.122885
H37   H     H_    0.864492 0.237382 0.254521 0.125754
H38   H     H_    0.861613 0.951910 0.928576 0.133616
H39   H     H_    0.941466 0.097495 0.209026 0.125070
H40   H     H_    0.929816 0.810440 0.886760 0.120312
H41   H     H_    0.985608 0.937918 0.109216 0.115663
N17   N     N_2   0.404990 0.474465 0.202860 -0.109750
H42   H     H_    0.436714 0.507852 0.242448 0.169112
C77   C     C_3   0.329962 0.423213 0.236321 -0.935593
H43   H     H_    0.346900 0.391270 0.266756 0.251574
H44   H     H_    0.316167 0.368150 0.183010 0.256130
H45   H     H_    0.269502 0.468424 0.285962 0.249888
N18   N     N_R   0.526411 0.757610 0.054487 0.228024
O1    O     O_R   0.556969 0.836594 0.088157 -0.392748
O2    O     O_R   0.509154 0.738177 0.990105 -0.334748
N19   N     N_R   0.300331 0.638478 0.988655 0.207237
O3    O     O_R   0.258671 0.702711 0.997207 -0.417320
O4    O     O_R   0.385875 0.623617 0.937858 -0.391415

loop_
_geom_bond_atom_site_label_1
_geom_bond_atom_site_label_2
_geom_bond_distance
_ccdc_geom_bond_type
C6    C12   1.390747 A    
N15   Ni4   1.856459 S    
C44   C45   1.409557 A    
C71   H41   1.083632 S    
C11   C57   1.471197 S    
C50   C51   1.409284 A    
C38   C39   1.404980 A    
C27   H17   1.081397 S    
C52   C53   1.393984 A    
C77   H45   1.111138 S    
C57   C65   1.398808 A    
C12   C39   1.468872 S    
C73   C74   1.404230 A    
C63   C64   1.388157 A    
N6    Ni1   1.859469 S    
C3    H3    1.074012 S    
C42   C43   1.405951 A    
C13   N9    1.341816 A    
N5    Ni2   1.819442 S    
C57   C64   1.398760 A    
N9    N15   1.363893 A    
N19   O4    1.300746 A    
C77   H44   1.110363 S    
C15   H10   1.077397 S    
C76   H39   1.083654 S    
C58   C60   1.403174 A    
N13   Ni2   1.818489 S    
C68   C70   1.406541 A    
N8    Ni3   1.824763 S    
C3    C11   1.397015 A    
C65   C66   1.399649 A    
C1    H1    1.078574 S    
C7    C10   1.385360 A    
C59   C60   1.398145 A    
C47   H26   1.083763 S    
C18   C23   1.390810 A    
C45   C50   1.401561 A    
N12   Ni4   1.824763 S    
N19   O3    1.300709 A    
C6    H6    1.072136 S    
C20   N16   1.334460 A    
C8    C9    1.389311 A    
C14   N10   1.337369 A    
C35   C36   1.401524 A    
C59   C63   1.413003 A    
C67   C74   1.396945 A    
C69   C73   1.401098 A    
C36   H22   1.083925 S    
C17   N13   1.340960 A    
C31   C32   1.393223 A    
C28   C31   1.401602 A    
C17   C24   1.396217 A    
C5    H5    1.074716 S    
C1    C9    1.389640 A    
N1    N8    1.385970 A    
C26   C27   1.404340 A    
C56   H29   1.080837 S    
C61   C62   1.397045 A    
C49   C54   1.393668 A    
C54   C55   1.405403 A    
N12   N13   1.385970 A    
N10   Ni2   1.859469 S    
C31   H18   1.083818 S    
C19   N15   1.334769 A    
C39   C40   1.404173 A    
C32   C33   1.401807 A    
C41   H24   1.081236 S    
C59   N17   1.437098 S    
C66   N18   1.432595 S    
C32   H19   1.083856 S    
C77   H43   1.110839 S    
C2    N2    1.337118 A    
C4    H4    1.077124 S    
C58   C61   1.402966 A    
C48   C49   1.402036 A    
N7    Ni4   1.856597 S    
C43   C44   1.393371 A    
C40   H21   1.081709 S    
C68   C71   1.408702 A    
N14   Ni1   1.859658 S    
C33   C38   1.390577 A    
N2    N7    1.385970 A    
C25   H16   1.080785 S    
C25   C26   1.406266 A    
C1    N1    1.347232 A    
C18   H13   1.069130 S    
C16   H11   1.080524 S    
C52   H30   1.083801 S    
C18   N14   1.340369 A    
C14   H9    1.079897 S    
C64   H32   1.074678 S    
C27   C28   1.392097 A    
N11   N14   1.385970 A    
C29   C34   1.399602 A    
C41   C42   1.405289 A    
C9    C68   1.484777 S    
C16   C24   1.395643 A    
C4    N4    1.333521 A    
C10   C55   1.472810 S    
C62   C66   1.418002 A    
C70   H40   1.081827 S    
N18   O2    1.299683 A    
C17   H12   1.080501 S    
C53   H31   1.083753 S    
C25   C30   1.391183 A    
C55   C56   1.405974 A    
C51   C52   1.402104 A    
C5    N5    1.323005 A    
C8    N8    1.345675 A    
C75   H37   1.081949 S    
C41   C46   1.393325 A    
N2    Ni2   1.859658 S    
N4    N6    1.363895 A    
C72   C73   1.414977 A    
C23   C42   1.473427 S    
C21   C58   1.478480 S    
C62   C63   1.416080 A    
C4    C12   1.384064 A    
C3    N3    1.351586 A    
N9    Ni1   1.819439 S    
C19   H14   1.080150 S    
C7    N7    1.338766 A    
C33   C34   1.409210 A    
C5    C11   1.379049 A    
C48   H27   1.083744 S    
C2    H2    1.079569 S    
C13   N19   1.427695 S    
C20   C22   1.382213 A    
C2    C10   1.383505 A    
N1    Ni1   1.818490 S    
C22   C26   1.470007 S    
N17   C77   1.448385 S    
C13   C21   1.394814 A    
N10   N16   1.363895 A    
C30   C37   1.402463 A    
C65   H33   1.082630 S    
C69   H38   1.083606 S    
C54   H28   1.081119 S    
N18   O1    1.300723 A    
N16   Ni3   1.825923 S    
C29   C30   1.408908 A    
C74   H36   1.082878 S    
C7    H7    1.079779 S    
C75   C76   1.398886 A    
N3    N5    1.363896 A    
C36   C37   1.393742 A    
C16   N12   1.341420 A    
C14   C22   1.385948 A    
C47   C48   1.394402 A    
C51   C56   1.392457 A    
C46   C53   1.401868 A    
C71   C72   1.404440 A    
C49   C50   1.409921 A    
C38   H20   1.080976 S    
C15   N11   1.337256 A    
C34   C35   1.410710 A    
C72   C76   1.405290 A    
N4    Ni4   1.825923 S    
N11   Ni3   1.856595 S    
N17   H42   1.031693 S    
C37   H23   1.083879 S    
C28   C29   1.410414 A    
C61   H35   1.074105 S    
C45   C46   1.409990 A    
C6    N6    1.341487 A    
C20   H15   1.079518 S    
C44   C47   1.402156 A    
C19   C21   1.384724 A    
C35   C40   1.392447 A    
C15   C23   1.388326 A    
C8    H8    1.077878 S    
C60   H34   1.076390 S    
N3    Ni3   1.856457 S    
C43   H25   1.080999 S    
C67   C75   1.395993 A    
C69   C70   1.397891 A    
