data_mof_unit_18185.cif
_audit_creation_date              2012-12-11T15:20:32-0500
_audit_creation_method            fapswitch 2.2
_symmetry_space_group_name_H-M    P1
_symmetry_Int_Tables_number       1
_space_group_crystal_system       triclinic
_cell_length_a                    12.971637
_cell_length_b                    13.03332
_cell_length_c                    15.302669
_cell_angle_alpha                 116.773745
_cell_angle_beta                  63.456047
_cell_angle_gamma                 97.156013
_cell_volume                      2056.73635322

loop_
_atom_site_label
_atom_site_type_symbol
_atom_type_description
_atom_site_fract_x
_atom_site_fract_y
_atom_site_fract_z
_atom_type_partial_charge
C1    C     C_R   0.006146 0.834306 0.050284 -0.157580
C2    C     C_R   0.321793 0.527524 0.781211 -0.122447
C3    C     C_R   0.243867 0.478801 0.106692 -0.149408
C4    C     C_R   0.702008 0.403484 0.209192 -0.114773
C5    C     C_R   0.042959 0.278285 0.683081 -0.126136
C6    C     C_R   0.335867 0.540903 0.076143 0.156475
C7    C     C_R   0.034309 0.168266 0.675498 0.041169
C8    C     C_R   0.332311 0.458960 0.676927 0.046085
C9    C     C_R   0.037786 0.145652 0.018313 0.000690
C10   C     C_R   0.161782 0.969957 0.380438 -0.151145
C11   C     C_R   0.148587 0.065908 0.475614 -0.157710
C12   C     C_R   0.707720 0.428919 0.304932 0.045042
C13   C     C_R   0.083771 0.061868 0.575672 0.136618
C14   C     C_R   0.057397 0.955367 0.577813 -0.158939
C15   C     C_R   0.071603 0.859178 0.482550 -0.162174
C16   C     C_R   0.738422 0.575911 0.946763 -0.129321
C17   C     C_R   0.110627 0.870705 0.386235 0.134210
C18   C     C_R   0.640828 0.437070 0.486597 -0.167403
C19   C     C_R   0.545749 0.446072 0.580712 -0.161664
C20   C     C_R   0.440179 0.412667 0.577378 0.138921
C21   C     C_R   0.437576 0.347512 0.476494 -0.175299
C22   C     C_R   0.532544 0.339115 0.382319 -0.117738
C23   C     C_R   0.636258 0.561267 0.023175 0.162561
C24   C     C_R   0.630000 0.395100 0.389444 0.139952
C25   C     C_2   0.429610 0.562126 0.106416 -0.217926
C26   C     C_2   0.522594 0.605028 0.053998 -0.135987
C27   C     C_2   0.845633 0.964528 0.082184 0.513264
C28   C     C_R   0.013251 0.699500 0.303903 -0.115896
C29   C     C_2   0.846443 0.054474 0.170796 -0.178644
C30   C     C_R   0.660953 0.483127 0.050159 -0.119062
C31   C     C_R   0.097065 0.798633 0.208077 -0.136614
C32   C     C_R   0.802566 0.490356 0.304633 -0.119873
C33   C     C_R   0.912897 0.751896 0.947262 -0.018087
C34   C     C_R   0.074763 0.793394 0.303115 0.048288
C35   C     C_R   0.923877 0.856919 0.024467 -0.079782
C36   C     C_R   0.322369 0.579520 0.011656 -0.130298
C37   C     C_R   0.966729 0.178551 0.779576 -0.122367
C38   C     C_R   0.221657 0.450710 0.683285 -0.125017
C39   C     C_R   0.071913 0.252153 0.070843 -0.103202
C40   C     C_R   0.967170 0.167567 0.980482 -0.077140
H1    H     H_    0.035907 0.895286 0.108358 0.105067
H2    H     H_    0.179706 0.144914 0.470651 0.106012
H3    H     H_    0.015969 0.947388 0.653104 0.127259
H4    H     H_    0.648441 0.344125 0.176070 0.121470
H5    H     H_    0.039501 0.780733 0.488127 0.111184
H6    H     H_    0.717571 0.474266 0.493687 0.110006
H7    H     H_    0.553183 0.489370 0.656408 0.111114
H8    H     H_    0.359753 0.312166 0.470450 0.109771
H9    H     H_    0.524177 0.298953 0.307035 0.136844
H10   H     H_    0.431876 0.518673 0.151585 0.128975
H11   H     H_    0.519347 0.652274 0.012287 0.127021
H12   H     H_    0.933408 0.110163 0.802342 0.113237
H13   H     H_    0.906721 0.056788 0.202780 0.077256
H14   H     H_    0.745316 0.618422 0.898515 0.106849
H15   H     H_    0.993115 0.660516 0.358052 0.082793
H16   H     H_    0.602542 0.446723 0.102993 0.093808
H17   H     H_    0.155409 0.851878 0.174133 0.088627
H18   H     H_    0.841695 0.512164 0.359243 0.085223
H19   H     H_    0.863546 0.740529 0.903565 0.145959
H20   H     H_    0.367739 0.643997 0.986549 0.085372
H21   H     H_    0.584696 0.880260 0.046177 0.362546
H22   H     H_    0.200003 0.416705 0.616028 0.084159
H23   H     H_    0.122116 0.269419 0.115623 0.095524
H24   H     H_    0.916751 0.105697 0.945705 0.161189
H25   H     H_    0.389720 0.555263 0.806740 0.093734
H26   H     H_    0.220913 0.448460 0.167649 0.090279
H27   H     H_    0.074037 0.301559 0.617207 0.084188
H28   H     H_    0.200291 0.978790 0.305586 0.111986
N1    N     N_R   0.037310 0.720000 0.995790 -0.034647
N2    N     N_R   0.824890 0.517960 0.936420 -0.052682
N3    N     N_R   0.003210 0.648190 0.211380 -0.038614
N4    N     N_R   0.774330 0.457010 0.995840 -0.046836
N5    N     N_R   0.053760 0.709140 0.151960 -0.036593
N6    N     N_R   0.853860 0.498840 0.211410 -0.041150
N7    N     N_R   0.974240 0.667310 0.936390 -0.056623
N8    N     N_R   0.225670 0.542990 0.004160 -0.043454
N9    N     N_R   0.946240 0.290860 0.848040 -0.041089
N10   N     N_R   0.146140 0.501160 0.788590 -0.041786
N11   N     N_R   0.025760 0.332690 0.063610 -0.044358
N12   N     N_R   0.962690 0.280000 0.004210 -0.045150
N13   N     N_R   0.209210 0.553840 0.847990 -0.041070
N14   N     N_R   0.175110 0.482040 0.063580 -0.042021
N15   N     N_R   0.996790 0.351810 0.788620 -0.041458
N16   N     N_R   0.790790 0.446160 0.152010 -0.042480
Ni1   Ni    Ni4+2 0.130310 0.630310 0.999970 0.215230
Ni2   Ni    Ni4+2 0.869690 0.369690 0.000030 0.249478
Ni3   Ni    Ni4+2 0.985640 0.509470 0.863740 0.214849
Ni4   Ni    Ni4+2 0.014360 0.490530 0.136260 0.210114
O1    O     O_2   0.678589 0.091137 0.105124 -0.312058
O2    O     O_2   0.788855 0.932475 0.924025 -0.358703
O3    O     O_3   0.638108 0.880458 0.076499 -0.545192
S1    S     S_3+6 0.736635 0.970383 0.044782 -0.072803

loop_
_geom_bond_atom_site_label_1
_geom_bond_atom_site_label_2
_ccdc_geom_bond_type
N10   Ni3   S    
N15   Ni3   S    
C27   C29   D    
C19   C20   A    
C32   H18   S    
C5    H27   S    
C2    H25   S    
C8    C20   S    
C18   C24   A    
N16   Ni2   S    
C39   H23   S    
C32   N6    A    
C5    N15   A    
C19   H7    S    
C31   N5    A    
C6    C25   S    
N9    N15   A    
C10   C17   A    
C9    C39   A    
C11   H2    S    
C18   C19   A    
C23   C26   S    
C25   H10   S    
N12   Ni2   S    
C36   N8    A    
C33   N7    A    
C40   N12   A    
C4    C12   A    
C21   H8    S    
C3    C6    A    
C28   C34   A    
C33   H19   S    
C21   C22   A    
C12   C32   A    
C8    C38   A    
N2    Ni3   S    
C18   H6    S    
N11   Ni4   S    
C28   H15   S    
C23   C30   A    
C16   N2    A    
N8    N14   A    
O3    S1    S    
N3    N5    A    
C37   H12   S    
C38   N10   A    
C27   C35   S    
C25   C26   D    
C37   N9    A    
C9    C40   A    
C1    N1    A    
N3    Ni4   S    
C39   N11   A    
O2    S1    D    
C4    N16   A    
C3    N14   A    
C7    C37   A    
C31   C34   A    
C27   S1    S    
O1    S1    D    
N5    Ni1   S    
C22   H9    S    
N7    Ni3   S    
N9    Ni2   S    
C16   C23   A    
C22   C24   A    
C28   N3    A    
C17   C34   S    
C15   H5    S    
N1    Ni1   S    
C1    C35   A    
C5    C7    A    
C1    H1    S    
C15   C17   A    
C2    C8    A    
N6    N16   A    
C30   N4    A    
C36   H20   S    
N4    Ni2   S    
C30   H16   S    
C10   H28   S    
C4    H4    S    
C12   C24   S    
C40   H24   S    
C31   H17   S    
C26   H11   S    
C11   C13   A    
N10   N13   A    
C29   H13   S    
N14   Ni4   S    
C33   C35   A    
C6    C36   A    
N1    N7    A    
C16   H14   S    
C10   C11   A    
N11   N12   A    
C3    H26   S    
C7    C13   S    
C20   C21   A    
C14   C15   A    
C2    N13   A    
N2    N4    A    
N6    Ni4   S    
C13   C14   A    
N8    Ni1   S    
N13   Ni1   S    
H21   O3    S    
C14   H3    S    
C38   H22   S    
