data_mof_unit_28281.cif
_audit_creation_date              2013-03-05T16:23:45-0500
_audit_creation_method            fapswitch 2.2
_symmetry_space_group_name_H-M    P1
_symmetry_Int_Tables_number       1
_space_group_crystal_system       triclinic
_cell_length_a                    22.349355
_cell_length_b                    22.178875
_cell_length_c                    14.951253
_cell_angle_alpha                 89.994798
_cell_angle_beta                  89.959
_cell_angle_gamma                 89.996203
_cell_volume                      7411.08823282

loop_
_atom_site_label
_atom_site_type_symbol
_atom_site_description
_atom_site_fract_x
_atom_site_fract_y
_atom_site_fract_z
_atom_type_partial_charge
O1    O     O_R   0.438390 0.938390 0.574460 -0.617887
O2    O     O_R   0.561610 0.061610 0.425540 -0.617839
O3    O     O_R   0.561610 0.938390 0.425540 -0.618198
O4    O     O_R   0.438390 0.061610 0.574460 -0.618072
O5    O     O_R   0.938390 0.438390 0.574460 -0.617840
O6    O     O_R   0.061610 0.561610 0.425540 -0.617891
O7    O     O_R   0.061610 0.438390 0.425540 -0.618073
O8    O     O_R   0.938390 0.561610 0.574460 -0.618196
O9    O     O_R   0.438400 0.938390 0.425520 -0.608433
O10   O     O_R   0.561600 0.061610 0.574480 -0.608472
O11   O     O_R   0.561600 0.938390 0.574480 -0.608261
O12   O     O_R   0.438400 0.061610 0.425520 -0.608255
O13   O     O_R   0.938400 0.438390 0.425520 -0.608428
O14   O     O_R   0.061600 0.561610 0.574480 -0.608416
O15   O     O_R   0.061600 0.438390 0.574480 -0.608281
O16   O     O_R   0.938400 0.561610 0.425520 -0.608299
C1    C     C_R   0.419037 0.918631 0.500089 0.913855
C2    C     C_R   0.580965 0.081366 0.499912 0.913986
C3    C     C_R   0.580942 0.918612 0.499917 0.913928
C4    C     C_R   0.419035 0.081365 0.500086 0.913970
C5    C     C_R   0.919036 0.418632 0.500088 0.913971
C6    C     C_R   0.080964 0.581368 0.499911 0.913871
C7    C     C_R   0.080963 0.418634 0.499913 0.913956
C8    C     C_R   0.919058 0.581387 0.500084 0.913943
Zn1   Zn    Zn3+2 0.500000 0.000000 0.599450 0.971544
Zn2   Zn    Zn3+2 0.500000 0.000000 0.400550 0.971528
Zn3   Zn    Zn3+2 1.000000 0.500000 0.599450 0.971523
Zn4   Zn    Zn3+2 0.000000 0.500000 0.400550 0.971545
C9    C     C_3   0.471721 0.950801 0.969451 -0.022392
C10   C     C_3   0.528334 0.049123 0.030551 -0.022434
C11   C     C_3   0.527932 0.950573 0.030578 -0.022364
C12   C     C_3   0.472119 0.049354 0.969429 -0.022379
C13   C     C_3   0.971650 0.450895 0.969460 -0.022473
C14   C     C_3   0.028294 0.549206 0.030539 -0.022454
C15   C     C_3   0.027864 0.450653 0.030584 -0.022307
C16   C     C_3   0.972086 0.549444 0.969407 -0.022307
C17   C     C_3   0.698383 0.724174 0.518779 0.356494
C18   C     C_3   0.301656 0.275783 0.481445 0.356109
C19   C     C_3   0.301760 0.724072 0.482385 0.355992
C20   C     C_3   0.698232 0.275945 0.517350 0.355833
C21   C     C_3   0.198327 0.224201 0.518535 0.356099
C22   C     C_3   0.801607 0.775817 0.481237 0.356486
C23   C     C_3   0.801785 0.224038 0.482658 0.355844
C24   C     C_3   0.198258 0.775910 0.517625 0.355994
C25   C     C_3   0.238126 0.206540 0.438362 -0.332728
C26   C     C_3   0.761885 0.793542 0.561467 -0.332928
C27   C     C_3   0.761455 0.207002 0.562538 -0.332714
C28   C     C_3   0.238470 0.793092 0.437680 -0.332748
C29   C     C_3   0.738106 0.706448 0.438549 -0.332931
C30   C     C_3   0.261856 0.293444 0.561619 -0.332710
C31   C     C_3   0.261548 0.706889 0.562329 -0.332746
C32   C     C_3   0.738562 0.292982 0.437470 -0.332687
H1    H     H_    0.228056 0.169746 0.390348 0.174586
H2    H     H_    0.771981 0.830383 0.609388 0.174716
H3    H     H_    0.771179 0.170558 0.611302 0.174471
H4    H     H_    0.228666 0.829618 0.389085 0.174516
H5    H     H_    0.728010 0.669606 0.390629 0.174680
H6    H     H_    0.271926 0.330238 0.609633 0.174577
H7    H     H_    0.271352 0.670363 0.610923 0.174521
H8    H     H_    0.728837 0.329427 0.388709 0.174495
C33   C     C_1   0.375281 0.126141 0.500658 -0.154527
C34   C     C_1   0.624642 0.873784 0.499361 -0.154946
C35   C     C_1   0.624719 0.126144 0.499351 -0.154535
C36   C     C_1   0.375293 0.873845 0.500655 -0.154566
C37   C     C_1   0.875354 0.626211 0.500641 -0.154976
C38   C     C_1   0.124711 0.373852 0.499339 -0.154548
C39   C     C_1   0.124715 0.626148 0.499346 -0.154546
C40   C     C_1   0.875289 0.373848 0.500649 -0.154510
C41   C     C_3   0.252119 0.225342 0.582067 -0.081932
C42   C     C_3   0.747739 0.774533 0.417862 -0.081984
C43   C     C_3   0.748410 0.224725 0.418325 -0.081790
C44   C     C_3   0.251727 0.775111 0.581778 -0.081843
C45   C     C_3   0.752252 0.725458 0.582154 -0.081974
C46   C     C_3   0.247863 0.274642 0.417914 -0.081928
C47   C     C_3   0.248291 0.724870 0.418231 -0.081845
C48   C     C_3   0.751607 0.275259 0.581682 -0.081810
C49   C     C_3   0.292456 0.208889 0.502235 0.001402
C50   C     C_3   0.707476 0.791048 0.497758 0.001392
C51   C     C_3   0.707546 0.208893 0.497835 0.001462
C52   C     C_3   0.292474 0.791088 0.502198 0.001450
C53   C     C_3   0.792515 0.708943 0.502258 0.001407
C54   C     C_3   0.207527 0.291095 0.497745 0.001422
C55   C     C_3   0.207544 0.708894 0.497812 0.001439
C56   C     C_3   0.792471 0.291090 0.502172 0.001468
N1    N     N_1   0.500020 0.000000 0.268010 -0.103144
N2    N     N_1   0.499980 0.000000 0.731990 -0.103137
N3    N     N_1   0.000020 0.500000 0.268010 -0.103135
N4    N     N_1   0.999980 0.500000 0.731990 -0.103144
C57   C     C_3   0.443302 0.000199 0.029558 -0.029612
C58   C     C_3   0.556748 0.999725 0.970442 -0.029663
C59   C     C_3   0.943250 0.500311 0.029554 -0.029677
C60   C     C_3   0.056699 0.499792 0.970446 -0.029629
C61   C     C_3   0.499484 0.999973 0.090821 -0.037254
C62   C     C_3   0.500565 0.999956 0.909181 -0.037278
C63   C     C_3   0.999431 0.500068 0.090819 -0.037277
C64   C     C_3   0.000518 0.500028 0.909179 -0.037259
C65   C     C_1   0.338037 0.163929 0.501677 0.027125
C66   C     C_1   0.661863 0.835974 0.498351 0.026945
C67   C     C_1   0.661962 0.163933 0.498372 0.027236
C68   C     C_1   0.338056 0.836050 0.501649 0.027210
C69   C     C_1   0.838130 0.664019 0.501658 0.026913
C70   C     C_1   0.161949 0.336059 0.498313 0.027123
C71   C     C_1   0.161957 0.663937 0.498356 0.027204
C72   C     C_1   0.838052 0.336053 0.501630 0.027266
C73   C     C_1   0.499675 0.999987 0.190146 -0.013466
C74   C     C_1   0.500346 0.999978 0.809855 -0.013459
C75   C     C_1   0.999650 0.500033 0.190145 -0.013451
C76   C     C_1   0.000326 0.500012 0.809854 -0.013473
C77   C     C_R   0.622994 0.999398 0.949537 0.116721
C78   C     C_R   0.664060 0.999161 0.020812 -0.125908
C79   C     C_R   0.725571 0.998750 0.004206 -0.175972
C80   C     C_R   0.746758 0.998591 0.916350 -0.105209
C81   C     C_R   0.706410 0.998843 0.845043 -0.133717
C82   C     C_R   0.644787 0.999244 0.861368 -0.168331
H9    H     H_    0.648369 0.999264 0.089390 0.128036
H10   H     H_    0.756805 0.998542 0.059498 0.128256
H11   H     H_    0.794419 0.998269 0.903509 0.138631
H12   H     H_    0.722899 0.998718 0.776952 0.140728
H13   H     H_    0.614951 0.999413 0.804856 0.147243
C83   C     C_R   0.377053 0.000491 0.050446 0.116548
C84   C     C_R   0.335995 0.000579 0.979160 -0.125799
C85   C     C_R   0.274481 0.000874 0.995748 -0.175940
C86   C     C_R   0.253284 0.001097 0.083598 -0.105301
C87   C     C_R   0.293623 0.001022 0.154915 -0.133680
C88   C     C_R   0.355248 0.000719 0.138609 -0.168309
H14   H     H_    0.351695 0.000423 0.910586 0.128210
H15   H     H_    0.243254 0.000938 0.940447 0.128102
H16   H     H_    0.205620 0.001333 0.096423 0.138592
H17   H     H_    0.277125 0.001202 0.223002 0.140692
H18   H     H_    0.385076 0.000684 0.195130 0.147269
C89   C     C_R   0.122948 0.499477 0.949563 0.116553
C90   C     C_R   0.164003 0.499393 0.020851 -0.125803
C91   C     C_R   0.225517 0.499075 0.004267 -0.175949
C92   C     C_R   0.246717 0.498821 0.916419 -0.105303
C93   C     C_R   0.206380 0.498892 0.845099 -0.133676
C94   C     C_R   0.144754 0.499219 0.861401 -0.168316
H19   H     H_    0.148301 0.499570 0.089424 0.128206
H20   H     H_    0.256743 0.499013 0.059570 0.128108
H21   H     H_    0.294381 0.498565 0.903597 0.138591
H22   H     H_    0.222880 0.498688 0.777013 0.140691
H23   H     H_    0.114927 0.499249 0.804878 0.147264
C95   C     C_R   0.877002 0.500708 0.050445 0.116687
C96   C     C_R   0.835943 0.500802 0.979163 -0.125873
C97   C     C_R   0.774431 0.501315 0.995751 -0.175998
C98   C     C_R   0.753237 0.501737 0.083604 -0.105239
C99   C     C_R   0.793578 0.501644 0.154918 -0.133681
C100  C     C_R   0.855202 0.501135 0.138612 -0.168369
H24   H     H_    0.851644 0.500513 0.910588 0.128038
H25   H     H_    0.743202 0.501409 0.940454 0.128265
H26   H     H_    0.705575 0.502147 0.096425 0.138632
H27   H     H_    0.777081 0.501990 0.223004 0.140721
H28   H     H_    0.885037 0.501129 0.195125 0.147242
N5    N     N_R   0.641518 0.695034 0.539304 0.218483
O17   O     O_R   0.639739 0.637135 0.552705 -0.364220
O18   O     O_R   0.592321 0.726223 0.543155 -0.350478
N6    N     N_R   0.358597 0.304861 0.461183 0.218480
O19   O     O_R   0.360518 0.362801 0.448256 -0.364688
O20   O     O_R   0.407732 0.273578 0.457221 -0.350336
N7    N     N_R   0.358801 0.694871 0.463153 0.218444
O21   O     O_R   0.360792 0.636852 0.451060 -0.364723
O22   O     O_R   0.407952 0.726127 0.459322 -0.350465
N8    N     N_R   0.641160 0.305177 0.536274 0.218431
O23   O     O_R   0.639140 0.363222 0.548070 -0.364653
O24   O     O_R   0.592008 0.273920 0.540099 -0.350266
N9    N     N_R   0.141384 0.195125 0.538795 0.218479
O25   O     O_R   0.139461 0.137185 0.551725 -0.364700
O26   O     O_R   0.092249 0.226408 0.542747 -0.350333
N10   N     N_R   0.858474 0.804956 0.460712 0.218488
O27   O     O_R   0.860251 0.862855 0.447319 -0.364249
O28   O     O_R   0.907671 0.773768 0.456875 -0.350483
N11   N     N_R   0.858858 0.194808 0.463735 0.218434
O29   O     O_R   0.860882 0.136761 0.451956 -0.364663
O30   O     O_R   0.908008 0.226067 0.459901 -0.350252
N12   N     N_R   0.141218 0.805113 0.536857 0.218443
O31   O     O_R   0.139228 0.863132 0.548949 -0.364728
O32   O     O_R   0.092066 0.773857 0.540694 -0.350463
C101  C     C_R   0.747457 0.803032 0.326299 0.153051
C102  C     C_R   0.754592 0.767340 0.249362 -0.144694
C103  C     C_R   0.756077 0.794087 0.164685 -0.151897
C104  C     C_R   0.749726 0.856477 0.155999 -0.087611
C105  C     C_R   0.742772 0.892336 0.232121 -0.130488
C106  C     C_R   0.742266 0.865864 0.317043 -0.084638
H29   H     H_    0.759773 0.718968 0.254597 0.130751
H30   H     H_    0.761736 0.766371 0.105674 0.122059
H31   H     H_    0.750214 0.876960 0.090314 0.136920
H32   H     H_    0.738060 0.940677 0.225335 0.119141
H33   H     H_    0.737893 0.894405 0.375399 0.142623
C107  C     C_R   0.252340 0.196617 0.673466 0.152643
C108  C     C_R   0.246089 0.232189 0.750689 -0.145443
C109  C     C_R   0.244509 0.205215 0.835205 -0.151087
C110  C     C_R   0.249934 0.142713 0.843431 -0.087985
C111  C     C_R   0.256044 0.106979 0.767023 -0.130586
C112  C     C_R   0.256639 0.133693 0.682269 -0.083953
H34   H     H_    0.241676 0.280649 0.745833 0.130623
H35   H     H_    0.239504 0.232838 0.894438 0.122104
H36   H     H_    0.249360 0.122043 0.908987 0.136846
H37   H     H_    0.260001 0.058553 0.773447 0.119596
H38   H     H_    0.260390 0.105280 0.623676 0.143474
C113  C     C_R   0.251565 0.804404 0.672772 0.152503
C114  C     C_R   0.245259 0.769300 0.750462 -0.146328
C115  C     C_R   0.243403 0.796803 0.834582 -0.149842
C116  C     C_R   0.248615 0.859371 0.841951 -0.087843
C117  C     C_R   0.254769 0.894641 0.765069 -0.130847
C118  C     C_R   0.255642 0.867395 0.680703 -0.083581
H39   H     H_    0.241032 0.720796 0.746276 0.130543
H40   H     H_    0.238365 0.769540 0.894180 0.121785
H41   H     H_    0.247828 0.880451 0.907207 0.136580
H42   H     H_    0.258548 0.943120 0.770825 0.120297
H43   H     H_    0.259454 0.895445 0.621727 0.143819
C119  C     C_R   0.748667 0.195239 0.327470 0.152338
C120  C     C_R   0.754829 0.230192 0.249605 -0.146702
C121  C     C_R   0.756756 0.202508 0.165619 -0.149347
C122  C     C_R   0.751752 0.139908 0.158560 -0.087984
C123  C     C_R   0.745740 0.104787 0.235617 -0.130955
C124  C     C_R   0.744791 0.132219 0.319849 -0.083379
H44   H     H_    0.758885 0.278719 0.253547 0.130512
H45   H     H_    0.761687 0.229655 0.105886 0.121780
H46   H     H_    0.752602 0.118687 0.093407 0.136565
H47   H     H_    0.742134 0.056281 0.230104 0.120786
H48   H     H_    0.741072 0.104291 0.378967 0.144130
C125  C     C_R   0.247641 0.303361 0.326508 0.152670
C126  C     C_R   0.253915 0.267785 0.249296 -0.145394
C127  C     C_R   0.255488 0.294748 0.164772 -0.151135
C128  C     C_R   0.250030 0.357246 0.156531 -0.087976
C129  C     C_R   0.243898 0.392985 0.232928 -0.130575
C130  C     C_R   0.243310 0.366281 0.317690 -0.083991
H49   H     H_    0.258357 0.219328 0.254163 0.130631
H50   H     H_    0.260510 0.267122 0.105548 0.122106
H51   H     H_    0.250599 0.377909 0.090968 0.136853
H52   H     H_    0.239914 0.441407 0.226492 0.119576
H53   H     H_    0.239540 0.394698 0.376273 0.143443
C131  C     C_R   0.752528 0.696962 0.673720 0.153044
C132  C     C_R   0.745359 0.732654 0.750649 -0.144677
C133  C     C_R   0.743863 0.705910 0.835328 -0.151949
C134  C     C_R   0.750236 0.643522 0.844023 -0.087579
C135  C     C_R   0.757223 0.607662 0.767908 -0.130440
C136  C     C_R   0.757742 0.634131 0.682984 -0.084711
H54   H     H_    0.740158 0.781025 0.745405 0.130782
H55   H     H_    0.738180 0.733626 0.894333 0.122043
H56   H     H_    0.749737 0.623043 0.909709 0.136966
H57   H     H_    0.761952 0.559322 0.774702 0.119157
H58   H     H_    0.762138 0.605588 0.624633 0.142608
C137  C     C_R   0.751353 0.304747 0.672535 0.152384
C138  C     C_R   0.745166 0.269798 0.750401 -0.146648
C139  C     C_R   0.743251 0.297486 0.834385 -0.149317
C140  C     C_R   0.748292 0.360084 0.841443 -0.088012
C141  C     C_R   0.754326 0.395201 0.764384 -0.130928
C142  C     C_R   0.755260 0.367766 0.680155 -0.083312
H59   H     H_    0.741082 0.221272 0.746459 0.130485
H60   H     H_    0.738299 0.270342 0.894120 0.121798
H61   H     H_    0.747454 0.381306 0.906594 0.136529
H62   H     H_    0.757960 0.443705 0.769896 0.120747
H63   H     H_    0.758995 0.395691 0.621035 0.144087
C143  C     C_R   0.248454 0.695573 0.327241 0.152493
C144  C     C_R   0.254759 0.730673 0.249547 -0.146347
C145  C     C_R   0.256620 0.703166 0.165430 -0.149821
C146  C     C_R   0.251411 0.640597 0.158069 -0.087842
C147  C     C_R   0.245258 0.605331 0.234955 -0.130847
C148  C     C_R   0.244381 0.632582 0.319317 -0.083570
H64   H     H_    0.258982 0.779179 0.253728 0.130541
H65   H     H_    0.261656 0.730425 0.105830 0.121788
H66   H     H_    0.252201 0.619513 0.092816 0.136578
H67   H     H_    0.241484 0.556851 0.229205 0.120314
H68   H     H_    0.240571 0.604535 0.378297 0.143827
C149  C     C_R   0.560133 0.892372 0.053025 0.102842
C150  C     C_R   0.568514 0.872762 0.141566 -0.172798
C151  C     C_R   0.596774 0.817742 0.158954 -0.088913
C152  C     C_R   0.616950 0.781839 0.088377 -0.106364
C153  C     C_R   0.609579 0.801204 0.000255 -0.145430
C154  C     C_R   0.581311 0.856111 0.982601 -0.108440
H69   H     H_    0.553251 0.898992 0.197640 0.151054
H70   H     H_    0.603056 0.802915 0.227301 0.154746
H71   H     H_    0.638647 0.739194 0.102024 0.131989
H72   H     H_    0.625533 0.773550 0.945562 0.140281
H73   H     H_    0.575472 0.870235 0.913800 0.136978
C155  C     C_R   0.439928 0.107566 0.947016 0.102786
C156  C     C_R   0.418719 0.143790 0.017462 -0.108466
C157  C     C_R   0.390500 0.198729 0.999848 -0.145081
C158  C     C_R   0.383220 0.218166 0.911744 -0.106860
C159  C     C_R   0.403415 0.182295 0.841144 -0.088913
C160  C     C_R   0.431627 0.127245 0.858492 -0.172465
H74   H     H_    0.424503 0.129617 0.086252 0.136985
H75   H     H_    0.374517 0.226353 0.054556 0.140485
H76   H     H_    0.361578 0.260844 0.898128 0.131751
H77   H     H_    0.397208 0.197181 0.772810 0.154777
H78   H     H_    0.446932 0.101055 0.802404 0.151045
C161  C     C_R   0.439101 0.892840 0.947050 0.102690
C162  C     C_R   0.430669 0.873225 0.858529 -0.172347
C163  C     C_R   0.402103 0.818366 0.841189 -0.088684
C164  C     C_R   0.381687 0.782623 0.911798 -0.107111
C165  C     C_R   0.389090 0.802007 0.999898 -0.144868
C166  C     C_R   0.417651 0.856762 0.017502 -0.108285
H79   H     H_    0.446146 0.899315 0.802437 0.151082
H80   H     H_    0.395803 0.803523 0.772859 0.154798
H81   H     H_    0.359785 0.740082 0.898191 0.131462
H82   H     H_    0.372947 0.774482 0.054612 0.139643
H83   H     H_    0.423528 0.870892 0.086289 0.136814
C167  C     C_R   0.560995 0.107062 0.052942 0.102785
C168  C     C_R   0.582384 0.143169 0.982480 -0.108276
C169  C     C_R   0.611021 0.197884 0.000080 -0.144672
C170  C     C_R   0.618569 0.217197 0.088188 -0.107367
C171  C     C_R   0.598217 0.181423 0.158803 -0.088674
C172  C     C_R   0.569574 0.126604 0.141468 -0.172177
H84   H     H_    0.576408 0.129087 0.913690 0.136726
H85   H     H_    0.627117 0.225431 0.945359 0.139552
H86   H     H_    0.640534 0.259704 0.101793 0.131367
H87   H     H_    0.604633 0.196208 0.227138 0.154795
H88   H     H_    0.554172 0.100478 0.197568 0.151051
C173  C     C_R   0.060036 0.392431 0.053007 0.102852
C174  C     C_R   0.068321 0.372749 0.141533 -0.172387
C175  C     C_R   0.096527 0.317696 0.158888 -0.088925
C176  C     C_R   0.116730 0.281826 0.088293 -0.106806
C177  C     C_R   0.109463 0.301264 0.000188 -0.145093
C178  C     C_R   0.081250 0.356206 0.982567 -0.108483
H89   H     H_    0.053010 0.398936 0.197619 0.151055
H90   H     H_    0.102722 0.302808 0.227223 0.154783
H91   H     H_    0.138368 0.239146 0.101915 0.131770
H92   H     H_    0.125451 0.273641 0.945484 0.140482
H93   H     H_    0.075479 0.370381 0.913776 0.136951
C179  C     C_R   0.939886 0.607645 0.946944 0.102915
C180  C     C_R   0.918755 0.643942 0.017360 -0.108414
C181  C     C_R   0.890471 0.698839 0.999691 -0.145411
C182  C     C_R   0.883035 0.718157 0.911559 -0.106360
C183  C     C_R   0.903163 0.682219 0.840990 -0.088909
C184  C     C_R   0.931437 0.627210 0.858394 -0.172737
H94   H     H_    0.924640 0.629852 0.086168 0.136946
H95   H     H_    0.874551 0.726517 0.054378 0.140312
H96   H     H_    0.861323 0.760792 0.897899 0.132023
H97   H     H_    0.896826 0.697009 0.772636 0.154743
H98   H     H_    0.946651 0.600946 0.802324 0.151055
C185  C     C_R   0.938986 0.392957 0.947079 0.102713
C186  C     C_R   0.930538 0.373334 0.858566 -0.172237
C187  C     C_R   0.901890 0.318515 0.841244 -0.088715
C188  C     C_R   0.881413 0.282817 0.911864 -0.107296
C189  C     C_R   0.888841 0.302206 0.999957 -0.144687
C190  C     C_R   0.917482 0.356922 0.017544 -0.108301
H99   H     H_    0.946059 0.399389 0.802466 0.151060
H100  H     H_    0.895579 0.303668 0.772919 0.154800
H101  H     H_    0.859445 0.240309 0.898269 0.131342
H102  H     H_    0.872650 0.274717 0.054681 0.139490
H103  H     H_    0.923369 0.371058 0.086325 0.136752
C191  C     C_R   0.060927 0.607160 0.052933 0.102654
C192  C     C_R   0.082383 0.643231 0.982477 -0.108285
C193  C     C_R   0.110951 0.697982 0.000075 -0.144855
C194  C     C_R   0.118357 0.717370 0.088174 -0.107151
C195  C     C_R   0.097937 0.681632 0.158786 -0.088674
C196  C     C_R   0.069363 0.626776 0.141453 -0.172383
H104  H     H_    0.076501 0.629098 0.913691 0.136829
H105  H     H_    0.127098 0.725504 0.945358 0.139645
H106  H     H_    0.140264 0.759908 0.101776 0.131454
H107  H     H_    0.104241 0.696478 0.227116 0.154791
H108  H     H_    0.053880 0.600688 0.197545 0.151066

loop_
_geom_bond_atom_site_label_1
_geom_bond_atom_site_label_2
_geom_bond_distance
_ccdc_geom_bond_type
C139  H60   1.082621 S    
C165  C166  1.397099 A    
C47   C143  1.507685 S    
C9    C57   1.552611 S    
C98   C99   1.396823 A    
C177  H92   1.082402 S    
C187  C188  1.396533 A    
N11   O30   1.300221 A    
C136  H58   1.082349 S    
C7    C38   1.393682 S    
C51   C67   1.425638 S    
C27   C48   1.556313 S    
C81   C82   1.398539 A    
C191  C196  1.406031 A    
N4    C76   1.164197 T    
C101  C106  1.405189 A    
C170  C171  1.396536 A    
C138  C139  1.398446 A    
C32   C56   1.546236 S    
C110  H36   1.082088 S    
C108  H34   1.081745 S    
C127  C128  1.396924 A    
C183  C184  1.398428 A    
C115  H40   1.082608 S    
N7    O22   1.300202 A    
O3    C3    1.271318 A    
C194  C195  1.396538 A    
C59   C95   1.513006 S    
C64   C76   1.485035 S    
C113  C114  1.405312 A    
C139  C140  1.396942 A    
C166  H83   1.083249 S    
C45   C53   1.539257 S    
O9    Zn2   1.975177 S    
N8    O24   1.300224 A    
C116  C117  1.397056 A    
C182  C183  1.396535 A    
C191  C192  1.406707 A    
C90   H19   1.083417 S    
C141  H62   1.081999 S    
O7    Zn4   1.975636 S    
C20   C48   1.532982 S    
C149  C154  1.406720 A    
C20   N8    1.458342 S    
C94   H23   1.076739 S    
C12   C155  1.515562 S    
C151  H70   1.082688 S    
O15   Zn3   1.975097 S    
C57   C83   1.513004 S    
C11   C58   1.552620 S    
O12   C4    1.273410 A    
O13   C5    1.273397 A    
O2    Zn2   1.975807 S    
C159  C160  1.398430 A    
C8    C37   1.393671 S    
C16   C59   1.552605 S    
N10   O27   1.300242 A    
C113  C118  1.405061 A    
C167  C168  1.406708 A    
C31   C55   1.546232 S    
C169  C170  1.395597 A    
C179  C184  1.406051 A    
C99   C100  1.398520 A    
C14   C191  1.515481 S    
C160  H78   1.075781 S    
C193  H105  1.082405 S    
C23   C43   1.532983 S    
C188  C189  1.395591 A    
O3    Zn2   1.975636 S    
C97   C98   1.396016 A    
C17   C50   1.529639 S    
C129  H52   1.081927 S    
C19   C52   1.529697 S    
N6    O20   1.300235 A    
C11   C61   1.554078 S    
C128  H51   1.082108 S    
C80   H11   1.082256 S    
C143  C148  1.405060 A    
O10   C2    1.273396 A    
C21   C54   1.529686 S    
C24   C44   1.532957 S    
C6    C39   1.393802 S    
C189  C190  1.397113 A    
O4    C4    1.271283 A    
N3    C75   1.164210 T    
C121  C122  1.396923 A    
C180  C181  1.397090 A    
C21   C25   1.542721 S    
C124  H48   1.082423 S    
C23   C27   1.542723 S    
C112  H38   1.082389 S    
C169  H85   1.082399 S    
C19   C31   1.542722 S    
C156  H74   1.083252 S    
C109  C110  1.396941 A    
C134  H56   1.082056 S    
C41   C49   1.539154 S    
C79   C80   1.395981 A    
C37   C69   1.181252 T    
C24   C55   1.529699 S    
C43   C51   1.539136 S    
C102  C103  1.398448 A    
C39   C71   1.181325 T    
C86   C87   1.396839 A    
C53   C69   1.425477 S    
C123  C124  1.398835 A    
C46   C125  1.507724 S    
C190  H103  1.083235 S    
C55   C71   1.425629 S    
C153  H72   1.082417 S    
C159  H77   1.082679 S    
C170  H86   1.082322 S    
C24   N12   1.458338 S    
C150  H69   1.075802 S    
C9    C62   1.554082 S    
O11   Zn1   1.975097 S    
C119  C124  1.405046 A    
C60   C64   1.554764 S    
C29   H5    1.110073 S    
C176  C177  1.395592 A    
C146  C147  1.397055 A    
C85   H15   1.082371 S    
N12   O31   1.300202 A    
C35   C67   1.181329 T    
C32   H8    1.110045 S    
C196  H108  1.075817 S    
C78   C79   1.396828 A    
O6    Zn4   1.975807 S    
C49   C65   1.425497 S    
C19   C47   1.532959 S    
C132  C133  1.398448 A    
C82   H13   1.076741 S    
C120  H44   1.081718 S    
C25   H1    1.110081 S    
N9    O26   1.300233 A    
C156  C157  1.397105 A    
N2    C74   1.164208 T    
C22   C53   1.529636 S    
C188  H101  1.082346 S    
C14   C60   1.552609 S    
C140  H61   1.082043 S    
C96   H24   1.083458 S    
C138  H59   1.081748 S    
C48   C137  1.507672 S    
C186  C187  1.398447 A    
C89   C94   1.405029 A    
C92   H21   1.082256 S    
C23   N11   1.458342 S    
C142  H63   1.082441 S    
C10   C167  1.515504 S    
C183  H97   1.082702 S    
O12   Zn2   1.975096 S    
C25   C46   1.556313 S    
C135  H57   1.082090 S    
C125  C126  1.405293 A    
C15   C173  1.515584 S    
C158  C159  1.396525 A    
Zn4   N3    1.981639 S    
C163  C164  1.396532 A    
C54   C70   1.425490 S    
C20   C51   1.529701 S    
O5    C5    1.271356 A    
C109  H35   1.082626 S    
C77   C82   1.405026 A    
O10   Zn1   1.975175 S    
C107  C112  1.405054 A    
C137  C142  1.405063 A    
C116  H41   1.082068 S    
C5    C40   1.393808 S    
C131  C136  1.405214 A    
C56   C72   1.425639 S    
C13   C64   1.554073 S    
C83   C84   1.406896 A    
C103  H30   1.082678 S    
C18   C46   1.532939 S    
C178  H93   1.083253 S    
C144  H64   1.081749 S    
C154  H73   1.083257 S    
C185  C190  1.406708 A    
C186  H99   1.075785 S    
C151  C152  1.396533 A    
C42   C101  1.507833 S    
C172  H88   1.075783 S    
C117  H42   1.081965 S    
O1    C1    1.271344 A    
C157  H75   1.082423 S    
C122  H46   1.082064 S    
O14   C6    1.273403 A    
C147  C148  1.398826 A    
C44   C52   1.539153 S    
C44   C113  1.507690 S    
Zn2   N1    1.981639 S    
O7    C7    1.271276 A    
O8    C8    1.271314 A    
C14   C16   1.554083 S    
C167  C172  1.406034 A    
C57   C61   1.554763 S    
C59   C63   1.554747 S    
C99   H27   1.082480 S    
C24   C28   1.542720 S    
C193  C194  1.395601 A    
C157  C158  1.395593 A    
C25   C49   1.546198 S    
C58   C77   1.512998 S    
C153  C154  1.397095 A    
C26   C45   1.556309 S    
C114  H39   1.081748 S    
C11   C149  1.515583 S    
C10   C58   1.552573 S    
C128  C129  1.397030 A    
C48   C56   1.539135 S    
C93   C94   1.398537 A    
C105  C106  1.398854 A    
O11   C3    1.273364 A    
C20   C32   1.542715 S    
C13   C59   1.552605 S    
C189  H102  1.082402 S    
C42   C50   1.539253 S    
C121  H45   1.082599 S    
C137  C138  1.405311 A    
O6    C6    1.271348 A    
C164  C165  1.395594 A    
C22   C26   1.542755 S    
C29   C53   1.546203 S    
C140  C141  1.397069 A    
C118  H43   1.082412 S    
C134  C135  1.397108 A    
O13   Zn4   1.975177 S    
C79   H10   1.082376 S    
C27   C51   1.546244 S    
O14   Zn3   1.975175 S    
N5    O18   1.300212 A    
C102  H29   1.081905 S    
C15   C60   1.552611 S    
N10   O28   1.300207 A    
C181  C182  1.395598 A    
C91   H20   1.082372 S    
C9    C161  1.515506 S    
C145  H65   1.082607 S    
C46   C54   1.539151 S    
C95   C100  1.405070 A    
C22   N10   1.458292 S    
C58   C62   1.554752 S    
C174  H89   1.075754 S    
C93   H22   1.082461 S    
C162  C163  1.398436 A    
C146  H66   1.082068 S    
C30   H6    1.110079 S    
C17   N5    1.458277 S    
C195  H107  1.082697 S    
C14   C63   1.554081 S    
C148  H68   1.082414 S    
C26   C50   1.546204 S    
C16   C179  1.515615 S    
C171  H87   1.082692 S    
C110  C111  1.397054 A    
C185  C186  1.406016 A    
C22   C42   1.532875 S    
C143  C144  1.405309 A    
C17   C29   1.542754 S    
N7    O21   1.300203 A    
C122  C123  1.397046 A    
C105  H32   1.082064 S    
C26   H2    1.110069 S    
C184  H98   1.075801 S    
C111  H37   1.081944 S    
C84   C85   1.396827 A    
C92   C93   1.396837 A    
C63   C75   1.485060 S    
C29   C42   1.556307 S    
C91   C92   1.395980 A    
C31   C44   1.556314 S    
C89   C90   1.406890 A    
O4    Zn1   1.975636 S    
C104  C105  1.397095 A    
C30   C54   1.546201 S    
N8    O23   1.300192 A    
C174  C175  1.398431 A    
C19   N7    1.458340 S    
C83   C88   1.405033 A    
C13   C185  1.515493 S    
C33   C65   1.181259 T    
C40   C72   1.181327 T    
C173  C178  1.406724 A    
C18   C49   1.529685 S    
C15   C63   1.554114 S    
C163  H80   1.082683 S    
C165  H82   1.082387 S    
C32   C43   1.556314 S    
C77   C78   1.406900 A    
C111  C112  1.398848 A    
C192  C193  1.397084 A    
C47   C55   1.539152 S    
C177  C178  1.397106 A    
C187  H100  1.082661 S    
C125  C130  1.405041 A    
C131  C132  1.405400 A    
C87   H17   1.082457 S    
C108  C109  1.398455 A    
N12   O32   1.300210 A    
C103  C104  1.397038 A    
C36   C68   1.181326 T    
C152  C153  1.395600 A    
C101  C102  1.405387 A    
O8    Zn3   1.975636 S    
C95   C96   1.406881 A    
C78   H9    1.083409 S    
O16   Zn4   1.975096 S    
C12   C62   1.554098 S    
N11   O29   1.300186 A    
N9    O25   1.300191 A    
O2    C2    1.271357 A    
C115  C116  1.396943 A    
C38   C70   1.181255 T    
C147  H67   1.081966 S    
C18   N6    1.458341 S    
C132  H54   1.081939 S    
C86   H16   1.082252 S    
C173  C174  1.406039 A    
C135  C136  1.398853 A    
N6    O19   1.300178 A    
C30   C41   1.556300 S    
C96   C97   1.396808 A    
C10   C61   1.554066 S    
C123  H47   1.081978 S    
C1    C36   1.393804 S    
C2    C35   1.393811 S    
C155  C160  1.406032 A    
C3    C34   1.393670 S    
C130  H53   1.082365 S    
C194  H106  1.082304 S    
C182  H96   1.082292 S    
C126  H49   1.081726 S    
C61   C73   1.485033 S    
C34   C66   1.181257 T    
C88   H18   1.076732 S    
C12   C57   1.552601 S    
C114  C115  1.398451 A    
C21   N9    1.458339 S    
C152  H71   1.082302 S    
C50   C66   1.425479 S    
C149  C150  1.406039 A    
C133  H55   1.082677 S    
O15   C7    1.273410 A    
O16   C8    1.273368 A    
O5    Zn3   1.975810 S    
C192  H104  1.083263 S    
C52   C68   1.425629 S    
O1    Zn1   1.975810 S    
C23   C56   1.529695 S    
C28   C47   1.556311 S    
Zn3   N4    1.981639 S    
N1    C73   1.164199 T    
C80   C81   1.396842 A    
C164  H81   1.082332 S    
C60   C89   1.512986 S    
C150  C151  1.398434 A    
C168  C169  1.397100 A    
C127  H50   1.082598 S    
C90   C91   1.396823 A    
C175  C176  1.396516 A    
C162  H79   1.075781 S    
C107  C108  1.405318 A    
C120  C121  1.398454 A    
C97   H25   1.082365 S    
C13   C15   1.554096 S    
C16   C64   1.554074 S    
C181  H95   1.082424 S    
C43   C119  1.507676 S    
C145  C146  1.396946 A    
C158  H76   1.082311 S    
C129  C130  1.398861 A    
C155  C156  1.406727 A    
C41   C107  1.507711 S    
O9    C1    1.273406 A    
C161  C162  1.406027 A    
C31   H7    1.110067 S    
C144  C145  1.398452 A    
C27   H3    1.110046 S    
C168  H84   1.083255 S    
C28   H4    1.110064 S    
C17   C45   1.532875 S    
C171  C172  1.398428 A    
C62   C74   1.485063 S    
C161  C166  1.406706 A    
C98   H26   1.082225 S    
C141  C142  1.398820 A    
C18   C30   1.542725 S    
C4    C33   1.393692 S    
C179  C180  1.406730 A    
C28   C52   1.546236 S    
C100  H28   1.076745 S    
C85   C86   1.395981 A    
C84   H14   1.083413 S    
C9    C11   1.554076 S    
C10   C12   1.554112 S    
C195  C196  1.398416 A    
Zn1   N2    1.981639 S    
C180  H94   1.083262 S    
C106  H33   1.082349 S    
C126  C127  1.398468 A    
C104  H31   1.082070 S    
C81   H12   1.082451 S    
C119  C120  1.405293 A    
C133  C134  1.397055 A    
C176  H91   1.082321 S    
C117  C118  1.398827 A    
N5    O17   1.300263 A    
C175  H90   1.082681 S    
C21   C41   1.532942 S    
C45   C131  1.507834 S    
C87   C88   1.398536 A    
