data_mof_unit_60413.cif
_audit_creation_date              2012-12-10T17:47:00-0500
_audit_creation_method            fapswitch 2.2
_symmetry_space_group_name_H-M    P1
_symmetry_Int_Tables_number       1
_space_group_crystal_system       triclinic
_cell_length_a                    17.837765
_cell_length_b                    17.877514
_cell_length_c                    19.534802
_cell_angle_alpha                 100.089168
_cell_angle_beta                  76.14114
_cell_angle_gamma                 115.570839
_cell_volume                      5437.42962753

loop_
_atom_site_label
_atom_site_type_symbol
_atom_type_description
_atom_site_fract_x
_atom_site_fract_y
_atom_site_fract_z
_atom_type_partial_charge
C1    C     C_R   0.455997 0.280828 0.467885 0.816678
C2    C     C_2   0.483924 0.470008 0.979333 -0.208002
C3    C     C_2   0.526317 0.536117 0.020346 -0.221224
C4    C     C_R   0.542827 0.719564 0.532604 0.791277
C5    C     C_R   0.517575 0.515446 0.236492 -0.040665
C6    C     C_R   0.557343 0.808411 0.550314 -0.073662
C7    C     C_R   0.436070 0.192091 0.454769 -0.054298
C8    C     C_R   0.614348 0.942624 0.616742 -0.243907
C9    C     C_R   0.606823 0.860799 0.600751 -0.013824
C10   C     C_R   0.517378 0.840507 0.516954 -0.271294
C11   C     C_R   0.522062 0.922127 0.534318 0.088010
C12   C     C_R   0.482424 0.475651 0.905611 0.163569
C13   C     C_R   0.572705 0.973406 0.584246 0.157904
C14   C     C_R   0.479014 0.954594 0.502831 0.076058
C15   C     C_R   0.492793 0.040016 0.517908 0.085578
C16   C     C_R   0.723018 0.547475 0.468139 0.787524
C17   C     C_R   0.542860 0.088215 0.569161 -0.214429
C18   C     C_R   0.581530 0.055244 0.601681 -0.222617
C19   C     C_R   0.421429 0.904112 0.457938 -0.225289
C20   C     C_R   0.382621 0.936782 0.425353 -0.212704
C21   C     C_R   0.399615 0.021650 0.435243 0.095329
C22   C     C_R   0.455279 0.074161 0.481906 0.085905
C23   C     C_R   0.471787 0.405153 0.858107 -0.207427
C24   C     C_R   0.361990 0.055021 0.399295 -0.036766
C25   C     C_R   0.380551 0.140631 0.409269 -0.060943
C26   C     C_R   0.472911 0.159576 0.489933 -0.260149
C27   C     C_R   0.186175 0.436967 0.549649 -0.025537
C28   C     C_R   0.276660 0.453133 0.532159 0.798936
C29   C     C_R   0.812921 0.567821 0.457336 0.011083
C30   C     C_R   0.045398 0.368951 0.617047 -0.191677
C31   C     C_R   0.129575 0.379499 0.598171 -0.185295
C32   C     C_R   0.157146 0.482778 0.519668 -0.247799
C33   C     C_R   0.073233 0.475885 0.540225 0.087364
C34   C     C_R   0.473056 0.408491 0.787065 -0.019566
C35   C     C_R   0.016907 0.416737 0.588665 0.151067
C36   C     C_R   0.043813 0.525428 0.513443 0.058013
C37   C     C_R   0.955744 0.508067 0.528841 0.012374
C38   C     C_R   0.902857 0.453719 0.582944 -0.013863
C39   C     C_R   0.933486 0.407849 0.610550 -0.270198
C40   C     C_R   0.511274 0.510507 0.311845 0.789753
C41   C     C_R   0.100317 0.594106 0.474189 -0.207913
C42   C     C_R   0.071376 0.640545 0.446245 -0.225422
C43   C     C_R   0.985155 0.617606 0.452746 0.169865
C44   C     C_R   0.926079 0.548871 0.491459 0.093368
C45   C     C_R   0.526642 0.457769 0.114381 -0.191194
C46   C     C_R   0.957377 0.662560 0.420193 -0.187828
C47   C     C_R   0.871366 0.638975 0.424180 -0.195114
C48   C     C_R   0.840029 0.521500 0.488209 -0.240006
C49   C     C_R   0.488798 0.488646 0.688323 0.813090
C50   C     C_R   0.484577 0.483534 0.763161 -0.089989
C51   C     C_R   0.492601 0.553893 0.811589 -0.032761
C52   C     C_R   0.490814 0.549324 0.882411 -0.182513
C53   C     C_1   0.500173 0.630761 0.790368 0.183497
C54   C     C_1   0.342962 0.176008 0.372925 0.178349
C55   C     C_1   0.650754 0.833460 0.637390 0.224418
C56   C     C_R   0.521966 0.450276 0.185276 -0.025331
C57   C     C_1   0.518137 0.373807 0.203964 0.196167
C58   C     C_1   0.304576 0.002140 0.351961 0.158389
C59   C     C_1   0.821742 0.452260 0.620088 0.153939
C60   C     C_1   0.466112 0.335191 0.739265 0.187752
C61   C     C_R   0.519237 0.587299 0.215293 -0.207131
C62   C     C_R   0.524363 0.594337 0.144433 -0.170155
C63   C     C_R   0.526210 0.529029 0.093978 0.180356
H1    H     H_    0.524777 0.649962 0.129176 0.136782
H2    H     H_    0.464508 0.347962 0.876206 0.138464
H3    H     H_    0.494802 0.603143 0.919305 0.135881
H4    H     H_    0.619289 0.094581 0.640624 0.150739
H5    H     H_    0.516709 0.203738 0.522176 0.135390
H6    H     H_    0.652715 0.982601 0.655176 0.141953
H7    H     H_    0.483812 0.800519 0.476459 0.167399
H8    H     H_    0.552307 0.151561 0.586967 0.157121
H9    H     H_    0.892229 0.366156 0.651127 0.152051
H10   H     H_    0.792820 0.463535 0.507913 0.140369
H11   H     H_    0.116990 0.693482 0.417480 0.148351
H12   H     H_    0.339315 0.894329 0.391519 0.156409
H13   H     H_    0.150434 0.343232 0.622011 0.168618
H14   H     H_    0.201169 0.522730 0.479540 0.161549
H15   H     H_    0.530509 0.407873 0.075199 0.136492
H16   H     H_    0.450753 0.409016 0.999746 0.152678
H17   H     H_    0.402927 0.837986 0.447775 0.146003
H18   H     H_    0.850362 0.675776 0.401112 0.134432
H19   H     H_    0.002737 0.324202 0.654780 0.141536
H20   H     H_    0.168038 0.616086 0.466601 0.146869
H21   H     H_    0.516845 0.638312 0.253660 0.160299
H22   H     H_    0.002219 0.716378 0.392205 0.145698
H23   H     H_    0.559468 0.597513 0.000874 0.152620
N1    N     N_1   0.506155 0.692256 0.773395 -0.193135
N2    N     N_1   0.313066 0.204333 0.343947 -0.198057
N3    N     N_1   0.686085 0.811812 0.666828 -0.170180
N4    N     N_1   0.514995 0.312522 0.218893 -0.175123
N5    N     N_1   0.258802 0.960046 0.314239 -0.200443
N6    N     N_1   0.756920 0.451017 0.650237 -0.204939
N7    N     N_1   0.460628 0.276560 0.700966 -0.206249
O1    O     O_3   0.500000 0.500000 0.500000 -0.490988
O2    O     O_R   0.548260 0.471800 0.330740 -0.634848
O3    O     O_R   0.433390 0.433420 0.655640 -0.638204
O4    O     O_R   0.470210 0.546620 0.357990 -0.643650
O5    O     O_R   0.548140 0.548160 0.655640 -0.625138
O6    O     O_R   0.690590 0.583040 0.521630 -0.627810
O7    O     O_R   0.304570 0.412130 0.559980 -0.646672
O8    O     O_R   0.515630 0.331630 0.426410 -0.628677
O9    O     O_R   0.489210 0.673200 0.491990 -0.646528
O10   O     O_R   0.414390 0.306840 0.521640 -0.632784
O11   O     O_R   0.580770 0.688330 0.559970 -0.635332
O12   O     O_R   0.677090 0.493090 0.426400 -0.636787
O13   O     O_R   0.327750 0.511740 0.491990 -0.643136
Zn1   Zn    Zn3+2 0.578510 0.578520 0.558300 1.002874
Zn2   Zn    Zn3+2 0.559220 0.450000 0.422240 0.993520
Zn3   Zn    Zn3+2 0.447700 0.556900 0.461160 0.963422
Zn4   Zn    Zn3+2 0.414570 0.414580 0.558300 0.992043

loop_
_geom_bond_atom_site_label_1
_geom_bond_atom_site_label_2
_ccdc_geom_bond_type
O7    Zn4   S    
C8    C13   A    
C41   C42   A    
C5    C56   A    
C19   C20   A    
C2    C12   S    
C6    C9    A    
C12   C23   A    
O1    Zn2   S    
C8    H6    S    
C37   C38   A    
C7    C26   A    
C13   C18   A    
C29   C47   A    
O10   Zn4   S    
C36   C37   A    
C30   C31   A    
C11   C14   A    
C41   H20   S    
C33   C36   A    
C56   C57   S    
C62   H1    S    
C2    H16   S    
C32   H14   S    
C15   C22   A    
C45   C56   A    
C28   O13   A    
C8    C9    A    
C4    O9    A    
C39   H9    S    
C45   H15   S    
C9    C55   S    
C58   N5    T    
C1    O10   A    
C46   H22   S    
C60   N7    T    
C28   O7    A    
O8    Zn2   S    
C49   O5    A    
C21   C22   A    
C3    H23   S    
C34   C60   S    
C36   C41   A    
C61   C62   A    
O6    Zn1   S    
C14   C19   A    
C12   C52   A    
C50   C51   A    
O12   Zn2   S    
O1    Zn1   S    
C42   H11   S    
C34   C50   A    
C57   N4    T    
C29   C48   A    
C27   C31   A    
C51   C52   A    
C24   C25   A    
C4    C6    S    
C10   C11   A    
C40   O4    A    
C18   H4    S    
O3    Zn4   S    
O1    Zn4   S    
O5    Zn1   S    
C20   H12   S    
C51   C53   S    
C30   H19   S    
C35   C39   A    
C43   C44   A    
C62   C63   A    
O4    Zn3   S    
C23   C34   A    
C17   C18   A    
C5    C61   A    
C53   N1    T    
C25   C54   S    
C16   O12   A    
C10   H7    S    
C17   H8    S    
C21   C24   A    
C42   C43   A    
C40   O2    A    
C1    O8    A    
C52   H3    S    
C15   C17   A    
C46   C47   A    
C27   C32   A    
C1    C7    S    
C48   H10   S    
C61   H21   S    
C6    C10   A    
C16   O6    A    
C3    C63   S    
C30   C35   A    
O1    Zn3   S    
C7    C25   A    
C26   H5    S    
C32   C33   A    
C23   H2    S    
C37   C44   A    
C2    C3    D    
C16   C29   S    
C55   N3    T    
C54   N2    T    
C11   C13   A    
C31   H13   S    
C38   C39   A    
C4    O11   A    
C33   C35   A    
C45   C63   A    
C59   N6    T    
C47   H18   S    
C49   O3    A    
C19   H17   S    
C43   C46   A    
O2    Zn2   S    
C38   C59   S    
C20   C21   A    
C24   C58   S    
C49   C50   S    
C22   C26   A    
C5    C40   S    
C27   C28   S    
C14   C15   A    
O9    Zn3   S    
O11   Zn1   S    
C44   C48   A    
O13   Zn3   S    
