data_mof_unit_21073.cif
_audit_creation_date              2012-12-10T20:07:02-0500
_audit_creation_method            fapswitch 2.2
_symmetry_space_group_name_H-M    P1
_symmetry_Int_Tables_number       1
_space_group_crystal_system       triclinic
_cell_length_a                    19.327235
_cell_length_b                    18.448289
_cell_length_c                    10.637874
_cell_angle_alpha                 90.007845
_cell_angle_beta                  90.026873
_cell_angle_gamma                 89.971722
_cell_volume                      3792.98004602

loop_
_atom_site_label
_atom_site_type_symbol
_atom_type_description
_atom_site_fract_x
_atom_site_fract_y
_atom_site_fract_z
_atom_type_partial_charge
C1    C     C_R   0.365658 0.500016 0.499937 0.829597
C2    C     C_R   0.634342 0.499983 0.500031 0.829576
C3    C     C_R   0.709429 0.499980 0.499966 -0.046036
C4    C     C_R   0.290570 0.500011 0.499831 -0.046334
C5    C     C_R   0.964142 0.543378 0.413686 -0.175414
C6    C     C_R   0.035913 0.456538 0.585580 -0.175361
C7    C     C_R   0.035801 0.543374 0.413651 -0.175733
C8    C     C_R   0.964256 0.456574 0.585672 -0.175907
C9    C     C_R   0.071781 0.499947 0.499587 0.102822
C10   C     C_R   0.928257 0.499986 0.499713 0.103798
C11   C     C_R   0.446423 0.726173 0.553779 0.017119
C12   C     C_R   0.446412 0.273919 0.446082 0.015893
C13   C     C_R   0.553586 0.726074 0.446170 0.016412
C14   C     C_R   0.553575 0.273835 0.553874 0.017668
C15   C     C_R   0.445277 0.802277 0.554264 -0.135331
C16   C     C_R   0.445235 0.197814 0.445546 -0.135364
C17   C     C_R   0.554762 0.802179 0.445636 -0.135352
C18   C     C_R   0.554721 0.197730 0.554360 -0.135307
C19   C     C_R   0.500026 0.841345 0.499942 0.297237
C20   C     C_R   0.499971 0.158655 0.499943 0.297231
C21   C     C_R   0.495198 0.961681 0.384826 0.299727
C22   C     C_R   0.495163 0.038318 0.615004 0.299780
C23   C     C_R   0.504831 0.961701 0.615012 0.299681
C24   C     C_R   0.504797 0.038300 0.384834 0.299626
C25   C     C_R   0.499966 0.077195 0.499922 -0.300476
C26   C     C_R   0.500029 0.922805 0.499922 -0.300476
C27   C     C_R   0.499984 0.499996 0.260624 0.881648
C28   C     C_R   0.500016 0.500004 0.739381 0.879034
C29   C     C_R   0.626050 0.524347 0.130830 -0.141770
C30   C     C_R   0.373911 0.475875 0.869200 -0.136964
C31   C     C_R   0.626107 0.524123 0.869481 -0.137298
C32   C     C_R   0.373932 0.475656 0.130550 -0.142167
C33   C     C_R   0.687551 0.535953 0.065551 -0.127743
C34   C     C_R   0.312426 0.464176 0.934485 -0.123285
C35   C     C_R   0.687583 0.535819 0.934905 -0.123296
C36   C     C_R   0.312440 0.464051 0.065131 -0.127811
C37   C     C_R   0.563011 0.512427 0.934504 0.071432
C38   C     C_R   0.437000 0.487508 0.065517 0.073247
C39   C     C_R   0.562992 0.512487 0.065657 0.073323
C40   C     C_R   0.436997 0.487577 0.934364 0.071525
C41   C     C_R   0.500008 0.500008 0.871546 -0.180470
C42   C     C_R   0.499992 0.499992 0.128468 -0.178280
C43   C     C_R   0.745586 0.434110 0.502731 -0.177706
C44   C     C_R   0.254401 0.565889 0.498196 -0.178014
C45   C     C_R   0.254495 0.434106 0.501331 -0.197280
C46   C     C_R   0.745515 0.565859 0.497092 -0.196877
C47   C     C_R   0.817231 0.434156 0.502668 -0.169238
C48   C     C_R   0.182754 0.565824 0.497977 -0.169281
C49   C     C_R   0.182851 0.434125 0.501313 -0.173579
C50   C     C_R   0.817159 0.565825 0.496963 -0.173542
C51   C     C_R   0.853126 0.499992 0.499776 0.106623
C52   C     C_R   0.146889 0.499964 0.499594 0.106447
H1    H     H_    0.264700 0.455120 0.116014 0.144319
H2    H     H_    0.735343 0.544643 0.884027 0.144985
H3    H     H_    0.264674 0.455346 0.883498 0.143835
H4    H     H_    0.735283 0.544890 0.116544 0.143200
H5    H     H_    0.628553 0.524570 0.232338 0.127553
H6    H     H_    0.371376 0.475843 0.767696 0.129537
H7    H     H_    0.628655 0.524151 0.767980 0.129661
H8    H     H_    0.371415 0.475436 0.232054 0.127685
H9    H     H_    0.718669 0.382638 0.504771 0.161980
H10   H     H_    0.281310 0.617377 0.497272 0.162576
H11   H     H_    0.281475 0.382632 0.502347 0.163807
H12   H     H_    0.718541 0.617328 0.495104 0.163156
H13   H     H_    0.844650 0.382922 0.503581 0.142724
H14   H     H_    0.155302 0.617042 0.497881 0.142858
H15   H     H_    0.155476 0.382891 0.501350 0.143458
H16   H     H_    0.844523 0.617061 0.495973 0.143271
H17   H     H_    0.936716 0.576450 0.345830 0.138092
H18   H     H_    0.063359 0.423447 0.653386 0.138911
H19   H     H_    0.063162 0.576462 0.345818 0.140306
H20   H     H_    0.936920 0.423517 0.653582 0.139349
H21   H     H_    0.404307 0.696428 0.596339 0.130547
H22   H     H_    0.404318 0.303738 0.403431 0.129164
H23   H     H_    0.595678 0.696249 0.403582 0.128487
H24   H     H_    0.595690 0.303586 0.596511 0.129793
H25   H     H_    0.401977 0.830523 0.596350 0.171428
H26   H     H_    0.401929 0.169640 0.403353 0.171138
H27   H     H_    0.598067 0.830347 0.403515 0.170991
H28   H     H_    0.598019 0.169490 0.596521 0.171275
N1    N     N_R   0.500000 0.689440 0.500000 -0.097337
N2    N     N_R   0.500000 0.310560 0.500000 -0.097330
O1    O     O_R   0.398180 0.560840 0.499970 -0.626375
O2    O     O_R   0.601820 0.439160 0.500030 -0.626208
O3    O     O_R   0.601820 0.560840 0.500030 -0.634539
O4    O     O_R   0.398180 0.439160 0.499970 -0.634677
O5    O     O_R   0.499990 0.560810 0.316770 -0.608026
O6    O     O_R   0.500010 0.439190 0.683230 -0.608291
O7    O     O_R   0.500010 0.560810 0.683230 -0.607905
O8    O     O_R   0.499990 0.439190 0.316770 -0.607643
Zn1   Zn    Zn3+2 0.500000 0.581210 0.500000 0.967153
Zn2   Zn    Zn3+2 0.500000 0.418790 0.500000 0.967160
S1    S     S_3+6 0.473749 0.914255 0.243081 0.090061
O9    O     O_2   0.427897 0.850452 0.270974 -0.326143
O10   O     O_2   0.436138 0.962808 0.152528 -0.151656
O11   O     O_3   0.547116 0.884313 0.175798 -0.512141
H29   H     H_    0.531746 0.853205 0.105255 0.385221
S2    S     S_3+6 0.473647 0.085739 0.756705 0.089944
O12   O     O_2   0.427747 0.149549 0.728719 -0.326670
O13   O     O_2   0.436061 0.037180 0.847157 -0.151831
O14   O     O_3   0.546973 0.115671 0.824169 -0.511901
H30   H     H_    0.531559 0.146585 0.894932 0.385434
S3    S     S_3+6 0.526346 0.914303 0.756752 0.090108
O15   O     O_2   0.572244 0.850486 0.728847 -0.326298
O16   O     O_2   0.563933 0.962876 0.847264 -0.151787
O17   O     O_3   0.453019 0.884384 0.824092 -0.511800
H31   H     H_    0.468433 0.853521 0.894933 0.385512
S4    S     S_3+6 0.526245 0.085703 0.243125 0.090230
O18   O     O_2   0.572095 0.149513 0.271093 -0.325753
O19   O     O_2   0.563858 0.037136 0.152639 -0.151612
O20   O     O_3   0.452877 0.115632 0.175715 -0.512043
H32   H     H_    0.468247 0.146690 0.105146 0.385299

loop_
_geom_bond_atom_site_label_1
_geom_bond_atom_site_label_2
_ccdc_geom_bond_type
C21   C26   A    
S1    O9    D    
C22   S2    S    
C12   H22   S    
C14   C18   A    
C2    O2    A    
O20   H32   S    
C6    C9    A    
O3    Zn1   S    
C11   N1    A    
C15   C19   A    
C3    C43   A    
O14   H30   S    
C2    O3    A    
C32   C36   A    
C38   C42   A    
O5    Zn1   S    
C7    H19   S    
C20   C25   S    
C13   N1    A    
C28   C41   S    
C17   H27   S    
N2    Zn2   S    
S4    O18   D    
C27   O8    A    
C6    H18   S    
C23   C26   A    
C31   H7    S    
C19   C26   S    
C5    H17   S    
C36   H1    S    
C17   C19   A    
C11   C15   A    
C23   S3    S    
C13   H23   S    
C29   C33   A    
C22   C25   A    
C28   O6    A    
C28   O7    A    
C24   S4    S    
C32   C38   A    
O7    Zn1   S    
C43   C47   A    
C16   H26   S    
C33   H4    S    
C34   H3    S    
S1    O10   D    
C35   H2    S    
C9    C52   S    
C10   C51   S    
C39   C42   A    
C4    C45   A    
C8    H20   S    
C30   C34   A    
C12   N2    A    
C12   C16   A    
C24   C25   A    
C11   H21   S    
C5    C7    A    
C6    C8    A    
C4    C44   A    
C44   H10   S    
C45   H11   S    
C31   C37   A    
C46   H12   S    
C14   H24   S    
O8    Zn2   S    
C45   C49   A    
C16   C20   A    
C49   C52   A    
O11   H29   S    
C29   C39   A    
C50   C51   A    
C30   C40   A    
S3    O16   D    
O6    Zn2   S    
C27   O5    A    
C18   H28   S    
C40   C41   A    
C29   H5    S    
S1    O11   S    
S2    O13   D    
C31   C35   A    
C32   H8    S    
C43   H9    S    
C1    O4    A    
C7    C9    A    
C49   H15   S    
C18   C20   A    
C47   C51   A    
C1    O1    A    
S2    O14   S    
O1    Zn1   S    
C46   C50   A    
C3    C46   A    
S4    O20   S    
C13   C17   A    
C1    C4    S    
C2    C3    S    
C5    C10   A    
C37   C39   A    
O4    Zn2   S    
C38   C40   A    
C27   C42   S    
C15   H25   S    
C21   S1    S    
C30   H6    S    
C33   C35   A    
S4    O19   D    
S3    O17   S    
C34   C36   A    
C37   C41   A    
N1    Zn1   S    
C48   C52   A    
C8    C10   A    
S2    O12   D    
O17   H31   S    
C21   C24   A    
S3    O15   D    
C14   N2    A    
C22   C23   A    
O2    Zn2   S    
C48   H14   S    
C50   H16   S    
C47   H13   S    
C44   C48   A    
