data_mof_unit_47756.cif
_audit_creation_date              2012-12-11T14:03:37-0500
_audit_creation_method            fapswitch 2.2
_symmetry_space_group_name_H-M    P1
_symmetry_Int_Tables_number       1
_space_group_crystal_system       triclinic
_cell_length_a                    6.947278
_cell_length_b                    11.373203
_cell_length_c                    18.765688
_cell_angle_alpha                 89.999949
_cell_angle_beta                  93.189884
_cell_angle_gamma                 90.000252
_cell_volume                      1480.43227409

loop_
_atom_site_label
_atom_site_type_symbol
_atom_type_description
_atom_site_fract_x
_atom_site_fract_y
_atom_site_fract_z
_atom_type_partial_charge
O1    O     O_R   0.330540 0.606360 0.598870 -0.546683
O2    O     O_R   0.669460 0.106360 0.401130 -0.546685
O3    O     O_R   0.026770 0.620470 0.750430 -0.532661
O4    O     O_R   0.973230 0.120470 0.249570 -0.532659
O5    O     O_R   0.856460 0.393640 0.750930 -0.508053
O6    O     O_R   0.143540 0.893640 0.249070 -0.508053
C1    C     C_R   0.199767 0.646232 0.775485 0.828262
C2    C     C_R   0.800233 0.146233 0.224515 0.828264
O7    O     O_R   0.000920 0.620350 0.599420 -0.556574
O8    O     O_R   0.999080 0.120350 0.400580 -0.556578
O9    O     O_R   0.830430 0.393520 0.598850 -0.544843
O10   O     O_R   0.169570 0.893520 0.401150 -0.544841
C3    C     C_R   0.166483 0.647888 0.574513 0.733454
C4    C     C_R   0.833518 0.147888 0.425486 0.733435
O11   O     O_R   0.356570 0.606480 0.750960 -0.530441
O12   O     O_R   0.643430 0.106480 0.249040 -0.530442
O13   O     O_3   0.176990 0.425580 0.674890 -0.355743
O14   O     O_3   0.823010 0.925580 0.325110 -0.355742
V1    V     V_3+5 0.902170 0.513810 0.674910 1.495520
V2    V     V_3+5 0.097830 0.013810 0.325090 1.495520
O15   O     O_R   0.500800 0.379530 0.599380 -0.553991
O16   O     O_R   0.499200 0.879530 0.400620 -0.553988
C5    C     C_R   0.666378 0.351983 0.574489 0.740159
C6    C     C_R   0.333621 0.851984 0.425511 0.740178
O17   O     O_R   0.526650 0.379650 0.750390 -0.515005
O18   O     O_R   0.473350 0.879650 0.249610 -0.515005
C7    C     C_R   0.698830 0.351336 0.774020 0.751559
C8    C     C_R   0.301169 0.851337 0.225979 0.751566
V3    V     V_3+5 0.402160 0.486190 0.674900 1.515200
V4    V     V_3+5 0.597840 0.986190 0.325100 1.515201
O19   O     O_3   0.677210 0.574420 0.674910 -0.386236
O20   O     O_3   0.322790 0.074420 0.325090 -0.386237
C9    C     C_R   0.800091 0.074746 0.876729 -0.022387
C10   C     C_R   0.199872 0.574748 0.123272 -0.022384
H1    H     H_    0.808896 0.124528 0.766804 0.103179
H2    H     H_    0.191061 0.624534 0.233195 0.103186
H3    H     H_    0.815653 0.939685 0.988973 0.165753
H4    H     H_    0.184312 0.439684 0.011028 0.165752
H5    H     H_    0.838391 0.984356 0.865846 0.112956
H6    H     H_    0.161554 0.484359 0.134155 0.112957
C11   C     C_R   0.717629 0.267307 0.832604 -0.029254
C12   C     C_R   0.282368 0.767307 0.167396 -0.029253
C13   C     C_R   0.753943 0.343464 0.179706 -0.330134
C14   C     C_R   0.246053 0.843463 0.820296 -0.330131
C15   C     C_R   0.730780 0.427348 0.126819 0.410881
C16   C     C_R   0.269208 0.927348 0.873184 0.410878
C17   C     C_R   0.730398 0.395390 0.054581 0.304121
C18   C     C_R   0.269592 0.895387 0.945421 0.304123
C19   C     C_R   0.739014 0.272962 0.034479 -0.083794
C20   C     C_R   0.260981 0.772959 0.965522 -0.083793
C21   C     C_R   0.766556 0.186630 0.090715 -0.033571
C22   C     C_R   0.233442 0.686627 0.909286 -0.033570
C23   C     C_R   0.731906 0.232265 0.961531 0.127232
C24   C     C_R   0.268088 0.732262 0.038470 0.127233
C25   C     C_R   0.775832 0.113102 0.946818 0.102999
C26   C     C_R   0.224146 0.613101 0.053183 0.102998
C27   C     C_R   0.792963 0.031702 0.001456 -0.096850
C28   C     C_R   0.207013 0.531701 0.998545 -0.096846
C29   C     C_R   0.785192 0.065235 0.072074 0.381015
C30   C     C_R   0.214801 0.565233 0.927926 0.381012
C31   C     C_R   0.679806 0.303158 0.901703 -0.033119
C32   C     C_R   0.320200 0.803155 0.098296 -0.033106
C33   C     C_R   0.781133 0.153449 0.820275 -0.061170
C34   C     C_R   0.218838 0.653452 0.179725 -0.061170
C35   C     C_R   0.777275 0.225453 0.163199 -0.134542
C36   C     C_R   0.222726 0.725451 0.836802 -0.134542
H7    H     H_    0.603241 0.384273 0.906109 0.190853
H8    H     H_    0.396779 0.884266 0.093890 0.190850
H9    H     H_    0.756790 0.371231 0.235072 0.151021
H10   H     H_    0.243205 0.871232 0.764930 0.151021
C37   C     C_2   0.831999 0.233733 0.484804 -0.336143
C38   C     C_2   0.168013 0.733729 0.515196 -0.336233
H11   H     H_    0.969478 0.270642 0.504085 0.148051
H12   H     H_    0.030579 0.770625 0.495915 0.148104
C39   C     C_2   0.667917 0.266119 0.515184 -0.337066
C40   C     C_2   0.332071 0.766123 0.484817 -0.337153
H13   H     H_    0.530439 0.229209 0.495903 0.147307
H14   H     H_    0.469504 0.729226 0.504097 0.147359
Cl1   Cl    Cl    0.745113 0.516325 0.995561 -0.657808
Cl2   Cl    Cl    0.254865 0.016319 0.004443 -0.657801
Cl3   Cl    Cl    0.710516 0.575130 0.154323 -0.612858
Cl4   Cl    Cl    0.289455 0.075131 0.845681 -0.612850
Cl5   Cl    Cl    0.806585 0.945320 0.131816 -0.610586
Cl6   Cl    Cl    0.193418 0.445318 0.868185 -0.610585

loop_
_geom_bond_atom_site_label_1
_geom_bond_atom_site_label_2
_ccdc_geom_bond_type
C9    C25   A    
V4    O20   S    
C10   C26   A    
O13   V3    S    
C4    C37   S    
C14   C36   A    
C17   Cl1   S    
O4    C2    A    
V1    O19   S    
C17   C19   A    
O9    V1    S    
C20   C24   A    
C10   H6    S    
C40   H14   S    
O3    C1    A    
C27   C29   A    
C28   C30   A    
C21   C35   A    
C15   C17   A    
C8    C12   S    
C31   H7    S    
O7    C3    A    
C22   C30   A    
H4    C28   S    
C23   C31   A    
O7    V1    S    
O6    C8    A    
O8    V2    S    
C19   C21   A    
C20   C22   A    
O3    V1    S    
O14   V4    S    
C11   C31   A    
C12   C32   A    
C38   C40   D    
C18   C20   A    
C2    C35   S    
C2    O12   A    
C16   Cl4   S    
C10   C34   A    
C14   C16   A    
O11   V3    S    
C16   C18   A    
C23   C25   A    
O17   V3    S    
C24   C26   A    
C9    C33   A    
C38   H12   S    
O8    C4    A    
C5    C39   S    
C37   H11   S    
C6    C40   S    
C1    O11   A    
C24   C32   A    
O15   V3    S    
C39   H13   S    
C7    C11   S    
C13   C35   A    
O10   V2    S    
O1    V3    S    
C9    H5    S    
C14   H10   S    
C13   C15   A    
O18   V4    S    
C25   C27   A    
O16   C6    A    
C21   C29   A    
C11   C33   A    
C12   C34   A    
C22   C36   A    
V2    O20   S    
O16   V4    S    
C15   Cl3   S    
C29   Cl5   S    
O5    V1    S    
C3    C38   S    
O17   C7    A    
O6    V2    S    
O10   C6    A    
O18   C8    A    
C32   H8    S    
O2    V4    S    
C18   Cl2   S    
O15   C5    A    
V3    O19   S    
C1    C36   S    
C37   C39   D    
C30   Cl6   S    
O5    C7    A    
C19   C23   A    
O9    C5    A    
O13   V1    S    
C26   C28   A    
O14   V2    S    
O2    C4    A    
O4    V2    S    
O1    C3    A    
C13   H9    S    
H1    C33   S    
H2    C34   S    
O12   V4    S    
H3    C27   S    
