data_mof_unit_38455.cif
_audit_creation_date              2012-12-10T18:33:47-0500
_audit_creation_method            fapswitch 2.2
_symmetry_space_group_name_H-M    P1
_symmetry_Int_Tables_number       1
_space_group_crystal_system       triclinic
_cell_length_a                    10.450723
_cell_length_b                    15.161854
_cell_length_c                    15.356102
_cell_angle_alpha                 81.940367
_cell_angle_beta                  91.563923
_cell_angle_gamma                 103.159075
_cell_volume                      2345.8889061

loop_
_atom_site_label
_atom_site_type_symbol
_atom_type_description
_atom_site_fract_x
_atom_site_fract_y
_atom_site_fract_z
_atom_type_partial_charge
C1    C     C_R   0.473878 0.441960 0.662200 0.882430
C2    C     C_R   0.587288 0.480917 0.048334 -0.001139
C3    C     C_R   0.565702 0.385918 0.080798 -0.062599
C4    C     C_R   0.650286 0.602806 0.925698 -0.006165
C5    C     C_R   0.516711 0.321643 0.024521 -0.243380
C6    C     C_R   0.698048 0.663846 0.985096 -0.224847
C7    C     C_R   0.726458 0.845191 0.618768 -0.104216
C8    C     C_R   0.286803 0.158328 0.370056 -0.070141
C9    C     C_R   0.689430 0.757815 0.594595 -0.071819
C10   C     C_R   0.320505 0.245169 0.395234 -0.040191
C11   C     C_R   0.502403 0.792462 0.518177 0.052837
C12   C     C_R   0.526970 0.557815 0.338320 0.875500
C13   C     C_R   0.496745 0.207354 0.483001 0.043256
C14   C     C_R   0.545632 0.885977 0.528511 -0.083355
C15   C     C_R   0.457268 0.114612 0.469316 -0.085847
C16   C     C_R   0.741722 0.500048 0.501190 0.878361
C17   C     C_R   0.258084 0.499633 0.499398 0.847463
C18   C     C_R   0.648945 0.908614 0.589256 0.107990
C19   C     C_R   0.359276 0.093335 0.404657 0.103230
C20   C     C_R   0.489137 0.957224 0.483414 0.083729
C21   C     C_R   0.513870 0.043195 0.514374 0.097731
C22   C     C_R   0.591280 0.053365 0.590676 -0.223768
C23   C     C_R   0.489833 0.468233 0.815585 -0.215628
C24   C     C_R   0.414085 0.947113 0.406290 -0.231062
C25   C     C_R   0.668025 0.992380 0.621037 -0.191002
C26   C     C_R   0.341415 0.009652 0.372794 -0.181739
C27   C     C_3   0.940309 0.437309 0.567313 -0.185523
C28   C     C_3   0.058519 0.561037 0.434286 -0.175968
C29   C     C_3   0.053586 0.520422 0.577744 -0.145034
C30   C     C_3   0.945549 0.477979 0.424013 -0.162712
C31   C     C_3   0.122130 0.498480 0.499541 0.025364
C32   C     C_3   0.877219 0.500265 0.502006 0.004947
C33   C     C_3   0.011729 0.415251 0.489162 -0.149252
C34   C     C_R   0.545820 0.529952 0.187402 -0.201903
C35   C     C_3   0.987712 0.583335 0.512455 -0.098221
C36   C     C_R   0.456222 0.405560 0.756774 -0.138743
C37   C     C_R   0.573429 0.592240 0.247599 -0.112468
C38   C     C_R   0.431220 0.282874 0.880330 -0.026355
C39   C     C_R   0.698963 0.705441 0.133603 -0.026335
C40   C     C_R   0.413546 0.311679 0.789655 -0.074581
C41   C     C_R   0.656494 0.679947 0.222057 -0.107101
C42   C     C_2   0.623978 0.242515 0.523303 0.936011
C43   C     C_2   0.376212 0.757466 0.476786 0.943603
C44   C     C_R   0.845902 0.866884 0.673207 0.119659
C45   C     C_R   0.526004 0.442930 0.901787 0.090219
C46   C     C_R   0.836632 0.880738 0.761210 -0.139333
C47   C     C_R   0.949577 0.897690 0.812827 -0.115896
C48   C     C_R   0.072204 0.899876 0.777362 -0.075348
C49   C     C_R   0.081956 0.884670 0.690357 -0.125623
C50   C     C_R   0.969360 0.868216 0.638434 -0.153291
C51   C     C_R   0.173442 0.137451 0.310694 0.097061
C52   C     C_R   0.045470 0.127068 0.342575 -0.165286
C53   C     C_R   0.937828 0.108872 0.286545 -0.106895
C54   C     C_R   0.957270 0.100715 0.198579 -0.071379
C55   C     C_R   0.084599 0.111915 0.166225 -0.108458
C56   C     C_R   0.604211 0.549177 0.104589 0.105298
C57   C     C_R   0.192639 0.130854 0.221889 -0.147869
C58   C     C_R   0.704727 0.744663 0.285979 0.169514
C59   C     C_R   0.653946 0.822821 0.285743 -0.076084
C60   C     C_R   0.710568 0.889189 0.338598 -0.152704
C61   C     C_R   0.817438 0.877790 0.392180 -0.099359
C62   C     C_R   0.867747 0.799798 0.393148 -0.132029
C63   C     C_R   0.811653 0.733267 0.340314 -0.060174
C64   C     C_R   0.338172 0.246400 0.732341 0.176623
C65   C     C_R   0.223774 0.264132 0.689749 -0.087943
C66   C     C_R   0.152208 0.203587 0.635814 -0.122354
C67   C     C_R   0.492412 0.348370 0.935624 0.053891
C68   C     C_R   0.192708 0.124144 0.625033 -0.100964
C69   C     C_R   0.304867 0.105210 0.668116 -0.163490
C70   C     C_R   0.378362 0.166429 0.720729 -0.079871
C71   C     C_2   0.381575 0.185446 0.917218 0.850252
C72   C     C_2   0.776264 0.799681 0.104210 0.865280
C73   C     C_2   0.607679 0.350686 0.169968 0.911291
C74   C     C_2   0.661632 0.645259 0.833807 0.870406
C75   C     C_R   0.668566 0.640149 0.074324 0.050169
C76   C     C_R   0.587764 0.509313 0.956484 -0.012965
H1    H     H_    0.102485 0.537591 0.640251 0.153120
H2    H     H_    0.974413 0.651599 0.522989 0.157331
H3    H     H_    0.498284 0.250034 0.051235 0.210043
H4    H     H_    0.749174 0.732738 0.959430 0.178380
H5    H     H_    0.477596 0.464907 0.205478 0.158976
H6    H     H_    0.481949 0.536706 0.792460 0.180371
H7    H     H_    0.736889 0.009810 0.673045 0.156768
H8    H     H_    0.276877 0.993679 0.318154 0.164848
H9    H     H_    0.818622 0.249817 0.523781 0.322939
H10   H     H_    0.285613 0.719187 0.366204 0.316098
H11   H     H_    0.742163 0.878439 0.789783 0.175982
H12   H     H_    0.896631 0.460806 0.361501 0.186361
H13   H     H_    0.941926 0.908733 0.880439 0.154396
H14   H     H_    0.159579 0.913023 0.817355 0.149284
H15   H     H_    0.176773 0.885679 0.663060 0.153707
H16   H     H_    0.978423 0.856459 0.571255 0.127510
H17   H     H_    0.029253 0.132995 0.410702 0.129494
H18   H     H_    0.839388 0.101132 0.311355 0.146837
H19   H     H_    0.873749 0.086138 0.155419 0.144348
H20   H     H_    0.099606 0.106179 0.097964 0.172452
H21   H     H_    0.290903 0.139951 0.196068 0.176420
H22   H     H_    0.572803 0.833204 0.243172 0.142827
H23   H     H_    0.265876 0.296130 0.370704 0.152015
H24   H     H_    0.672534 0.949976 0.337300 0.137174
H25   H     H_    0.861526 0.929582 0.432646 0.131862
H26   H     H_    0.951628 0.791665 0.433639 0.128125
H27   H     H_    0.853311 0.674103 0.340001 0.109985
H28   H     H_    0.190524 0.325134 0.697985 0.102445
H29   H     H_    0.064990 0.218049 0.602732 0.115582
H30   H     H_    0.137086 0.077181 0.583434 0.132692
H31   H     H_    0.335175 0.043155 0.660405 0.138101
H32   H     H_    0.466276 0.151492 0.752460 0.144217
H33   H     H_    0.424522 0.066996 0.972414 0.350229
H34   H     H_    0.747979 0.708125 0.614415 0.197257
H35   H     H_    0.784032 0.920884 0.028785 0.340602
H36   H     H_    0.577669 0.249558 0.272910 0.353612
H37   H     H_    0.576115 0.720981 0.741518 0.342739
H38   H     H_    0.594395 0.107728 0.629067 0.161246
H39   H     H_    0.412473 0.892488 0.368533 0.166172
H40   H     H_    0.887524 0.387257 0.621604 0.170725
H41   H     H_    0.106160 0.609419 0.377635 0.137691
H42   H     H_    0.027414 0.347464 0.478845 0.146959
N1    N     N_R   0.574200 0.731700 0.552740 -0.149194
N2    N     N_R   0.425800 0.268300 0.447260 -0.144321
O1    O     O_R   0.462600 0.383110 0.605620 -0.567735
O2    O     O_R   0.738984 0.232375 0.485522 -0.820644
O3    O     O_2   0.273434 0.759473 0.511841 -0.663724
O4    O     O_R   0.375249 0.728218 0.394458 -0.801997
O5    O     O_2   0.263581 0.151610 0.917730 -0.631856
O6    O     O_R   0.470109 0.132325 0.949596 -0.810508
O7    O     O_2   0.885914 0.825697 0.134068 -0.622511
O8    O     O_R   0.722384 0.858634 0.043417 -0.808037
O9    O     O_2   0.703731 0.394245 0.204742 -0.621803
O10   O     O_R   0.539495 0.266268 0.213076 -0.831033
O11   O     O_2   0.730737 0.622924 0.781753 -0.625195
O12   O     O_R   0.537400 0.616890 0.394380 -0.563678
O13   O     O_R   0.585696 0.708953 0.807165 -0.813934
O14   O     O_R   0.510210 0.531900 0.639510 -0.604425
O15   O     O_R   0.489790 0.468100 0.360490 -0.615798
O16   O     O_R   0.662240 0.425610 0.483080 -0.582047
O17   O     O_R   0.337760 0.574390 0.516920 -0.592308
O18   O     O_R   0.709860 0.574400 0.516970 -0.640542
O19   O     O_R   0.290140 0.425600 0.483030 -0.643298
O20   O     O_2   0.628279 0.274266 0.592498 -0.637092
Zn1   Zn    Zn3+2 0.468210 0.400660 0.477370 0.985272
Zn2   Zn    Zn3+2 0.531790 0.599340 0.522630 0.984779

loop_
_geom_bond_atom_site_label_1
_geom_bond_atom_site_label_2
_ccdc_geom_bond_type
C66   C68   A    
O17   Zn2   S    
C34   C56   A    
C23   C45   A    
C23   H6    S    
C27   C29   S    
C34   C37   A    
C14   C18   A    
C5    C67   A    
C11   N1    A    
C69   H31   S    
C6    C75   A    
C39   C41   A    
C53   C54   A    
C27   C33   S    
C15   C19   A    
C62   C63   A    
C72   O8    S    
C45   C76   A    
C38   C40   A    
C24   C26   A    
C41   C58   S    
C28   H41   S    
C11   C14   A    
C44   C50   A    
C23   C36   A    
C74   O13   S    
C9    H34   S    
C46   C47   A    
C12   C37   S    
C19   C26   A    
N1    Zn2   S    
C54   C55   A    
C20   C24   A    
C28   C35   S    
C68   C69   A    
C22   C25   A    
C45   C67   A    
C39   C72   S    
C31   C33   S    
C71   O6    S    
C11   C43   S    
C51   C57   A    
C34   H5    S    
C39   C75   A    
C5    H3    S    
C4    C74   S    
C27   H40   S    
C27   C32   S    
C59   C60   A    
C56   C75   A    
H37   O13   S    
C21   C22   A    
C47   H13   S    
C61   C62   A    
C18   C25   A    
C68   H30   S    
C49   H15   S    
C13   C42   S    
C44   C46   A    
O12   Zn2   S    
C73   O9    D    
C8    C19   A    
C72   O7    D    
C42   O20   D    
C51   C52   A    
C32   C35   S    
O1    Zn1   S    
C36   C40   A    
C63   H27   S    
O18   Zn2   S    
C60   H24   S    
C58   C59   A    
C12   O15   A    
C60   C61   A    
C61   H25   S    
C10   H23   S    
O16   Zn1   S    
C14   C20   A    
O14   Zn2   S    
C6    H4    S    
C47   C48   A    
C22   H38   S    
C7    C18   A    
C57   H21   S    
H9    O2    S    
C17   O19   A    
C7    C44   S    
C38   C67   A    
C8    C51   S    
C54   H19   S    
C4    C6    A    
C48   C49   A    
C65   C66   A    
C64   C70   A    
C13   C15   A    
H10   O4    S    
C9    N1    A    
C66   H29   S    
C30   H12   S    
C1    O14   A    
C16   O16   A    
C43   O3    D    
C13   N2    A    
C2    C76   A    
C52   C53   A    
C42   O2    S    
C46   H11   S    
C50   H16   S    
C58   C63   A    
C7    C9    A    
C73   O10   S    
C26   H8    S    
C12   O12   A    
C30   C33   S    
C53   H18   S    
C28   C31   S    
C16   O18   A    
N2    Zn1   S    
C33   H42   S    
C55   H20   S    
C3    C5    A    
C17   O17   A    
C16   C32   S    
C29   C35   S    
C35   H2    S    
C40   C64   S    
C52   H17   S    
C64   C65   A    
C55   C57   A    
C2    C3    A    
C29   C31   S    
C2    C56   A    
C30   C32   S    
O19   Zn1   S    
C15   C21   A    
C17   C31   S    
C28   C30   S    
C37   C41   A    
C69   C70   A    
C3    C73   S    
C1    O1    A    
C4    C76   A    
C10   N2    A    
H33   O6    S    
O15   Zn1   S    
C29   H1    S    
C20   C21   A    
C24   H39   S    
C8    C10   A    
C49   C50   A    
H35   O8    S    
C25   H7    S    
C59   H22   S    
C71   O5    D    
C48   H14   S    
C65   H28   S    
H36   O10   S    
C74   O11   D    
C43   O4    S    
C70   H32   S    
C38   C71   S    
C1    C36   S    
C62   H26   S    
