data_mof_unit_65203.cif
_audit_creation_date              2013-03-05T15:41:50-0500
_audit_creation_method            fapswitch 2.2
_symmetry_space_group_name_H-M    P1
_symmetry_Int_Tables_number       1
_space_group_crystal_system       triclinic
_cell_length_a                    18.417096
_cell_length_b                    18.390691
_cell_length_c                    18.4247
_cell_angle_alpha                 119.781438
_cell_angle_beta                  119.645785
_cell_angle_gamma                 90.483149
_cell_volume                      4432.14793903

loop_
_atom_site_label
_atom_site_type_symbol
_atom_site_description
_atom_site_fract_x
_atom_site_fract_y
_atom_site_fract_z
_atom_type_partial_charge
Zn1   Zn    Zn3+2 0.956210 0.542060 0.085830 1.020122
Zn2   Zn    Zn3+2 0.129620 0.543770 0.085850 1.046922
Zn3   Zn    Zn3+2 0.957930 0.543770 0.914160 0.990711
Zn4   Zn    Zn3+2 0.956240 0.370390 0.914160 1.032347
O1    O     O_3   1.000000 0.500000 0.000000 -0.520072
O2    O     O_R   0.053940 0.324750 0.939940 -0.620830
O3    O     O_R   0.884790 0.613970 0.060060 -0.638270
O4    O     O_R   0.175250 0.615170 0.229170 -0.617009
O5    O     O_R   0.886020 0.446110 0.770840 -0.644907
O6    O     O_R   0.176940 0.616860 0.060100 -0.626118
O7    O     O_R   0.883150 0.323060 0.939910 -0.629617
O8    O     O_R   0.056770 0.616860 0.939930 -0.647796
O9    O     O_R   0.883130 0.443210 0.060060 -0.640903
O10   O     O_R   0.053880 0.613970 0.229150 -0.632495
O11   O     O_R   0.884840 0.324750 0.770840 -0.628848
O12   O     O_R   0.175280 0.446110 0.060100 -0.632457
O13   O     O_R   0.885990 0.615170 0.939900 -0.638226
C1    C     C_R   0.138331 0.361194 0.999046 0.911921
C2    C     C_R   0.862165 0.639261 0.000919 0.884418
C3    C     C_R   0.138535 0.639999 0.276734 0.903837
C4    C     C_R   0.860327 0.361431 0.722983 0.846924
C5    C     C_R   0.140424 0.638913 0.998253 0.866706
C6    C     C_R   0.857829 0.358556 0.999032 0.833687
C7    C     C_3   0.761722 0.202440 0.905577 -0.351754
H1    H     H_    0.814796 0.175042 0.904040 0.246186
H2    H     H_    0.722263 0.199182 0.834112 0.189902
C8    C     C_3   0.701219 0.143954 0.905344 -0.438195
H3    H     H_    0.632517 0.114893 0.835299 0.210325
H4    H     H_    0.724827 0.087477 0.901739 0.233763
H5    H     H_    0.825844 0.182121 0.085097 0.171001
C9    C     C_3   0.856008 0.307005 0.101537 0.069022
C10   C     C_3   0.721958 0.332237 0.994399 -0.463060
C11   C     C_3   0.801401 0.300706 0.000068 -0.017472
H6    H     H_    0.745815 0.403239 0.058570 0.217212
H7    H     H_    0.680210 0.327458 0.922201 0.195827
C12   C     C_3   0.701265 0.199450 0.002462 -0.051653
C13   C     C_3   0.800345 0.238810 0.097224 0.198438
C14   C     C_3   0.665186 0.274866 0.999366 -0.336628
H8    H     H_    0.595348 0.245285 0.931179 0.196300
H9    H     H_    0.663935 0.317974 0.067004 0.256832
H10   H     H_    0.869434 0.375493 0.163875 0.173895
C15   C     C_2   0.748951 0.803869 0.969402 0.341710
C16   C     C_2   0.694674 0.806244 0.999533 -0.389248
H11   H     H_    0.684289 0.760763 0.017270 0.146849
C17   C     C_2   0.793232 0.736430 0.956344 -0.204347
C18   C     C_2   0.813197 0.700993 0.009284 -0.335439
H12   H     H_    0.814460 0.719452 0.906106 0.220673
H13   H     H_    0.798830 0.721473 0.065643 0.176435
C19   C     C_2   0.718882 0.279074 0.444336 -0.267471
C20   C     C_2   0.709822 0.192779 0.386888 0.165601
H14   H     H_    0.677050 0.308511 0.408535 0.186168
C21   C     C_2   0.781057 0.336943 0.556203 -0.095422
C22   C     C_2   0.798665 0.305208 0.612526 -0.214317
H15   H     H_    0.808904 0.407449 0.592485 0.191779
H16   H     H_    0.766219 0.236060 0.577155 0.186617
C23   C     C_2   0.334525 0.279766 0.030939 0.342501
C24   C     C_2   0.306834 0.195144 0.000569 -0.377678
H17   H     H_    0.243579 0.166772 0.982496 0.150129
C25   C     C_2   0.280019 0.336977 0.043792 -0.203665
C26   C     C_2   0.191656 0.303812 0.990674 -0.324352
H18   H     H_    0.313214 0.408573 0.094114 0.224798
H19   H     H_    0.155804 0.232970 0.934261 0.178172
C27   C     C_2   0.218596 0.779003 0.942120 -0.264105
C28   C     C_2   0.304726 0.825157 0.019348 0.182374
H20   H     H_    0.189932 0.772797 0.870815 0.188702
C29   C     C_2   0.161676 0.727888 0.945354 -0.104310
C30   C     C_2   0.194713 0.686588 0.990682 -0.201391
H21   H     H_    0.091946 0.721609 0.906879 0.195795
H22   H     H_    0.262989 0.687948 0.023251 0.178580
C31   C     C_2   0.226372 0.799100 0.554219 0.159655
C32   C     C_2   0.305289 0.793505 0.613512 0.136918
C33   C     C_2   0.165674 0.729157 0.444555 -0.127690
C34   C     C_2   0.195382 0.705723 0.386095 -0.234075
H23   H     H_    0.095918 0.702352 0.411374 0.209787
H24   H     H_    0.263947 0.737892 0.419607 0.196360
Zn5   Zn    Zn3+2 0.543830 0.957900 0.914170 1.064171
Zn6   Zn    Zn3+2 0.542120 0.956180 0.085840 1.085948
Zn7   Zn    Zn3+2 0.370430 0.956180 0.914150 1.044980
Zn8   Zn    Zn3+2 0.543800 0.129560 0.085840 1.087724
O14   O     O_3   0.500040 0.999960 0.000000 -0.540054
O15   O     O_R   0.615200 0.175200 0.229160 -0.637899
O16   O     O_R   0.446160 0.885990 0.770850 -0.633634
O17   O     O_R   0.614060 0.884790 0.060100 -0.621478
O18   O     O_R   0.324760 0.053850 0.939900 -0.620693
O19   O     O_R   0.443270 0.883090 0.060070 -0.590884
O20   O     O_R   0.616890 0.176890 0.060090 -0.564415
O21   O     O_R   0.323100 0.883090 0.939900 -0.659077
O22   O     O_R   0.616910 0.056740 0.939940 -0.638694
O23   O     O_R   0.615250 0.885990 0.939940 -0.604143
O24   O     O_R   0.446110 0.175200 0.060060 -0.603098
O25   O     O_R   0.614030 0.053850 0.229160 -0.576191
O26   O     O_R   0.324790 0.884790 0.770830 -0.612057
C35   C     C_R   0.640485 0.138503 0.277206 0.768743
C36   C     C_R   0.361460 0.860857 0.723104 0.847955
C37   C     C_R   0.640181 0.863002 0.001342 0.916031
C38   C     C_R   0.361752 0.138800 0.998698 0.908992
C39   C     C_R   0.359439 0.862103 0.002807 0.766579
C40   C     C_R   0.642157 0.141390 0.000791 0.880684
S1    S     S_3+6 0.817711 0.286672 0.219569 0.055814
O27   O     O_2   0.915350 0.333991 0.302514 -0.217698
O28   O     O_2   0.769436 0.351921 0.237885 -0.282030
O29   O     O_3   0.782296 0.205185 0.223839 -0.544326
H25   H     H_    0.799430 0.235374 0.294682 0.391334
N1    N     N_R   0.765861 0.866476 0.949651 0.237702
O30   O     O_R   0.775629 0.840937 0.876254 -0.355365
O31   O     O_R   0.787565 0.951250 0.015700 -0.344571
N2    N     N_R   0.773168 0.154918 0.427901 0.209708
O32   O     O_R   0.746694 0.074433 0.400923 -0.318967
O33   O     O_R   0.857820 0.196673 0.482263 -0.337657
N3    N     N_R   0.416964 0.316818 0.051225 0.238561
O34   O     O_R   0.464720 0.400101 0.124891 -0.348875
O35   O     O_R   0.435881 0.272759 0.985416 -0.374955
N4    N     N_R   0.341094 0.848480 0.120832 0.204334
O36   O     O_R   0.297483 0.876411 0.161634 -0.347863
O37   O     O_R   0.421525 0.851326 0.176680 -0.327566
N5    N     N_R   0.200759 0.875723 0.595002 0.223163
O38   O     O_R   0.257958 0.955690 0.656295 -0.377620
O39   O     O_R   0.117211 0.866189 0.556498 -0.327061
S2    S     S_3+6 0.336957 0.697112 0.570699 0.058103
O40   O     O_2   0.257128 0.613684 0.489878 -0.214873
O41   O     O_2   0.386331 0.702904 0.527700 -0.286758
O42   O     O_3   0.403542 0.690817 0.669551 -0.526554
H26   H     H_    0.464868 0.721071 0.697366 0.379461
N6    N     N_R   0.942148 0.295586 0.125491 0.210601
O43   O     O_R   0.947154 0.219602 0.069246 -0.367071
O44   O     O_R   0.015081 0.361799 0.205816 -0.314542

loop_
_geom_bond_atom_site_label_1
_geom_bond_atom_site_label_2
_geom_bond_distance
_ccdc_geom_bond_type
Zn7   O21   1.953098 S    
C29   H21   1.086593 S    
C27   H20   1.087037 S    
O16   C36   1.283448 A    
C8    H4    1.113498 S    
C33   H23   1.086350 S    
N2    O33   1.301726 A    
C22   H16   1.085192 S    
C7    C8    1.539172 S    
C19   H14   1.086629 S    
N1    O31   1.301887 A    
C2    C18   1.451520 S    
C32   C36   1.452241 S    
C17   C18   1.338685 D    
N5    O38   1.301938 A    
O4    C3    1.275794 A    
Zn1   O1    1.951053 S    
C12   C13   1.572443 S    
C7    H2    1.113423 S    
C9    N6    1.469949 S    
C14   H8    1.113255 S    
Zn7   O14   1.953311 S    
S2    O42   1.684258 S    
Zn6   O17   1.933003 S    
O8    C5    1.269480 A    
C23   C24   1.354392 D    
O9    C6    1.278947 A    
C26   H19   1.084001 S    
O18   C38   1.284190 A    
N3    O34   1.301109 A    
Zn8   O24   1.934740 S    
Zn3   O8    1.953358 S    
C6    C11   1.494471 S    
C24   C38   1.454161 S    
C16   C37   1.453986 S    
N2    O32   1.301119 A    
C9    C11   1.562980 S    
C31   C32   1.363788 D    
C10   C14   1.544931 S    
Zn2   O12   1.931755 S    
Zn5   O22   1.951996 S    
Zn5   O23   1.933855 S    
S2    O41   1.503580 D    
C29   C30   1.334099 D    
C27   C29   1.444628 S    
Zn6   O19   1.953503 S    
C25   C26   1.338994 D    
C34   H24   1.085831 S    
C23   N3    1.441308 S    
N1    O30   1.301110 A    
C21   H15   1.086171 S    
C17   H12   1.086305 S    
O2    C1    1.278180 A    
C18   H13   1.084031 S    
C25   H18   1.086299 S    
C10   H7    1.113231 S    
O10   C3    1.283293 A    
C7    H1    1.109788 S    
Zn4   O2    1.934888 S    
Zn5   O16   1.936323 S    
Zn8   O15   1.936775 S    
Zn4   O1    1.947882 S    
Zn7   O26   1.935150 S    
O6    C5    1.273115 A    
C9    C13   1.558478 S    
H5    C13   1.112670 S    
C30   H22   1.086259 S    
C15   C17   1.475097 S    
C10   H6    1.113007 S    
O23   C37   1.278248 A    
C16   H11   1.083360 S    
Zn3   O5    1.934309 S    
O25   C35   1.279142 A    
O15   C35   1.283335 A    
S1    O27   1.503424 D    
C19   C21   1.468881 S    
O17   C37   1.285139 A    
O26   C36   1.277155 A    
Zn4   O7    1.953715 S    
C1    C26   1.451766 S    
C28   C39   1.438024 S    
S1    O28   1.502281 D    
O3    C2    1.278621 A    
C20   N2    1.442610 S    
Zn8   O14   1.947728 S    
Zn2   O1    1.953462 S    
Zn1   O9    1.952145 S    
C15   C16   1.354604 D    
Zn2   O6    1.952996 S    
C13   S1    1.808142 S    
C21   C22   1.339643 D    
N6    O44   1.301120 A    
N4    O36   1.301842 A    
Zn6   O14   1.952739 S    
Zn6   O25   1.934354 S    
C28   N4    1.445093 S    
C9    H10   1.115111 S    
Zn1   O3    1.933854 S    
Zn2   O4    1.935196 S    
Zn5   O14   1.951054 S    
C33   C34   1.330838 D    
Zn3   O1    1.952587 S    
C15   N1    1.441328 S    
C31   C33   1.464988 S    
S2    O40   1.503181 D    
C20   C35   1.460367 S    
O24   C38   1.277911 A    
C8    C12   1.558151 S    
C7    C11   1.557107 S    
C23   C25   1.475216 S    
C32   S2    1.785613 S    
C31   N5    1.443214 S    
C10   C11   1.552780 S    
Zn4   O11   1.936777 S    
C12   C14   1.557266 S    
C14   H9    1.108761 S    
O5    C4    1.279590 A    
C24   H17   1.083361 S    
C4    C22   1.450519 S    
O7    C6    1.277283 A    
O13   C2    1.284242 A    
N5    O39   1.301402 A    
C3    C34   1.445494 S    
Zn3   O13   1.933106 S    
O29   H25   0.990561 S    
O20   C40   1.279060 A    
N3    O35   1.301851 A    
C5    C30   1.425677 S    
O19   C39   1.272709 A    
C27   C28   1.343873 D    
Zn7   O18   1.932006 S    
O11   C4    1.280063 A    
S1    O29   1.681905 S    
O12   C1    1.283337 A    
C19   C20   1.348687 D    
C8    H3    1.113622 S    
C12   C40   1.496890 S    
Zn1   O10   1.936321 S    
O21   C39   1.273421 A    
O42   H26   0.990655 S    
Zn8   O20   1.953715 S    
O22   C40   1.278656 A    
N6    O43   1.301253 A    
N4    O37   1.301205 A    
