data_mof_unit_12082.cif
_audit_creation_date              2012-12-10T17:51:23-0500
_audit_creation_method            fapswitch 2.2
_symmetry_space_group_name_H-M    P1
_symmetry_Int_Tables_number       1
_space_group_crystal_system       triclinic
_cell_length_a                    14.721991
_cell_length_b                    14.86632
_cell_length_c                    17.31136
_cell_angle_alpha                 106.549175
_cell_angle_beta                  72.374286
_cell_angle_gamma                 115.369091
_cell_volume                      3209.35645023

loop_
_atom_site_label
_atom_site_type_symbol
_atom_type_description
_atom_site_fract_x
_atom_site_fract_y
_atom_site_fract_z
_atom_type_partial_charge
C1    C     C_R   0.119377 0.687979 0.513515 0.811187
C2    C     C_R   0.880776 0.312143 0.486847 0.812875
C3    C     C_R   0.187309 0.795651 0.527595 -0.093430
C4    C     C_R   0.812247 0.205856 0.489616 -0.091893
C5    C     C_R   0.208350 0.971126 0.582530 -0.206764
C6    C     C_R   0.783222 0.039500 0.508566 -0.201711
C7    C     C_R   0.144940 0.869950 0.565069 -0.245280
C8    C     C_R   0.849814 0.137385 0.497478 -0.255968
C9    C     C_R   0.295166 0.824046 0.507050 0.176517
C10   C     C_R   0.706824 0.174841 0.491774 0.195772
C11   C     C_R   0.358350 0.923713 0.537250 0.040651
C12   C     C_R   0.637305 0.081733 0.516280 0.033732
C13   C     C_R   0.314738 0.998738 0.568456 0.125373
C14   C     C_R   0.677227 0.011045 0.518034 0.115827
C15   C     C_R   0.464298 0.952422 0.534176 0.059060
C16   C     C_R   0.529340 0.055375 0.536755 0.079629
C17   C     C_R   0.484332 0.128809 0.567005 -0.198010
C18   C     C_R   0.505629 0.883334 0.535779 -0.206566
C19   C     C_R   0.378179 0.100541 0.584912 -0.228007
C20   C     C_R   0.610519 0.913058 0.529840 -0.220697
C21   C     C_R   0.295958 0.328348 0.363412 -0.368121
C22   C     C_R   0.703579 0.671173 0.637126 -0.374372
C23   C     C_R   0.987268 0.500817 0.652294 0.785911
C24   C     C_R   0.011859 0.497786 0.347401 0.798794
C25   C     C_R   0.212315 0.358112 0.383871 0.465400
C26   C     C_R   0.785413 0.639110 0.618434 0.467814
C27   C     C_R   0.286617 0.491802 0.487369 -0.060823
C28   C     C_R   0.716511 0.512488 0.509202 -0.072195
C29   C     C_R   0.375011 0.466312 0.467776 -0.023596
C30   C     C_R   0.628584 0.538633 0.528241 -0.021179
C31   C     C_R   0.377284 0.382156 0.404506 0.128552
C32   C     C_R   0.625096 0.621157 0.592899 0.129983
C33   C     C_R   0.459863 0.519612 0.508915 0.093233
C34   C     C_R   0.544776 0.486750 0.485929 0.089772
C35   C     C_R   0.542268 0.402333 0.422312 -0.242966
C36   C     C_R   0.462629 0.604348 0.572305 -0.242391
C37   C     C_R   0.460281 0.351397 0.382633 -0.187308
C38   C     C_R   0.543395 0.653584 0.613413 -0.198362
C39   C     C_R   0.976496 0.497523 0.737914 -0.092004
C40   C     C_R   0.017935 0.494317 0.260960 -0.096904
C41   C     C_R   0.065526 0.539254 0.769794 -0.247225
C42   C     C_R   0.925707 0.457396 0.234055 -0.242974
C43   C     C_R   0.058840 0.540168 0.851468 -0.151208
C44   C     C_R   0.926992 0.449927 0.152194 -0.151045
C45   C     C_R   0.962812 0.498266 0.902210 0.128672
C46   C     C_R   0.020884 0.480781 0.096093 0.131530
C47   C     C_R   0.873181 0.458037 0.871297 -0.188723
C48   C     C_R   0.113350 0.515668 0.121973 -0.191248
C49   C     C_R   0.878594 0.455151 0.788180 0.250453
C50   C     C_R   0.113559 0.523912 0.204814 0.249192
C51   C     C_2   0.954326 0.494940 0.987902 -0.213186
C52   C     C_2   0.025381 0.479520 0.010094 -0.212551
Cu1   Cu    Cu3+1 0.916740 0.524770 0.521640 0.960369
Cu2   Cu    Cu3+1 0.083260 0.475230 0.478360 0.963923
H1    H     H_    0.140381 0.572649 0.731585 0.150788
H2    H     H_    0.852199 0.432657 0.276366 0.154864
H3    H     H_    0.529913 0.208036 0.582721 0.148739
H4    H     H_    0.456742 0.808265 0.547901 0.139802
H5    H     H_    0.461788 0.286674 0.334239 0.136928
H6    H     H_    0.541582 0.717802 0.662282 0.139084
H7    H     H_    0.728048 0.454360 0.458221 0.141836
H8    H     H_    0.277360 0.553079 0.535954 0.130521
H9    H     H_    0.091764 0.470544 0.964504 0.145072
H10   H     H_    0.887430 0.503630 0.032748 0.144918
H11   H     H_    0.345866 0.158673 0.609887 0.145915
H12   H     H_    0.639600 0.858760 0.533135 0.151697
H13   H     H_    0.930796 0.159495 0.495076 0.164614
H14   H     H_    0.062695 0.850267 0.579382 0.160921
N1    N     N_R   0.208390 0.438070 0.445820 -0.186990
N2    N     N_R   0.791610 0.561930 0.554180 -0.187867
O1    O     O_R   0.020090 0.662480 0.528530 -0.573255
O2    O     O_R   0.979910 0.337520 0.471470 -0.573457
O3    O     O_R   0.160710 0.620650 0.491980 -0.576599
O4    O     O_R   0.839290 0.379350 0.508020 -0.587586
O5    O     O_R   0.921540 0.523360 0.633990 -0.540109
O6    O     O_R   0.078460 0.476640 0.366010 -0.535350
O7    O     O_R   0.062170 0.481520 0.597440 -0.594326
O8    O     O_R   0.937830 0.518480 0.402560 -0.591186
N3    N     N_2   0.863777 0.689420 0.664752 -0.380680
H15   H     H_    0.900805 0.765123 0.661019 0.217402
C53   C     C_3   0.831066 0.674654 0.749474 -0.671199
H16   H     H_    0.780186 0.716438 0.785953 0.194154
H17   H     H_    0.899542 0.703475 0.777055 0.226746
H18   H     H_    0.789205 0.593039 0.752787 0.267077
N4    N     N_2   0.129480 0.302480 0.342410 -0.378211
H19   H     H_    0.090363 0.229648 0.354010 0.228151
C54   C     C_3   0.155198 0.305016 0.255291 -0.677071
H20   H     H_    0.201884 0.258378 0.220725 0.194612
H21   H     H_    0.198807 0.383863 0.244367 0.270072
H22   H     H_    0.083410 0.274133 0.231732 0.228395
H23   H     H_    0.297195 0.263150 0.315521 0.143672
H24   H     H_    0.701050 0.734534 0.686722 0.142255
H25   H     H_    0.602610 0.373061 0.401797 0.138812
H26   H     H_    0.402970 0.634579 0.592142 0.121258
N5    N     N_2   0.207531 0.565187 0.233497 -0.419754
H27   H     H_    0.211424 0.621352 0.285116 0.263495
C55   C     C_3   0.304156 0.575824 0.175190 -0.734582
H28   H     H_    0.327541 0.639522 0.142886 0.224134
H29   H     H_    0.297729 0.504310 0.130076 0.231680
H30   H     H_    0.364525 0.591863 0.208515 0.230738
N6    N     N_2   0.788854 0.407031 0.752992 -0.422809
H31   H     H_    0.797198 0.361169 0.696160 0.250093
C56   C     C_3   0.687575 0.371925 0.804995 -0.724583
H32   H     H_    0.628525 0.345831 0.767633 0.230769
H33   H     H_    0.675898 0.434599 0.854958 0.230984
H34   H     H_    0.677348 0.307380 0.831270 0.225638
H35   H     H_    0.800254 0.425741 0.911886 0.134361
H36   H     H_    0.184783 0.539842 0.077524 0.134149
H37   H     H_    0.854399 0.419092 0.133027 0.130909
H38   H     H_    0.128777 0.574779 0.875023 0.133589
N7    N     N_2   0.675085 0.229971 0.456861 -0.432666
H39   H     H_    0.656730 0.290254 0.493556 0.252708
C57   C     C_3   0.631975 0.179893 0.383928 -0.696361
H40   H     H_    0.548753 0.166154 0.399432 0.231543
H41   H     H_    0.642181 0.106544 0.357205 0.234782
H42   H     H_    0.671354 0.229307 0.336808 0.218178
N8    N     N_2   0.337869 0.757842 0.444788 -0.417116
H43   H     H_    0.360270 0.711789 0.463104 0.252532
C58   C     C_3   0.395527 0.792086 0.367661 -0.669061
H44   H     H_    0.469816 0.854960 0.375492 0.231233
H45   H     H_    0.411968 0.728736 0.321796 0.222752
H46   H     H_    0.350081 0.817400 0.343677 0.227585
H47   H     H_    0.174023 0.027659 0.608364 0.141186
H48   H     H_    0.814296 0.986873 0.512005 0.141957

loop_
_geom_bond_atom_site_label_1
_geom_bond_atom_site_label_2
_ccdc_geom_bond_type
C15   C18   A    
C54   H20   S    
N6    H31   S    
C29   C33   A    
C27   C29   A    
C9    N8    S    
N5    H27   S    
C6    H48   S    
C4    C8    A    
C53   H18   S    
C53   H16   S    
C39   C41   A    
Cu1   Cu2   S    
C21   C31   A    
C1    O1    A    
C22   C32   A    
C20   H12   S    
C35   C37   A    
C3    C7    A    
N8    C58   S    
C49   N6    S    
C40   C50   A    
C50   N5    S    
C45   C51   S    
C15   C16   A    
C46   C52   S    
C33   C36   A    
C34   C35   A    
C45   C47   A    
C41   H1    S    
C42   H2    S    
C7    H14   S    
C11   C15   A    
C18   H4    S    
C12   C16   A    
C16   C17   A    
C43   H38   S    
C32   C38   A    
C5    C13   A    
C27   N1    A    
Cu2   O7    S    
C44   H37   S    
C40   C42   A    
N6    C56   S    
C41   C43   A    
Cu1   O5    S    
C42   C44   A    
C2    O2    A    
Cu1   N2    S    
C53   H17   S    
C44   C46   A    
C55   H28   S    
C35   H25   S    
C46   C48   A    
C30   C34   A    
N4    C54   S    
C51   C52   D    
C14   C20   A    
N7    C57   S    
C55   H29   S    
C5    C7    A    
C13   C19   A    
C24   O6    A    
C6    C8    A    
N4    H19   S    
C31   C37   A    
C1    C3    S    
C2    C4    S    
C3    C9    A    
C27   H8    S    
C6    C14   A    
Cu2   O3    S    
C43   C45   A    
C25   N4    S    
C33   C34   A    
C10   N7    S    
C56   H33   S    
C23   O7    A    
C9    C11   A    
C37   H5    S    
C58   H45   S    
C10   C12   A    
C38   H6    S    
C24   O8    A    
C39   C49   A    
C12   C14   A    
C47   H35   S    
C54   H21   S    
C26   N2    A    
Cu2   O6    S    
C25   N1    A    
C4    C10   A    
Cu1   O1    S    
C55   H30   S    
N3    C53   S    
C57   H40   S    
C21   H23   S    
C58   H46   S    
C21   C25   A    
C24   C40   S    
N7    H39   S    
C28   N2    A    
C51   H10   S    
C23   O5    A    
C52   H9    S    
C2    O4    A    
C58   H44   S    
N5    C55   S    
C47   C49   A    
C5    H47   S    
C26   N3    S    
C1    O3    A    
C57   H42   S    
C36   C38   A    
Cu1   O8    S    
C28   C30   A    
C29   C31   A    
N8    H43   S    
C28   H7    S    
C30   C32   A    
C11   C13   A    
C48   H36   S    
Cu2   N1    S    
C23   C39   S    
C48   C50   A    
C17   C19   A    
C19   H11   S    
C56   H34   S    
C18   C20   A    
N3    H15   S    
C36   H26   S    
Cu2   O2    S    
C8    H13   S    
C22   C26   A    
C54   H22   S    
C56   H32   S    
C22   H24   S    
C17   H3    S    
C57   H41   S    
Cu1   O4    S    
