data_mof_unit_62615.cif
_audit_creation_date              2012-12-11T15:59:36-0500
_audit_creation_method            fapswitch 2.2
_symmetry_space_group_name_H-M    P1
_symmetry_Int_Tables_number       1
_space_group_crystal_system       triclinic
_cell_length_a                    6.984771
_cell_length_b                    20.118267
_cell_length_c                    21.727449
_cell_angle_alpha                 92.831705
_cell_angle_beta                  89.047099
_cell_angle_gamma                 90.630184
_cell_volume                      3048.865338

loop_
_atom_site_label
_atom_site_type_symbol
_atom_type_description
_atom_site_fract_x
_atom_site_fract_y
_atom_site_fract_z
_atom_type_partial_charge
O1    O     O_R   0.505910 0.557140 0.441630 -0.518667
O2    O     O_R   0.175760 0.566370 0.557960 -0.522136
O3    O     O_R   0.005440 0.442860 0.558370 -0.529873
C1    C     C_R   0.344283 0.584112 0.580616 0.717906
O4    O     O_R   0.176200 0.564760 0.442040 -0.520188
O5    O     O_R   0.005880 0.441250 0.441620 -0.519812
C2    C     C_R   0.346972 0.582461 0.419644 0.701863
O6    O     O_R   0.505470 0.558750 0.558380 -0.518606
O7    O     O_3   0.339200 0.459480 0.500000 -0.354953
V1    V     V_3+5 0.064350 0.507520 0.500000 1.409599
O8    O     O_R   0.676160 0.433630 0.442040 -0.522508
C3    C     C_R   0.845503 0.415509 0.419916 0.716101
O9    O     O_R   0.675730 0.435240 0.557960 -0.534445
C4    C     C_R   0.842657 0.420352 0.577485 0.745996
V2    V     V_3+5 0.564340 0.492480 0.500000 1.408141
O10   O     O_3   0.839360 0.540520 0.500000 -0.356716
C5    C     C_3   0.089571 0.276472 0.721312 -0.350245
C6    C     C_3   0.776767 0.316117 0.770018 -0.343834
C7    C     C_3   0.795530 0.266281 0.821447 -0.386379
H1    H     H_    0.169114 0.261332 0.814482 0.099998
H2    H     H_    0.163641 0.324727 0.732751 0.121603
H3    H     H_    0.622455 0.325224 0.761908 0.143728
H4    H     H_    0.843835 0.364547 0.785066 0.144982
H5    H     H_    0.868433 0.291046 0.861727 0.142722
H6    H     H_    0.650124 0.251028 0.837621 0.148778
C8    C     C_1   0.930740 0.119441 0.883915 -0.204235
C9    C     C_3   0.875032 0.288222 0.709803 0.285110
C10   C     C_3   0.111512 0.229634 0.775306 -0.018494
C11   C     C_3   0.910010 0.204585 0.796659 0.296448
C12   C     C_3   0.795449 0.172383 0.742328 -0.342631
C13   C     C_3   0.781249 0.220940 0.689790 -0.343721
C14   C     C_1   0.923795 0.158303 0.844797 -0.106427
C15   C     C_1   0.857220 0.334712 0.662058 -0.097337
C16   C     C_1   0.848182 0.373675 0.623060 -0.199067
H7    H     H_    0.854806 0.199303 0.647724 0.139185
H8    H     H_    0.629478 0.228196 0.677578 0.139995
H9    H     H_    0.850766 0.124123 0.724218 0.134222
H10   H     H_    0.158869 0.255240 0.678309 0.146741
H11   H     H_    0.652677 0.159385 0.760283 0.154024
C17   C     C_1   0.921663 0.130463 0.138345 -0.214010
C18   C     C_1   0.910208 0.173832 0.181138 -0.000291
C19   C     C_1   0.895598 0.225027 0.232020 -0.001360
C20   C     C_1   0.883055 0.268170 0.274977 -0.001324
C21   C     C_1   0.868446 0.319365 0.325859 -0.000177
C22   C     C_1   0.856994 0.362734 0.368652 -0.213831
C23   C     C_1   0.354630 0.635408 0.633609 -0.218006
C24   C     C_1   0.366551 0.677052 0.678054 0.000583
C25   C     C_1   0.382458 0.726038 0.731098 -0.003091
C26   C     C_1   0.396224 0.767209 0.775851 -0.002859
C27   C     C_1   0.412133 0.816171 0.828912 0.001118
C28   C     C_1   0.424056 0.857781 0.873382 -0.217509
C29   C     C_1   0.360663 0.633841 0.368178 -0.208245
C30   C     C_1   0.371460 0.675705 0.325724 0.011433
C31   C     C_1   0.384188 0.725690 0.274800 -0.003453
C32   C     C_1   0.394785 0.767431 0.232234 -0.003450
C33   C     C_1   0.407504 0.817417 0.181311 0.011441
C34   C     C_1   0.418278 0.859282 0.138857 -0.208125
O11   O     O_R   0.273200 0.934350 0.948680 -0.518457
O12   O     O_R   0.602630 0.928390 0.064980 -0.520064
O13   O     O_R   0.772790 0.051930 0.065390 -0.519782
C35   C     C_R   0.431891 0.910666 0.087394 0.702345
O14   O     O_R   0.602920 0.926780 0.949060 -0.522212
O15   O     O_R   0.773080 0.050310 0.948640 -0.530161
C36   C     C_R   0.434397 0.909039 0.926405 0.718199
O16   O     O_R   0.272900 0.935970 0.065430 -0.518685
O17   O     O_3   0.439420 0.033650 0.007040 -0.355301
V3    V     V_3+5 0.714330 0.985650 0.007020 1.408644
O18   O     O_R   0.102790 0.057980 0.949020 -0.534915
C37   C     C_R   0.935847 0.072842 0.929526 0.747555
O19   O     O_R   0.102500 0.059590 0.064940 -0.522591
C38   C     C_R   0.933160 0.077688 0.087081 0.716123
V4    V     V_3+5 0.214320 0.000760 0.006970 1.406926
O20   O     O_3   0.939360 0.952680 0.006990 -0.356520
C39   C     C_3   0.268673 0.176833 0.762143 -0.375459
C40   C     C_3   0.217916 0.117606 0.717720 -0.280330
C41   C     C_3   0.394114 0.078799 0.695285 -0.804372
H12   H     H_    0.489743 0.110467 0.667524 0.231654
H13   H     H_    0.472796 0.060398 0.734953 0.228808
H14   H     H_    0.348710 0.035168 0.665552 0.223862
H15   H     H_    0.124728 0.082282 0.742373 0.195159
H16   H     H_    0.144737 0.135065 0.676637 0.197861
H17   H     H_    0.389829 0.204591 0.742407 0.176890
H18   H     H_    0.316288 0.157459 0.806395 0.169113

loop_
_geom_bond_atom_site_label_1
_geom_bond_atom_site_label_2
_ccdc_geom_bond_type
C32   C33   S    
C8    C14   T    
C17   C38   S    
C18   C19   S    
C41   H14   S    
C39   H18   S    
C1    O6    A    
C10   C39   S    
C1    C23   S    
C30   C31   S    
C9    C15   S    
O14   V3    S    
C10   C11   S    
C41   H13   S    
C2    C29   S    
C11   C14   S    
O5    C3    A    
C12   C13   S    
V2    O10   S    
C33   C34   T    
C6    C7    S    
O14   C36   A    
O12   V3    S    
C23   C24   T    
O8    V2    S    
O17   V4    S    
O15   C37   A    
O13   V3    S    
O18   C37   A    
O19   C38   A    
V3    O20   S    
O7    V1    S    
O17   V3    S    
O1    C2    A    
O9    C4    A    
C39   H17   S    
C15   C16   T    
O11   C36   A    
O15   V3    S    
O12   C35   A    
C39   C40   S    
C6    C9    S    
C9    C13   S    
C6    H4    S    
C5    C9    S    
C41   H12   S    
O4    C2    A    
C3    C22   S    
H1    C10   S    
O13   C38   A    
C5    H2    S    
C12   H9    S    
O2    C1    A    
C40   C41   S    
O5    V1    S    
C11   C12   S    
C24   C25   S    
O18   V4    S    
C27   C28   T    
C29   C30   T    
O3    C4    A    
O1    V2    S    
C25   C26   T    
O6    V2    S    
O9    V2    S    
C20   C21   S    
C13   H7    S    
C19   C20   T    
O2    V1    S    
C21   C22   T    
C40   H15   S    
C31   C32   T    
C17   C18   T    
C6    H3    S    
C5    C10   S    
C40   H16   S    
C28   C36   S    
V4    O20   S    
C4    C16   S    
O8    C3    A    
C34   C35   S    
O16   V4    S    
C7    H5    S    
O7    V2    S    
O4    V1    S    
O3    V1    S    
V1    O10   S    
O11   V4    S    
C12   H11   S    
C5    H10   S    
C7    H6    S    
C35   O16   A    
C26   C27   S    
C8    C37   S    
C13   H8    S    
O19   V4    S    
C7    C11   S    
