data_mof_unit_7948.cif
_audit_creation_date              2012-12-10T18:04:03-0500
_audit_creation_method            fapswitch 2.2
_symmetry_space_group_name_H-M    P1
_symmetry_Int_Tables_number       1
_space_group_crystal_system       triclinic
_cell_length_a                    10.844992
_cell_length_b                    9.61789
_cell_length_c                    10.960664
_cell_angle_alpha                 90.002712
_cell_angle_beta                  96.524397
_cell_angle_gamma                 90.01023
_cell_volume                      1135.85807505

loop_
_atom_site_label
_atom_site_type_symbol
_atom_type_description
_atom_site_fract_x
_atom_site_fract_y
_atom_site_fract_z
_atom_type_partial_charge
C1    C     C_R   0.263118 0.499549 0.506793 0.835798
C2    C     C_R   0.736883 0.499574 0.493232 0.835490
C3    C     C_R   0.415377 0.075139 0.423063 0.062306
C4    C     C_R   0.584607 0.075179 0.576955 0.062422
C5    C     C_R   0.407425 0.927192 0.431149 0.014757
C6    C     C_R   0.592565 0.927236 0.568865 0.014382
C7    C     C_R   0.495839 0.500434 0.262310 0.828063
C8    C     C_R   0.504150 0.500436 0.737688 0.828122
C9    C     C_R   0.490468 0.624097 0.060399 0.052183
C10   C     C_R   0.509496 0.624100 0.939595 0.052062
C11   C     C_R   0.492412 0.501175 0.128951 -0.084620
C12   C     C_R   0.507591 0.501177 0.871048 -0.084784
C13   C     C_R   0.498358 0.375197 0.063829 -0.137816
C14   C     C_R   0.501703 0.375196 0.936176 -0.137667
C15   C     C_3   0.516623 0.780685 0.932407 -0.148644
C16   C     C_3   0.483074 0.780676 0.067502 -0.148397
C17   C     C_R   0.064232 0.370134 0.517914 -0.070908
C18   C     C_R   0.935671 0.370208 0.481964 -0.070114
C19   C     C_R   0.870910 0.497542 0.487046 -0.125638
C20   C     C_R   0.129096 0.497477 0.513054 -0.125487
C21   C     C_R   0.936168 0.623033 0.496329 -0.144855
C22   C     C_R   0.063920 0.623008 0.504008 -0.144971
Cu1   Cu    Cu3+1 0.500000 0.640660 0.500000 1.002224
Cu2   Cu    Cu3+1 0.500000 0.359340 0.500000 1.042685
H1    H     H_    0.500497 0.276214 0.110677 0.185312
H2    H     H_    0.499581 0.276210 0.889331 0.185219
H3    H     H_    0.888550 0.721647 0.493956 0.206638
H4    H     H_    0.111602 0.721618 0.506518 0.206450
N1    N     N_R   0.500000 0.852070 0.500000 -0.231826
N2    N     N_R   0.500000 0.147940 0.500000 -0.229002
O1    O     O_R   0.319640 0.618740 0.499990 -0.582627
O2    O     O_R   0.680360 0.618740 0.500010 -0.582476
O3    O     O_R   0.319620 0.381170 0.499990 -0.548787
O4    O     O_R   0.680380 0.381170 0.500010 -0.549165
O5    O     O_R   0.499990 0.618810 0.319660 -0.564678
O6    O     O_R   0.500010 0.618810 0.680340 -0.564716
O7    O     O_R   0.499960 0.381240 0.319650 -0.595816
O8    O     O_R   0.500040 0.381240 0.680350 -0.595433
C23   C     C_2   0.646475 0.834471 0.922599 0.506239
H5    H     H_    0.659552 0.938028 0.887091 0.081522
O9    O     O_2   0.737851 0.765853 0.960164 -0.523350
C24   C     C_2   0.353130 0.834161 0.077261 0.505867
H6    H     H_    0.339873 0.937766 0.112587 0.081922
O10   O     O_2   0.261878 0.765224 0.039865 -0.523460
C25   C     C_2   0.420517 0.842446 0.836308 0.364857
H7    H     H_    0.350111 0.776835 0.787046 0.127393
O11   O     O_2   0.417545 0.967564 0.817157 -0.583601
C26   C     C_2   0.579068 0.842730 0.163570 0.364862
H8    H     H_    0.649530 0.777335 0.212920 0.127600
O12   O     O_2   0.581876 0.967848 0.182611 -0.584227
C27   C     C_2   0.125146 0.249439 0.585475 0.978370
O13   O     O_2   0.187143 0.269459 0.684333 -0.575734
O14   O     O_R   0.114175 0.114962 0.538168 -0.637312
H9    H     H_    0.159952 0.043897 0.594779 0.354367
C28   C     C_2   0.874670 0.249847 0.413956 0.978451
O15   O     O_2   0.813753 0.270165 0.314582 -0.575929
O16   O     O_R   0.884084 0.115437 0.461551 -0.637076
H10   H     H_    0.838232 0.044629 0.404698 0.354047
C29   C     C_2   0.339923 0.148905 0.322651 0.485951
H11   H     H_    0.376174 0.161852 0.235450 0.044551
O17   O     O_2   0.235505 0.189856 0.334072 -0.493231
C30   C     C_2   0.659972 0.148961 0.677446 0.486692
H12   H     H_    0.623692 0.161708 0.764648 0.043967
O18   O     O_2   0.764352 0.190139 0.666090 -0.492674
C31   C     C_2   0.292144 0.860610 0.370713 0.821584
O19   O     O_2   0.191605 0.913437 0.381871 -0.549606
O20   O     O_R   0.295426 0.741645 0.299209 -0.726418
H13   H     H_    0.209578 0.706322 0.267501 0.351430
C32   C     C_2   0.707846 0.860713 0.629316 0.821569
O21   O     O_2   0.808369 0.913613 0.618206 -0.549231
O22   O     O_R   0.704574 0.741740 0.700801 -0.726430
H14   H     H_    0.790420 0.706501 0.732573 0.351351

loop_
_geom_bond_atom_site_label_1
_geom_bond_atom_site_label_2
_ccdc_geom_bond_type
C6    N1    A    
C3    N2    A    
Cu2   O8    S    
C28   O15   D    
C30   H12   S    
C16   C24   S    
C6    C32   S    
C11   C13   A    
C9    C10   A    
Cu1   O5    S    
Cu2   O3    S    
C31   O20   S    
C8    C12   S    
C15   C23   S    
Cu1   O2    S    
C17   C27   S    
C26   O12   D    
Cu2   O7    S    
C21   H3    S    
C1    O3    A    
C29   H11   S    
C23   O9    D    
C22   H4    S    
O14   H9    S    
C14   H2    S    
C7    C11   S    
C9    C11   A    
C13   H1    S    
O16   H10   S    
C24   O10   D    
C8    O8    A    
C18   C28   S    
C15   C16   S    
Cu1   N1    S    
C5    C31   S    
C26   H8    S    
C19   C21   A    
C9    C16   S    
C12   C14   A    
C17   C18   A    
C5    N1    A    
C10   C15   S    
C28   O16   S    
C7    O7    A    
C32   O21   D    
C10   C12   A    
Cu2   N2    S    
C25   H7    S    
C4    C6    A    
C29   O17   D    
C24   H6    S    
C15   C25   S    
Cu1   Cu2   S    
O20   H13   S    
Cu1   O6    S    
C4    C30   S    
C1    O1    A    
C17   C20   A    
O22   H14   S    
C16   C26   S    
C2    O2    A    
C31   O19   D    
C8    O6    A    
C25   O11   D    
C23   H5    S    
C32   O22   S    
Cu2   O4    S    
C18   C19   A    
C1    C20   S    
C30   O18   D    
C13   C14   A    
C3    C5    A    
C2    O4    A    
C21   C22   A    
C7    O5    A    
C4    N2    A    
C27   O13   D    
C2    C19   S    
C20   C22   A    
C27   O14   S    
Cu1   O1    S    
C3    C29   S    
