data_mof_unit_14916.cif
_audit_creation_date              2012-12-11T14:24:44-0500
_audit_creation_method            fapswitch 2.2
_symmetry_space_group_name_H-M    P1
_symmetry_Int_Tables_number       1
_space_group_crystal_system       triclinic
_cell_length_a                    19.152246
_cell_length_b                    11.020953
_cell_length_c                    18.797483
_cell_angle_alpha                 90.552608
_cell_angle_beta                  90.349298
_cell_angle_gamma                 88.992635
_cell_volume                      3966.83013058

loop_
_atom_site_label
_atom_site_type_symbol
_atom_type_description
_atom_site_fract_x
_atom_site_fract_y
_atom_site_fract_z
_atom_type_partial_charge
C1    C     C_R   0.714679 0.333123 0.138303 0.570831
C2    C     C_R   0.285474 0.334191 0.861031 0.569905
C3    C     C_R   0.214679 0.833128 0.138303 0.570779
C4    C     C_R   0.785478 0.834179 0.861030 0.569962
C5    C     C_3   0.475318 0.060574 0.028563 0.222780
C6    C     C_3   0.528727 0.060472 0.968879 0.222093
C7    C     C_3   0.975434 0.560486 0.028526 0.222780
C8    C     C_3   0.028845 0.560568 0.968843 0.221967
C9    C     C_R   0.772815 0.849910 0.938600 -0.026641
C10   C     C_R   0.227840 0.849980 0.060898 -0.027314
C11   C     C_R   0.272811 0.349934 0.938600 -0.026644
C12   C     C_R   0.727840 0.349971 0.060898 -0.027447
C13   C     C_R   0.714470 0.803558 0.977638 -0.109341
C14   C     C_R   0.286775 0.802129 0.021416 -0.111335
C15   C     C_R   0.214470 0.303572 0.977638 -0.109232
C16   C     C_R   0.786776 0.302119 0.021416 -0.111902
C17   C     C_R   0.713466 0.819494 0.052807 -0.046910
C18   C     C_R   0.288340 0.819605 0.946481 -0.044241
C19   C     C_R   0.213467 0.319497 0.052808 -0.046852
C20   C     C_R   0.788340 0.319599 0.946481 -0.044374
C21   C     C_R   0.818565 0.933272 0.048105 -0.069209
C22   C     C_R   0.181842 0.936131 0.952043 -0.068331
C23   C     C_R   0.318576 0.433255 0.048113 -0.069456
C24   C     C_R   0.681853 0.436149 0.952049 -0.068124
C25   C     C_R   0.826823 0.904121 0.977388 0.347705
C26   C     C_R   0.173624 0.907036 0.022525 0.354970
C27   C     C_R   0.326820 0.404148 0.977388 0.347538
C28   C     C_R   0.673627 0.407030 0.022526 0.355148
C29   C     C_R   0.657130 0.742372 0.947090 -0.128134
C30   C     C_R   0.343854 0.736921 0.051346 -0.137696
C31   C     C_R   0.157129 0.242387 0.947087 -0.127884
C32   C     C_R   0.843855 0.236910 0.051344 -0.138422
C33   C     C_R   0.105126 0.194015 0.989542 0.518325
C34   C     C_R   0.895559 0.184130 0.008258 0.525604
C35   C     C_R   0.605130 0.693994 0.989548 0.518285
C36   C     C_R   0.395562 0.684149 0.008263 0.525698
C37   C     C_R   0.609904 0.697904 0.063374 0.364334
C38   C     C_R   0.390964 0.689227 0.934419 0.368874
C39   C     C_R   0.109898 0.197920 0.063368 0.364451
C40   C     C_R   0.890951 0.189183 0.934414 0.368782
C41   C     C_R   0.665600 0.757088 0.094503 -0.143540
C42   C     C_R   0.336476 0.755031 0.904019 -0.146019
C43   C     C_R   0.165598 0.257092 0.094500 -0.143459
C44   C     C_R   0.836469 0.255011 0.904016 -0.146042
C45   C     C_R   0.535293 0.154530 0.143231 0.584637
C46   C     C_R   0.466005 0.154675 0.856107 0.585013
C47   C     C_R   0.035310 0.654526 0.143221 0.585276
C48   C     C_R   0.966022 0.654680 0.856098 0.584975
C49   C     C_R   0.760208 0.898958 0.085113 -0.051144
C50   C     C_R   0.240947 0.900668 0.914896 -0.051999
C51   C     C_R   0.260214 0.398948 0.085117 -0.051185
C52   C     C_R   0.740952 0.400675 0.914899 -0.051978
C53   C     C_R   0.448086 0.144478 0.563166 0.001779
C54   C     C_R   0.506357 0.158092 0.427307 0.011153
C55   C     C_R   0.948084 0.644474 0.563165 0.001788
C56   C     C_R   0.006353 0.658090 0.427305 0.011162
C57   C     C_R   0.482710 0.040558 0.533136 0.029232
C58   C     C_R   0.521944 0.057657 0.472203 0.023306
C59   C     C_R   0.982711 0.540556 0.533137 0.029249
C60   C     C_R   0.021945 0.557659 0.472203 0.023312
C61   C     C_R   0.456858 0.245200 0.449336 -0.143608
C62   C     C_R   0.431610 0.242935 0.519084 -0.149783
C63   C     C_R   0.956849 0.745190 0.449333 -0.143596
C64   C     C_R   0.931601 0.742925 0.519081 -0.149790
C65   C     C_R   0.482297 0.921097 0.562268 -0.101761
C66   C     C_R   0.573504 0.969206 0.456234 -0.082066
C67   C     C_R   0.982304 0.421096 0.562270 -0.101759
C68   C     C_R   0.073508 0.469215 0.456235 -0.082060
C69   C     C_R   0.025317 0.328887 0.536996 -0.161439
C70   C     C_R   0.069515 0.352137 0.482030 -0.124544
C71   C     C_R   0.525308 0.828884 0.536995 -0.161438
C72   C     C_R   0.569507 0.852130 0.482030 -0.124552
C73   C     C_R   0.751355 0.905026 0.571520 -0.007059
C74   C     C_R   0.222100 0.870518 0.435531 0.045477
C75   C     C_R   0.251354 0.405021 0.571520 -0.007052
C76   C     C_R   0.722099 0.370509 0.435533 0.045462
C77   C     C_R   0.784475 0.005065 0.542551 -0.022984
C78   C     C_R   0.163961 0.887558 0.482131 -0.018996
C79   C     C_R   0.284464 0.505071 0.542555 -0.022981
C80   C     C_R   0.663958 0.387569 0.482130 -0.018986
C81   C     C_R   0.803565 0.998384 0.471237 0.012968
C82   C     C_R   0.176668 0.888262 0.555704 0.024443
C83   C     C_R   0.303557 0.498400 0.471241 0.012971
C84   C     C_R   0.676660 0.388273 0.555704 0.024449
C85   C     C_R   0.730919 0.824092 0.452085 -0.117238
C86   C     C_R   0.299694 0.915035 0.531327 -0.121141
C87   C     C_R   0.230926 0.324088 0.452084 -0.117246
C88   C     C_R   0.799693 0.414983 0.531336 -0.121166
C89   C     C_R   0.743555 0.965549 0.150944 0.533280
C90   C     C_R   0.256811 0.965693 0.849188 0.531473
C91   C     C_R   0.243556 0.465545 0.150947 0.533238
C92   C     C_R   0.756812 0.465694 0.849189 0.531442
C93   C     C_R   0.725490 0.811913 0.525284 0.200728
C94   C     C_R   0.290128 0.890920 0.460104 0.240833
C95   C     C_R   0.225497 0.311903 0.525282 0.200721
C96   C     C_R   0.790127 0.390877 0.460112 0.240830
C97   C     C_R   0.809042 0.101044 0.585385 -0.083428
C98   C     C_R   0.095161 0.917521 0.459219 -0.098043
C99   C     C_R   0.309020 0.601055 0.585392 -0.083435
C100  C     C_R   0.595160 0.417546 0.459214 -0.098027
C101  C     C_R   0.864501 0.169097 0.562670 -0.122949
C102  C     C_R   0.042893 0.944786 0.508386 -0.128357
C103  C     C_R   0.364470 0.669132 0.562678 -0.122958
C104  C     C_R   0.542892 0.444827 0.508378 -0.128357
C105  C     C_R   0.891410 0.150505 0.494860 -0.129410
C106  C     C_R   0.053835 0.923438 0.580097 -0.092330
C107  C     C_R   0.391382 0.650552 0.494869 -0.129422
C108  C     C_R   0.553829 0.423481 0.580090 -0.092327
C109  C     C_R   0.861920 0.065424 0.449693 -0.067776
C110  C     C_R   0.120003 0.889581 0.603610 -0.066202
C111  C     C_R   0.361905 0.565460 0.449701 -0.067788
C112  C     C_R   0.619993 0.389610 0.603606 -0.066185
C113  C     C_R   0.764293 0.922889 0.424798 -0.049481
C114  C     C_R   0.245045 0.907671 0.579333 -0.010775
C115  C     C_R   0.264293 0.422896 0.424799 -0.049482
C116  C     C_R   0.745040 0.407657 0.579337 -0.010799
C117  C     C_R   0.712076 0.335941 0.361939 0.571159
C118  C     C_R   0.269829 0.374805 0.644539 0.540262
C119  C     C_R   0.212077 0.835942 0.361939 0.571163
C120  C     C_R   0.769828 0.874808 0.644539 0.540267
C121  C     C_R   0.534704 0.156944 0.354710 0.530294
C122  C     C_R   0.433548 0.150619 0.640009 0.560957
C123  C     C_R   0.034702 0.656944 0.354709 0.530327
C124  C     C_R   0.933548 0.650618 0.640009 0.560960
C125  C     C_R   0.744999 0.968867 0.354687 0.521259
C126  C     C_R   0.256834 0.966027 0.646525 0.549161
C127  C     C_R   0.244999 0.468869 0.354687 0.521243
C128  C     C_R   0.756833 0.466023 0.646527 0.549173
C129  C     C_3   0.527339 0.256683 0.969692 0.451169
C130  C     C_3   0.474412 0.256885 0.030755 0.450513
C131  C     C_3   0.027292 0.756791 0.969706 0.451322
C132  C     C_3   0.974365 0.756806 0.030769 0.450457
C133  C     C_3   0.572258 0.157676 0.007366 -0.201209
C134  C     C_3   0.430642 0.159283 0.991717 -0.194293
C135  C     C_3   0.072294 0.657860 0.007355 -0.201303
C136  C     C_3   0.930673 0.659123 0.991706 -0.195060
C137  C     C_3   0.517077 0.157832 0.067752 -0.031477
C138  C     C_3   0.485689 0.159091 0.931226 -0.026874
C139  C     C_3   0.017111 0.657824 0.067738 -0.030765
C140  C     C_3   0.985722 0.659113 0.931214 -0.026888
Cr1   Cr    Cr6+3 0.772820 0.169820 0.252640 1.050013
Cr2   Cr    Cr6+3 0.227180 0.169820 0.747360 1.022607
Cr3   Cr    Cr6+3 0.272820 0.669820 0.252640 1.049873
Cr4   Cr    Cr6+3 0.727180 0.669820 0.747360 1.022592
Cr5   Cr    Cr6+3 0.615040 0.323610 0.249150 1.071340
Cr6   Cr    Cr6+3 0.384960 0.323610 0.750850 1.070399
Cr7   Cr    Cr6+3 0.115040 0.823610 0.249150 1.071340
Cr8   Cr    Cr6+3 0.884960 0.823610 0.750850 1.070305
Cr9   Cr    Cr6+3 0.616720 0.011130 0.250660 1.020700
Cr10  Cr    Cr6+3 0.383280 0.011130 0.749340 1.002491
Cr11  Cr    Cr6+3 0.116720 0.511130 0.250660 1.020917
Cr12  Cr    Cr6+3 0.883280 0.511130 0.749340 1.002515
H1    H     H_    0.629846 0.154935 0.014339 0.109951
H2    H     H_    0.373082 0.157487 0.984866 0.112885
H3    H     H_    0.129884 0.655234 0.014329 0.109832
H4    H     H_    0.873114 0.657243 0.984850 0.112611
H5    H     H_    0.441462 0.318667 0.414425 0.116742
H6    H     H_    0.400380 0.318491 0.538969 0.137023
H7    H     H_    0.941450 0.818653 0.414421 0.116750
H8    H     H_    0.900368 0.818477 0.538966 0.137022
H9    H     H_    0.446849 0.893205 0.602450 0.146321
H10   H     H_    0.615703 0.990397 0.422818 0.164424
H11   H     H_    0.946860 0.393200 0.602455 0.146323
H12   H     H_    0.115707 0.490411 0.422819 0.164409
H13   H     H_    0.023600 0.238881 0.559505 0.117401
H14   H     H_    0.099848 0.278614 0.459502 0.149862
H15   H     H_    0.523587 0.738879 0.559504 0.117406
H16   H     H_    0.599838 0.778603 0.459502 0.149867
H17   H     H_    0.707314 0.758629 0.416382 0.146329
H18   H     H_    0.349319 0.947558 0.548608 0.107891
H19   H     H_    0.207326 0.258621 0.416379 0.146329
H20   H     H_    0.849322 0.447475 0.548620 0.107897
H21   H     H_    0.789655 0.116418 0.638815 0.123868
H22   H     H_    0.080380 0.930120 0.404677 0.163386
H23   H     H_    0.289631 0.616418 0.638822 0.123861
H24   H     H_    0.580380 0.430139 0.404672 0.163381
H25   H     H_    0.886893 0.233394 0.598973 0.100587
H26   H     H_    0.992433 0.976422 0.490192 0.106989
H27   H     H_    0.386850 0.733440 0.598982 0.100604
H28   H     H_    0.492434 0.476472 0.490181 0.106975
H29   H     H_    0.934646 0.201471 0.475853 0.129470
H30   H     H_    0.011705 0.937106 0.617565 0.140997
H31   H     H_    0.434609 0.701540 0.475862 0.129485
H32   H     H_    0.511698 0.437160 0.617555 0.140980
H33   H     H_    0.887894 0.048882 0.399526 0.144426
H34   H     H_    0.127989 0.876897 0.660167 0.127642
H35   H     H_    0.387885 0.548928 0.399535 0.144422
H36   H     H_    0.627976 0.376929 0.660163 0.127675
H37   H     H_    0.857775 0.985638 0.074597 0.253109
H38   H     H_    0.141729 0.988666 0.925827 0.252041
H39   H     H_    0.357793 0.485600 0.074610 0.253078
H40   H     H_    0.641742 0.488686 0.925834 0.252074
H41   H     H_    0.648887 0.730470 0.891153 0.195664
H42   H     H_    0.351118 0.723392 0.107227 0.193159
H43   H     H_    0.148884 0.230494 0.891150 0.195700
H44   H     H_    0.851120 0.223388 0.107226 0.193273
H45   H     H_    0.671646 0.752934 0.151692 0.126321
H46   H     H_    0.330864 0.752482 0.846732 0.116511
H47   H     H_    0.171643 0.252933 0.151689 0.126297
H48   H     H_    0.830858 0.252475 0.846728 0.116553
O1    O     O_R   0.788190 0.043000 0.172520 -0.535195
O2    O     O_R   0.211810 0.043000 0.827480 -0.538024
O3    O     O_R   0.288190 0.543000 0.172520 -0.535255
O4    O     O_R   0.711810 0.543000 0.827480 -0.538001
O5    O     O_R   0.556550 0.253260 0.323480 -0.540197
O6    O     O_R   0.443450 0.253260 0.676520 -0.507334
O7    O     O_R   0.056550 0.753260 0.323480 -0.540194
O8    O     O_R   0.943450 0.753260 0.676520 -0.507359
O9    O     O_R   0.545830 0.051610 0.330160 -0.512010
O10   O     O_R   0.454170 0.051610 0.669840 -0.533776
O11   O     O_R   0.045830 0.551610 0.330160 -0.511969
O12   O     O_R   0.954170 0.551610 0.669840 -0.533771
O13   O     O_R   0.681920 0.959720 0.327070 -0.531722
O14   O     O_R   0.318080 0.959720 0.672930 -0.551589
O15   O     O_R   0.181920 0.459720 0.327070 -0.531733
O16   O     O_R   0.818080 0.459720 0.672930 -0.551570
O17   O     O_3   0.668190 0.168190 0.250820 -0.320022
O18   O     O_3   0.331810 0.168190 0.749180 -0.305974
O19   O     O_3   0.168190 0.668190 0.250820 -0.320100
O20   O     O_3   0.831810 0.668190 0.749180 -0.305957
O21   O     O_R   0.766240 0.292300 0.176860 -0.522770
O22   O     O_R   0.233760 0.292300 0.823140 -0.536054
O23   O     O_R   0.266240 0.792300 0.176860 -0.522784
O24   O     O_R   0.733760 0.792300 0.823140 -0.536071
O25   O     O_R   0.670310 0.409160 0.168720 -0.431027
O26   O     O_R   0.329690 0.409160 0.831280 -0.440772
O27   O     O_R   0.170310 0.909160 0.168720 -0.431012
O28   O     O_R   0.829690 0.909160 0.831280 -0.440863
O29   O     O_R   0.556160 0.251900 0.173380 -0.438928
O30   O     O_R   0.443840 0.251900 0.826620 -0.434766
O31   O     O_R   0.056160 0.751900 0.173380 -0.439114
O32   O     O_R   0.943840 0.751900 0.826620 -0.434816
O33   O     O_R   0.545410 0.050140 0.168240 -0.485650
O34   O     O_R   0.454590 0.050140 0.831760 -0.487438
O35   O     O_R   0.045410 0.550140 0.168240 -0.484975
O36   O     O_R   0.954590 0.550140 0.831760 -0.487382
O37   O     O_R   0.681530 0.958350 0.176970 -0.501117
O38   O     O_R   0.318470 0.958350 0.823030 -0.504107
O39   O     O_R   0.181530 0.458350 0.176970 -0.501146
O40   O     O_R   0.818470 0.458350 0.823030 -0.504146
O41   O     O_R   0.788610 0.044480 0.334450 -0.525317
O42   O     O_R   0.211390 0.044480 0.665550 -0.484305
O43   O     O_R   0.288610 0.544480 0.334450 -0.525335
O44   O     O_R   0.711390 0.544480 0.665550 -0.484298
O45   O     O_R   0.766630 0.293670 0.326970 -0.415322
O46   O     O_R   0.233370 0.293670 0.673030 -0.487496
O47   O     O_R   0.266630 0.793670 0.326970 -0.415359
O48   O     O_R   0.733370 0.793670 0.673030 -0.487491
O49   O     O_R   0.670730 0.410640 0.330640 -0.543026
O50   O     O_R   0.329270 0.410640 0.669360 -0.541977
O51   O     O_R   0.170730 0.910640 0.330640 -0.543016
O52   O     O_R   0.829270 0.910640 0.669360 -0.541986
O53   O     O_3   0.695311 0.707724 0.549228 -0.678136
H49   H     H_    0.658594 0.732897 0.583435 0.348068
O54   O     O_3   0.345158 0.898859 0.413028 -0.660642
H50   H     H_    0.389011 0.914482 0.439500 0.322800
O55   O     O_3   0.195325 0.207707 0.549224 -0.678142
H51   H     H_    0.158605 0.232871 0.583429 0.348072
O56   O     O_3   0.845163 0.398794 0.413041 -0.660592
H52   H     H_    0.889016 0.414401 0.439516 0.322806
F1    F     F_    0.546229 0.358884 0.933744 -0.518061
F2    F     F_    0.454981 0.359006 0.068633 -0.520534
F3    F     F_    0.046100 0.859104 0.933809 -0.517657
F4    F     F_    0.954864 0.858834 0.068701 -0.520872
O57   O     O_3   0.449658 0.955533 0.059332 -0.622825
H53   H     H_    0.413498 0.984067 0.093468 0.320200
O58   O     O_3   0.555575 0.955762 0.935921 -0.629319
H54   H     H_    0.591493 0.984312 0.902544 0.315156
O59   O     O_3   0.949911 0.455346 0.059309 -0.622632
H55   H     H_    0.912923 0.483571 0.092541 0.320056
O60   O     O_3   0.055782 0.455949 0.935852 -0.629437
H56   H     H_    0.091692 0.484620 0.902499 0.315141
F5    F     F_    0.888984 0.928156 0.947180 -0.514147
F6    F     F_    0.111272 0.934258 0.052931 -0.508784
F7    F     F_    0.388976 0.428202 0.947176 -0.514193
F8    F     F_    0.611270 0.434237 0.052928 -0.508681
F9    F     F_    0.052766 0.133748 0.957958 -0.466589
F10   F     F_    0.946874 0.117329 0.038858 -0.448468
F11   F     F_    0.552775 0.633708 0.957969 -0.466575
F12   F     F_    0.446878 0.617358 0.038865 -0.448543
O61   O     O_3   0.060393 0.142030 0.103999 -0.480193
H57   H     H_    0.071452 0.153954 0.155178 0.304799
O62   O     O_3   0.938914 0.126585 0.892981 -0.475568
H58   H     H_    0.928037 0.139782 0.841966 0.298566
O63   O     O_3   0.560403 0.642005 0.104007 -0.480241
H59   H     H_    0.571462 0.653936 0.155186 0.304766
O64   O     O_3   0.438938 0.626660 0.892988 -0.475548
H60   H     H_    0.428134 0.640068 0.841969 0.298467

loop_
_geom_bond_atom_site_label_1
_geom_bond_atom_site_label_2
_ccdc_geom_bond_type
C99   C103  A    
C40   O62   S    
C5    O57   S    
C55   C59   A    
C122  O6    A    
C73   C93   A    
C136  C140  S    
C75   C95   A    
C133  C137  S    
C84   C112  A    
C79   C99   A    
C8    O60   S    
C5    C6    S    
O60   H56   S    
C100  C104  A    
C1    O21   A    
C9    C13   A    
C131  C140  S    
Cr4   O4    S    
Cr7   O31   S    
C50   C90   S    
C66   C72   A    
C12   C16   A    
Cr2   O46   S    
Cr9   O37   S    
C22   H38   S    
C87   C115  A    
C32   H44   S    
C34   F10   S    
C59   C60   A    
Cr11  O15   S    
C124  O8    A    
C8    C135  S    
C130  C134  S    
C47   O35   A    
C68   H12   S    
Cr8   O52   S    
C97   H21   S    
C108  H32   S    
C56   C123  S    
C42   H46   S    
C118  O50   A    
C37   O63   S    
C109  H33   S    
C98   C102  A    
Cr5   O25   S    
C85   H17   S    
C32   C34   A    
C135  C139  S    
C78   C82   A    
C11   C27   A    
C16   C20   A    
C87   H19   S    
Cr9   O17   S    
C129  C133  S    
C47   O31   A    
C128  O44   A    
Cr11  O19   S    
C2    O26   A    
C27   F7    S    
C120  O52   A    
C45   O33   A    
C118  O46   A    
C5    C137  S    
Cr12  O36   S    
C54   C61   A    
C29   C35   A    
C30   C36   A    
C8    C140  S    
C4    O24   A    
C76   C96   A    
C31   H43   S    
C127  O15   A    
C96   O56   S    
C29   H41   S    
Cr4   O44   S    
C69   C70   A    
Cr9   O13   S    
Cr6   O18   S    
C65   H9    S    
C73   C77   A    
C103  C107  A    
C75   C79   A    
Cr1   O21   S    
C90   O2    A    
Cr3   O3    S    
C88   C116  A    
Cr8   O28   S    
C63   H7    S    
Cr5   O5    S    
C7    C8    S    
C30   H42   S    
C132  C139  S    
Cr12  O16   S    
C21   C25   A    
Cr1   O45   S    
Cr10  O10   S    
Cr5   O49   S    
Cr4   O20   S    
C53   C122  S    
C18   C42   A    
O53   H49   S    
C114  C126  S    
O55   H51   S    
C119  O47   A    
Cr2   O18   S    
C59   C67   A    
C85   C93   A    
C87   C95   A    
C126  O42   A    
C125  O13   A    
C122  O10   A    
C77   C97   A    
C90   O38   A    
C24   C28   A    
Cr1   O17   S    
C84   C116  A    
C71   H15   S    
C72   H16   S    
C1    C12   S    
C11   C15   A    
C2    C11   S    
C20   C44   A    
C131  F3    S    
C48   C140  S    
C83   C115  A    
C127  O43   A    
C41   H45   S    
C10   C14   A    
C17   C49   A    
Cr7   O27   S    
Cr2   O42   S    
Cr9   O33   S    
C119  O51   A    
C21   H37   S    
C132  C136  S    
Cr11  O35   S    
C54   C58   A    
C24   H40   S    
C128  O16   A    
C54   C121  S    
C44   H48   S    
C46   O34   A    
C74   C78   A    
C102  H26   S    
Cr3   O43   S    
C47   C139  S    
C129  C130  S    
Cr5   O29   S    
C133  H1    S    
C3    O23   A    
C86   H18   S    
C107  C111  A    
C76   C80   A    
O58   H54   S    
C15   C31   A    
C16   C32   A    
C22   C50   A    
C85   C113  A    
C7    C136  S    
C94   O54   S    
C57   C58   A    
C37   C41   A    
C61   C62   A    
C69   H13   S    
Cr3   O19   S    
C63   C64   A    
C67   H11   S    
C40   C44   A    
C99   H23   S    
O62   H58   S    
C120  O48   A    
C105  H29   S    
C4    C9    S    
O56   H52   S    
C24   C52   A    
C88   C96   A    
C74   C94   A    
C121  O5    A    
C80   C84   A    
C9    C25   A    
C15   C19   A    
Cr7   O51   S    
C12   C28   A    
Cr2   O2    S    
C13   C29   A    
Cr9   O9    S    
C6    C133  S    
C106  C110  A    
C93   O53   S    
C2    O22   A    
C66   H10   S    
C36   F12   S    
C25   F5    S    
C126  O14   A    
C51   C91   S    
C110  H34   S    
C100  H24   S    
C62   H6    S    
Cr8   O32   S    
C92   O4    A    
C132  F4    S    
Cr12  O12   S    
C73   C120  S    
O59   H55   S    
C46   O30   A    
C75   C118  S    
C129  F1    S    
C21   C49   A    
C19   C43   A    
C89   O37   A    
C117  O49   A    
C124  O12   A    
Cr1   O41   S    
C108  C112  A    
C134  C138  S    
O63   H59   S    
C61   H5    S    
O64   H60   S    
C77   C81   A    
C64   H8    S    
Cr8   O20   S    
C130  F2    S    
Cr11  O11   S    
C81   C109  A    
C83   C111  A    
C52   C92   S    
C131  C132  S    
C3    O27   A    
C104  C108  A    
C18   C50   A    
C1    O25   A    
C55   C124  S    
C53   C57   A    
C57   C65   A    
C117  O45   A    
Cr11  O39   S    
C111  H35   S    
C76   C117  S    
C36   C38   A    
Cr10  O34   S    
C79   C83   A    
C134  H2    S    
C105  C109  A    
C136  H4    S    
Cr3   O47   S    
C103  H27   S    
C4    O28   A    
C101  H25   S    
Cr8   O8    S    
C13   C17   A    
C56   C60   A    
C71   C72   A    
Cr5   O17   S    
C60   C68   A    
C22   C26   A    
C81   C113  A    
C6    O58   S    
C130  C137  S    
C91   O3    A    
C89   O1    A    
C88   H20   S    
C14   C18   A    
Cr6   O6    S    
C23   H39   S    
C115  C127  S    
C33   F9    S    
C74   C119  S    
C92   O40   A    
C33   C39   A    
C35   F11   S    
Cr6   O50   S    
C34   C40   A    
C82   C110  A    
C35   C37   A    
Cr1   O1    S    
C38   C42   A    
C131  C135  S    
C70   H14   S    
Cr3   O23   S    
C98   H22   S    
C28   F8    S    
C113  C125  S    
C135  H3    S    
C106  H30   S    
C86   C94   A    
C58   C66   A    
C129  C138  S    
Cr10  O38   S    
C123  O11   A    
C78   C98   A    
C31   C33   A    
C125  O41   A    
C23   C27   A    
O57   H53   S    
C46   C138  S    
C10   C26   A    
C80   C100  A    
C45   O29   A    
C14   C30   A    
C38   O64   S    
C101  C105  A    
C5    C134  S    
C7    O59   S    
C82   C114  A    
C26   F6    S    
C39   C43   A    
O61   H57   S    
C65   C71   A    
C107  H31   S    
C67   C69   A    
C6    C138  S    
C53   C62   A    
C23   C51   A    
Cr12  O40   S    
C55   C64   A    
C45   C137  S    
Cr10  O18   S    
C56   C63   A    
C123  O7    A    
Cr7   O7    S    
C48   O36   A    
C121  O9    A    
Cr4   O48   S    
O54   H50   S    
Cr6   O30   S    
C95   O55   S    
C49   C89   S    
C112  H36   S    
C86   C114  A    
C20   C52   A    
C3    C10   S    
C7    C139  S    
C104  H28   S    
C39   O61   S    
Cr12  O20   S    
C102  C106  A    
Cr10  O14   S    
C17   C41   A    
Cr4   O24   S    
Cr7   O19   S    
C48   O32   A    
C19   C51   A    
C68   C70   A    
C116  C128  S    
C91   O39   A    
C43   H47   S    
Cr6   O26   S    
Cr2   O22   S    
C97   C101  A    
