data_mof_unit_59374.cif
_audit_creation_date              2012-12-11T14:17:33-0500
_audit_creation_method            fapswitch 2.2
_symmetry_space_group_name_H-M    P1
_symmetry_Int_Tables_number       1
_space_group_crystal_system       triclinic
_cell_length_a                    6.942755
_cell_length_b                    13.630223
_cell_length_c                    20.453923
_cell_angle_alpha                 102.077162
_cell_angle_beta                  89.81129
_cell_angle_gamma                 90.536667
_cell_volume                      1892.65573517

loop_
_atom_site_label
_atom_site_type_symbol
_atom_type_description
_atom_site_fract_x
_atom_site_fract_y
_atom_site_fract_z
_atom_type_partial_charge
O1    O     O_R   0.506860 0.599390 0.449240 -0.542941
O2    O     O_R   0.180220 0.594600 0.586780 -0.546076
O3    O     O_R   0.004500 0.400610 0.550760 -0.546198
C1    C     C_R   0.348817 0.615829 0.613548 0.747374
O4    O     O_R   0.177490 0.611290 0.451970 -0.542259
O5    O     O_R   0.001750 0.417420 0.414990 -0.513565
C2    C     C_R   0.346863 0.637836 0.435097 0.694898
O6    O     O_R   0.509610 0.582580 0.585010 -0.539154
O7    O     O_3   0.337420 0.436370 0.488020 -0.362830
V1    V     V_3+5 0.064680 0.511800 0.502220 1.450678
O8    O     O_R   0.671710 0.405400 0.413220 -0.552768
C3    C     C_R   0.840500 0.385686 0.386221 0.761905
O9    O     O_R   0.674440 0.388710 0.548030 -0.530730
C4    C     C_R   0.842769 0.362178 0.564844 0.732248
V2    V     V_3+5 0.564010 0.488200 0.497780 1.449776
O10   O     O_3   0.841140 0.563630 0.511980 -0.379296
C5    C     C_R   0.910693 0.115133 0.613586 -0.140018
H1    H     H_    0.934691 0.168870 0.522758 0.120738
C6    C     C_R   0.851806 0.286144 0.605699 -0.020430
C7    C     C_R   0.878492 0.315298 0.928354 -0.167240
C8    C     C_R   0.894246 0.390673 0.892291 -0.121246
C9    C     C_R   0.889566 0.367139 0.822693 -0.160597
C10   C     C_R   0.860169 0.267364 0.787089 0.073169
C11   C     C_R   0.859684 0.189894 0.824149 0.036369
C12   C     C_R   0.850072 0.241508 0.715688 -0.018090
C13   C     C_R   0.880902 0.139573 0.683184 0.094384
C14   C     C_R   0.882195 0.063518 0.720457 0.198295
C15   C     C_R   0.864309 0.089128 0.789991 -0.231565
C16   C     C_R   0.812542 0.312219 0.674592 0.148453
C17   C     C_R   0.905036 0.188769 0.575920 -0.253672
C18   C     C_R   0.864261 0.215024 0.895018 -0.057679
H2    H     H_    0.885094 0.334828 0.982463 0.097172
H3    H     H_    0.919794 0.427683 0.797814 0.119108
H4    H     H_    0.915021 0.467750 0.918381 0.118017
H5    H     H_    0.863003 0.029270 0.817435 0.114423
C19   C     C_2   0.003122 0.281450 0.285690 0.225044
C20   C     C_2   0.845383 0.327240 0.316677 -0.299245
C21   C     C_2   0.998487 0.228812 0.213970 -0.253848
C22   C     C_2   0.856908 0.165687 0.184758 0.048622
H6    H     H_    0.125752 0.238117 0.184725 0.118984
C23   C     C_2   0.204603 0.788339 0.783386 -0.131700
C24   C     C_2   0.364601 0.816432 0.819692 -0.302735
H7    H     H_    0.065959 0.815399 0.804027 0.126061
H8    H     H_    0.504294 0.789826 0.800393 0.126107
C25   C     C_2   0.202751 0.720738 0.715635 -0.123540
C26   C     C_2   0.360710 0.683471 0.680432 -0.299976
H9    H     H_    0.061317 0.701410 0.693945 0.134124
H10   H     H_    0.503915 0.701788 0.700314 0.125253
C27   C     C_R   0.392732 0.888107 0.387025 -0.157730
H11   H     H_    0.389458 0.837835 0.479670 0.108318
H12   H     H_    0.412375 0.013217 0.303920 0.125258
H13   H     H_    0.410315 0.966077 0.411903 0.114149
C28   C     C_R   0.357878 0.714632 0.394905 -0.032715
C29   C     C_R   0.332519 0.685373 0.071851 -0.166893
C30   C     C_R   0.319398 0.609471 0.107611 -0.120158
C31   C     C_R   0.328166 0.631934 0.177208 -0.158215
C32   C     C_R   0.350535 0.732213 0.213187 0.079409
C33   C     C_R   0.364185 0.809765 0.176075 0.058807
C34   C     C_R   0.359684 0.758114 0.284585 0.072280
C35   C     C_R   0.382532 0.860590 0.317001 0.136005
C36   C     C_R   0.395219 0.934999 0.279485 -0.196960
C37   C     C_R   0.386121 0.910205 0.210214 -0.180073
C38   C     C_R   0.347194 0.686016 0.325215 -0.214733
C39   C     C_R   0.380815 0.815473 0.425711 -0.172444
C40   C     C_R   0.355027 0.785176 0.105291 -0.074751
H14   H     H_    0.329771 0.606987 0.304584 0.093945
H15   H     H_    0.324935 0.666255 0.017751 0.101096
H16   H     H_    0.316825 0.568878 0.201121 0.103917
O11   O     O_R   0.203230 0.917310 0.915020 -0.539107
O12   O     O_R   0.535500 0.888690 0.048040 -0.538442
O13   O     O_R   0.711080 0.082610 0.085000 -0.528977
C41   C     C_R   0.366194 0.862444 0.065161 0.690556
O14   O     O_R   0.532630 0.905370 0.913230 -0.549497
O15   O     O_R   0.708190 0.099410 0.949230 -0.540662
C42   C     C_R   0.364640 0.884246 0.886491 0.742110
O16   O     O_R   0.206120 0.900510 0.050790 -0.539340
O17   O     O_3   0.375360 0.063570 0.011990 -0.371727
V3    V     V_3+5 0.648170 0.988200 0.997780 1.428864
O18   O     O_R   0.038240 0.111390 0.951940 -0.541587
C43   C     C_R   0.870070 0.137825 0.935139 0.681374
O19   O     O_R   0.041120 0.094710 0.086750 -0.558199
C44   C     C_R   0.872140 0.112435 0.114252 0.754611
V4    V     V_3+5 0.148810 0.011930 0.002180 1.418832
O20   O     O_3   0.871750 0.936430 0.988010 -0.374863
H17   H     H_    0.713009 0.326832 0.288905 0.094747
N1    N     N_3   0.694077 0.139508 0.221611 -0.681243
H18   H     H_    0.589140 0.194789 0.225707 0.221910
H19   H     H_    0.736553 0.129468 0.268748 0.243059
N2    N     N_3   0.899586 0.959843 0.687331 -0.677228
H20   H     H_    0.912876 0.913987 0.722107 0.223824
H21   H     H_    0.770878 0.938648 0.661615 0.222113
H22   H     H_    0.302018 0.532342 0.081159 0.116310
H23   H     H_    0.396511 0.970844 0.183581 0.141918
H24   H     H_    0.942755 0.039197 0.587935 0.156919
N3    N     N_3   0.708907 0.403751 0.698325 -0.684605
H25   H     H_    0.805043 0.464515 0.707337 0.208721
H26   H     H_    0.625432 0.400332 0.740389 0.241708
N4    N     N_3   0.183623 0.287128 0.320324 -0.632034
H27   H     H_    0.230694 0.213843 0.318018 0.218334
H28   H     H_    0.283823 0.322566 0.294543 0.209286

loop_
_geom_bond_atom_site_label_1
_geom_bond_atom_site_label_2
_ccdc_geom_bond_type
C33   C37   A    
C21   H6    S    
C30   C31   A    
O12   V3    S    
H11   C39   S    
C23   C24   D    
N3    H25   S    
H12   C36   S    
C41   O16   A    
O19   C44   A    
C18   C43   S    
C29   C40   A    
C1    C26   S    
O17   V3    S    
C13   C14   A    
C27   C35   A    
C5    C13   A    
C20   H17   S    
C19   C20   D    
O5    C3    A    
C21   C22   D    
C28   C39   A    
N1    H19   S    
C32   C34   A    
O17   V4    S    
V2    O10   S    
C31   C32   A    
C3    C20   S    
O8    V2    S    
C15   H5    S    
C10   C11   A    
C14   N2    S    
H1    C17   S    
N2    H21   S    
O7    V1    S    
C1    O6    A    
O13   C44   A    
C38   H14   S    
C34   C35   A    
C27   C39   A    
O15   C43   A    
C8    C9    A    
C5    C17   A    
C23   H7    S    
C24   H8    S    
O16   V4    S    
O19   V4    S    
C25   H9    S    
C12   C16   A    
C26   H10   S    
O4    C2    A    
N1    H18   S    
C29   H15   S    
C12   C13   A    
C31   H16   S    
C35   C36   A    
O2    C1    A    
C30   H22   S    
O11   V4    S    
V3    O20   S    
C33   C40   A    
V4    O20   S    
O14   V3    S    
C27   H13   S    
C24   C42   S    
O3    C4    A    
O1    V2    S    
O6    V2    S    
N4    H28   S    
O9    V2    S    
O14   C42   A    
O2    V1    S    
C16   N3    S    
C7    H2    S    
C9    H3    S    
C29   C30   A    
C23   C25   S    
O1    C2    A    
C4    C6    S    
C11   C15   A    
C22   C44   S    
O5    V1    S    
C19   N4    S    
O8    C3    A    
N3    H26   S    
C8    H4    S    
C40   C41   S    
C34   C38   A    
C19   C21   S    
O7    V2    S    
C11   C18   A    
O4    V1    S    
O3    V1    S    
V1    O10   S    
O18   V4    S    
C28   C38   A    
C32   C33   A    
O11   C42   A    
C10   C12   A    
C36   C37   A    
O18   C43   A    
C25   C26   D    
C7    C8    A    
N4    H27   S    
O15   V3    S    
C37   H23   S    
C14   C15   A    
C2    C28   S    
C9    C10   A    
O12   C41   A    
C5    H24   S    
C22   N1    S    
N2    H20   S    
O9    C4    A    
C6    C17   A    
O13   V3    S    
C7    C18   A    
C6    C16   A    
