data_mof_unit_33533.cif
_audit_creation_date              2012-10-26T19:52:50-0400
_audit_creation_method            fapswitch 2.2
_symmetry_space_group_name_H-M    P1
_symmetry_Int_Tables_number       1
_space_group_crystal_system       triclinic
_cell_length_a                    15.037397
_cell_length_b                    10.867979
_cell_length_c                    9.600004
_cell_angle_alpha                 89.185228
_cell_angle_beta                  90.608764
_cell_angle_gamma                 91.402518
_cell_volume                      1568.17987734

loop_
_atom_site_label
_atom_site_type_symbol
_atom_type_description
_atom_site_fract_x
_atom_site_fract_y
_atom_site_fract_z
_atom_type_partial_charge
C1    C     C_R   0.501397 0.262564 0.500563 0.537660
C2    C     C_R   0.182880 0.406686 0.422614 0.223349
C3    C     C_R   0.232489 0.495358 0.498674 -0.015839
C4    C     C_R   0.329091 0.497618 0.499521 0.528356
C5    C     C_R   0.190136 0.586125 0.572928 -0.177181
C6    C     C_R   0.519443 0.060927 0.621498 0.000993
C7    C     C_R   0.509021 0.129699 0.499035 -0.039533
C8    C     C_R   0.509052 0.068384 0.371206 -0.096366
C9    C     C_R   0.504583 0.940344 0.367282 0.198216
C10   C     C_R   0.505824 0.871294 0.494249 -0.003049
C11   C     C_R   0.519199 0.934118 0.618804 -0.032895
C12   C     C_R   0.909734 0.597458 0.573696 -0.023719
C13   C     C_3   0.468945 0.921535 0.751556 -0.248657
C14   C     C_3   0.467050 0.060724 0.752545 -0.252078
C15   C     C_R   0.542821 0.592007 0.072923 0.141929
C16   C     C_R   0.499944 0.737573 0.498442 0.541976
C17   C     C_R   0.450020 0.415980 0.073031 0.330153
C18   C     C_R   0.446858 0.420406 0.925029 0.281191
C19   C     C_R   0.543339 0.591368 0.926222 0.113807
C20   C     C_3   0.639591 0.625964 0.921720 -0.273829
C21   C     C_3   0.639380 0.626234 0.079932 -0.270152
C22   C     C_R   0.670955 0.502072 0.500439 0.566059
C23   C     C_R   0.946494 0.331141 0.341865 -0.146169
C24   C     C_R   0.815712 0.596000 0.576640 0.119808
C25   C     C_R   0.767609 0.506453 0.500345 0.024312
C26   C     C_R   0.811199 0.420946 0.420437 -0.166540
C27   C     C_R   0.903543 0.420004 0.418579 0.013251
C28   C     C_R   0.953430 0.508178 0.495154 0.021844
C29   C     C_3   0.744971 0.793307 0.573863 -0.294412
C30   C     C_3   0.293781 0.376184 0.863645 -0.262259
C31   C     C_R   0.038753 0.327421 0.342264 -0.091020
C32   C     C_R   0.089932 0.413593 0.418272 0.067002
C33   C     C_R   0.047056 0.506131 0.493594 -0.016233
C34   C     C_R   0.097508 0.594939 0.568978 -0.003869
C35   C     C_R   0.053554 0.688767 0.640317 0.242823
C36   C     C_R   0.960977 0.687217 0.644308 -0.071293
Cu1   Cu    Cu3+1 0.500000 0.499980 0.640670 0.969446
Cu2   Cu    Cu3+1 0.500000 0.500020 0.359330 0.959790
H1    H     H_    0.402082 0.877091 0.737525 0.146028
H2    H     H_    0.908593 0.263328 0.282702 0.113951
H3    H     H_    0.069718 0.256266 0.283107 0.177063
H4    H     H_    0.231014 0.649346 0.633517 0.127575
H5    H     H_    0.930183 0.760062 0.700550 0.145395
H6    H     H_    0.505390 0.119081 0.273391 0.193575
H7    H     H_    0.793911 0.703103 0.750736 0.236803
H8    H     H_    0.805883 0.845463 0.541187 0.139315
H9    H     H_    0.704492 0.853420 0.639343 0.144753
H10   H     H_    0.705036 0.767749 0.480172 0.164618
H11   H     H_    0.437512 0.837592 0.242668 0.341991
H12   H     H_    0.510104 0.882041 0.837258 0.159129
H13   H     H_    0.383092 0.348716 0.226364 0.386134
H14   H     H_    0.392958 0.251321 0.882657 0.252347
H15   H     H_    0.267728 0.352942 0.968887 0.177237
H16   H     H_    0.253193 0.325011 0.785315 0.141393
H17   H     H_    0.286269 0.476435 0.844095 0.164449
H18   H     H_    0.280354 0.293734 0.402186 0.324717
H19   H     H_    0.151188 0.807691 0.653455 0.320150
H20   H     H_    0.398919 0.095458 0.734627 0.142241
H21   H     H_    0.505321 0.101605 0.840891 0.154919
H22   H     H_    0.680760 0.552261 0.878620 0.168400
H23   H     H_    0.650695 0.719177 0.875137 0.143062
H24   H     H_    0.680452 0.552551 0.127065 0.152915
H25   H     H_    0.772712 0.353172 0.361797 0.116260
H26   H     H_    0.651193 0.719271 0.124130 0.159234
N1    N     N_R   0.500570 0.500930 0.147930 -0.256509
N2    N     N_R   0.500570 0.500890 0.852020 -0.245444
N3    N     N_2   0.768471 0.684455 0.653038 -0.524606
N4    N     N_2   0.385997 0.341770 0.852895 -0.448398
O1    O     O_R   0.500000 0.319640 0.618810 -0.476627
O2    O     O_3   0.403226 0.320815 0.136162 -0.719997
O3    O     O_3   0.222612 0.310513 0.356161 -0.714396
O4    O     O_3   0.097913 0.783551 0.707928 -0.702163
O5    O     O_R   0.500010 0.319680 0.381230 -0.515345
O6    O     O_R   0.370250 0.499950 0.618800 -0.489356
O7    O     O_R   0.370260 0.499990 0.381220 -0.518614
O8    O     O_R   0.499990 0.680320 0.618770 -0.500789
O9    O     O_R   0.500000 0.680360 0.381190 -0.482707
O10   O     O_R   0.629740 0.500010 0.618780 -0.479258
O11   O     O_R   0.629750 0.500050 0.381200 -0.518077
O12   O     O_3   0.493600 0.887319 0.238805 -0.698239

loop_
_geom_bond_atom_site_label_1
_geom_bond_atom_site_label_2
_ccdc_geom_bond_type
C5    H4    S    
Cu1   O1    S    
C35   C36   A    
Cu1   O6    S    
C7    C8    A    
C15   C19   A    
C14   H21   S    
C30   H16   S    
C26   C27   A    
C29   H9    S    
C22   O11   A    
C16   O9    A    
Cu2   O11   S    
C18   N4    S    
C23   H2    S    
C15   N1    A    
C19   N2    A    
C2    C32   A    
C34   C35   A    
C20   H23   S    
C4    O7    A    
C24   N3    S    
C29   N3    S    
C19   C20   S    
C8    C9    A    
C21   H26   S    
C22   C25   S    
H7    N3    S    
H13   O2    S    
C23   C27   A    
C12   C36   A    
C9    C10   A    
C4    O6    A    
H14   N4    S    
C17   O2    S    
C1    C7    S    
C13   C14   S    
C5    C34   A    
C33   C34   A    
Cu2   O7    S    
C14   H20   S    
C30   H15   S    
C29   H10   S    
C24   C25   A    
C22   O10   A    
C6    C11   A    
C25   C26   A    
C1    O1    A    
C9    O12   S    
C23   C31   A    
C26   H25   S    
Cu1   Cu2   S    
C6    C14   S    
C31   C32   A    
Cu2   N1    S    
H18   O3    S    
Cu1   N2    S    
C17   C18   A    
C21   H24   S    
Cu1   O8    S    
C12   C28   A    
C35   O4    S    
C20   H22   S    
C2    O3    S    
Cu1   O10   S    
C31   H3    S    
C16   O8    A    
C8    H6    S    
C3    C5    A    
C28   C33   A    
C6    C7    A    
Cu2   O9    S    
C18   N2    A    
C30   H17   S    
C12   C24   A    
C17   N1    A    
H11   O12   S    
C29   H8    S    
C1    O5    A    
C32   C33   A    
C2    C3    A    
C10   C16   S    
C11   C13   S    
H19   O4    S    
C13   H1    S    
C10   C11   A    
C13   H12   S    
C15   C21   S    
C20   C21   S    
C27   C28   A    
C36   H5    S    
C30   N4    S    
C3    C4    S    
Cu2   O5    S    
