data_mof_unit_61146.cif
_audit_creation_date              2012-12-10T16:47:59-0500
_audit_creation_method            fapswitch 2.2
_symmetry_space_group_name_H-M    P1
_symmetry_Int_Tables_number       1
_space_group_crystal_system       triclinic
_cell_length_a                    7.780197
_cell_length_b                    8.622576
_cell_length_c                    10.585804
_cell_angle_alpha                 90.657359
_cell_angle_beta                  87.194961
_cell_angle_gamma                 93.029252
_cell_volume                      708.282149252

loop_
_atom_site_label
_atom_site_type_symbol
_atom_type_description
_atom_site_fract_x
_atom_site_fract_y
_atom_site_fract_z
_atom_type_partial_charge
C1    C     C_R   0.544848 0.794147 0.497692 0.850225
C2    C     C_2   0.568601 0.956290 0.504134 0.257343
C3    C     C_3   0.949040 0.642139 0.025693 -0.752284
C4    C     C_3   0.617453 0.901940 0.921840 -0.781463
C5    C     C_3   0.354761 0.241013 0.884406 -0.754979
C6    C     C_3   0.977940 0.243548 0.329283 -0.518287
C7    C     C_2   0.430886 0.043683 0.500606 0.259783
C8    C     C_R   0.504165 0.496893 0.737420 0.883598
C9    C     C_R   0.455128 0.205897 0.503634 0.872070
C10   C     C_R   0.498656 0.517067 0.263519 0.921842
C11   C     C_2   0.631807 0.608164 0.062087 0.226081
C12   C     C_2   0.492188 0.565976 0.135255 -0.427625
C13   C     C_2   0.604291 0.617773 0.926615 0.138790
C14   C     C_2   0.520976 0.494498 0.870642 -0.029284
F1    F     F_    0.732502 0.015273 0.519219 -0.661620
F2    F     F_    0.266273 0.984565 0.488301 -0.649992
H1    H     H_    0.365071 0.562001 0.096302 0.159118
H2    H     H_    0.475550 0.906091 0.937350 0.235550
H3    H     H_    0.579938 0.304258 0.978294 0.237719
H4    H     H_    0.319506 0.148753 0.954638 0.233130
H5    H     H_    0.411535 0.186849 0.797372 0.231051
H6    H     H_    0.235288 0.298436 0.862727 0.261607
H7    H     H_    0.012125 0.474826 0.281527 0.228982
H8    H     H_    0.056689 0.203164 0.246207 0.181126
H9    H     H_    0.840008 0.231902 0.306788 0.229634
H10   H     H_    0.001341 0.169408 0.411091 0.309125
H11   H     H_    0.987386 0.598038 0.607266 0.188225
H12   H     H_    0.803888 0.711738 0.187289 0.239749
H13   H     H_    0.066828 0.639350 0.080388 0.222355
H14   H     H_    0.955758 0.751933 0.971602 0.262903
H15   H     H_    0.946316 0.540726 0.959960 0.246994
H16   H     H_    0.644026 0.759625 0.763844 0.233663
H17   H     H_    0.665214 0.001215 0.861534 0.256550
H18   H     H_    0.679751 0.914609 0.013775 0.248943
N1    N     N_2   0.950320 0.457950 0.466680 -0.002738
N2    N     N_2   0.049680 0.542050 0.533320 -0.102182
N3    N     N_2   0.798813 0.634754 0.112075 -0.288447
N4    N     N_2   0.659558 0.757402 0.859767 -0.299426
N5    N     N_2   0.477860 0.352428 0.937264 -0.333817
N6    N     N_2   0.027780 0.403268 0.356962 -0.193118
O1    O     O_R   0.389250 0.738570 0.508180 -0.568891
O2    O     O_R   0.678390 0.711630 0.486820 -0.604238
O3    O     O_R   0.355470 0.513470 0.691600 -0.621415
O4    O     O_R   0.644610 0.486520 0.670240 -0.639473
O5    O     O_R   0.321610 0.288370 0.513180 -0.571129
O6    O     O_R   0.610750 0.261430 0.491820 -0.583434
O7    O     O_R   0.355390 0.513480 0.329760 -0.608905
O8    O     O_R   0.644530 0.486530 0.308400 -0.621772
Zn1   Zn    Zn3+2 0.306940 0.517990 0.514260 1.013948
Zn2   Zn    Zn3+2 0.693060 0.482010 0.485740 0.984412

loop_
_geom_bond_atom_site_label_1
_geom_bond_atom_site_label_2
_ccdc_geom_bond_type
C12   H1    S    
C3    H14   S    
C11   C12   D    
C9    O5    A    
H16   N4    S    
H11   N2    S    
O6    Zn2   S    
C2    C7    D    
C8    O3    A    
O5    Zn1   S    
C4    H2    S    
N1    Zn2   S    
O8    Zn2   S    
N1    N6    S    
C6    H8    S    
C9    O6    A    
O7    Zn1   S    
C5    H4    S    
C13   C14   D    
C3    H15   S    
C2    F1    S    
C11   C13   S    
C3    H13   S    
C13   N4    S    
C6    H10   S    
H3    N5    S    
H12   N3    S    
O2    Zn2   S    
C10   C12   S    
O1    Zn1   S    
C7    F2    S    
C4    N4    S    
C6    N6    S    
C5    N5    S    
C10   O8    A    
C4    H18   S    
C6    H9    S    
N2    Zn1   S    
O4    Zn2   S    
H7    N6    S    
C1    O2    A    
C5    H5    S    
C3    N3    S    
C7    C9    S    
C1    C2    S    
C1    O1    A    
C10   O7    A    
C11   N3    S    
C4    H17   S    
O3    Zn1   S    
C8    C14   S    
C14   N5    S    
C5    H6    S    
C8    O4    A    
N1    N2    D    
