data_mof_unit_64334.cif
_audit_creation_date              2012-12-10T18:43:07-0500
_audit_creation_method            fapswitch 2.2
_symmetry_space_group_name_H-M    P1
_symmetry_Int_Tables_number       1
_space_group_crystal_system       triclinic
_cell_length_a                    18.104676
_cell_length_b                    18.092414
_cell_length_c                    18.109516
_cell_angle_alpha                 120.081407
_cell_angle_beta                  89.994878
_cell_angle_gamma                 60.121581
_cell_volume                      4196.83495925

loop_
_atom_site_label
_atom_site_type_symbol
_atom_type_description
_atom_site_fract_x
_atom_site_fract_y
_atom_site_fract_z
_atom_type_partial_charge
Br1   Br    Br    0.428473 0.695188 0.484105 -0.295046
Br2   Br    Br    0.327590 0.523784 0.592852 -0.440185
Br3   Br    Br    0.459539 0.913470 0.808927 -0.403093
Br4   Br    Br    0.540461 0.086530 0.191073 -0.403093
Br5   Br    Br    0.571527 0.304812 0.515895 -0.295046
Br6   Br    Br    0.813774 0.082992 0.450881 -0.332682
Br7   Br    Br    0.186226 0.917007 0.549119 -0.332682
Br8   Br    Br    0.895284 0.731466 0.191233 -0.415709
Br9   Br    Br    0.104716 0.268534 0.808767 -0.415709
Br10  Br    Br    0.627852 0.267445 0.809043 -0.449820
Br11  Br    Br    0.372148 0.732555 0.190957 -0.449820
Br12  Br    Br    0.672410 0.476216 0.407148 -0.440185
C1    C     C_R   0.891280 0.216951 0.608501 0.548865
C2    C     C_3   0.551666 0.897676 0.948848 0.031177
C3    C     C_3   0.412689 0.033722 0.016545 -0.112736
C4    C     C_3   0.587311 0.966278 0.983454 -0.112737
C5    C     C_3   0.041598 0.403027 0.479997 -0.114327
C6    C     C_3   0.958402 0.596973 0.520003 -0.114327
C7    C     C_3   0.078246 0.470783 0.514939 -0.027838
C8    C     C_3   0.921754 0.529217 0.485061 -0.027837
C9    C     C_3   0.051197 0.499663 0.448448 0.062477
C10   C     C_3   0.948802 0.500337 0.551552 0.062477
C11   C     C_3   0.014339 0.432228 0.412371 -0.099546
C12   C     C_R   0.108719 0.783049 0.391499 0.548866
C13   C     C_3   0.985661 0.567772 0.587629 -0.099546
C14   C     C_3   0.923882 0.033884 0.480017 0.169695
C15   C     C_3   0.076118 0.966116 0.519983 0.169695
C16   C     C_R   0.608582 0.783186 0.891590 0.540107
C17   C     C_R   0.391418 0.216814 0.108410 0.540107
C18   C     C_3   0.956326 0.965073 0.515158 -0.044474
C19   C     C_3   0.043674 0.034926 0.484842 -0.044474
C20   C     C_3   0.051679 0.897272 0.448486 0.032238
C21   C     C_3   0.948321 0.102728 0.551513 0.032238
C22   C     C_3   0.019916 0.965186 0.412047 -0.105237
C23   C     C_3   0.548291 0.409134 0.416646 -0.118386
C24   C     C_3   0.980084 0.034814 0.587953 -0.105237
C25   C     C_3   0.921979 0.524914 0.042917 -0.133601
C26   C     C_3   0.078021 0.475085 0.957083 -0.133601
C27   C     C_3   0.957001 0.594428 0.077687 0.162440
C28   C     C_3   0.042999 0.405572 0.922313 0.162441
C29   C     C_3   0.051164 0.499574 0.051136 0.032760
C30   C     C_3   0.948836 0.500425 0.948864 0.032760
C31   C     C_3   0.017456 0.429022 0.016433 -0.111843
C32   C     C_3   0.982544 0.570978 0.983566 -0.111843
C33   C     C_3   0.551976 0.404847 0.922234 0.165234
C34   C     C_3   0.451709 0.590866 0.583353 -0.118387
C35   C     C_3   0.448024 0.595153 0.077766 0.165234
C36   C     C_3   0.448046 0.474625 0.957096 -0.037847
C37   C     C_3   0.551954 0.525375 0.042904 -0.037847
C38   C     C_3   0.448927 0.499686 0.051320 0.039712
C39   C     C_3   0.551073 0.500314 0.948680 0.039711
C40   C     C_R   0.608436 0.500065 0.891520 0.540385
C41   C     C_R   0.391564 0.499935 0.108480 0.540386
C42   C     C_3   0.553271 0.429239 0.017105 -0.109538
C43   C     C_3   0.446729 0.570761 0.982895 -0.109538
C44   C     C_R   0.891603 0.500090 0.608497 0.508341
C45   C     C_3   0.483174 0.965283 0.922376 0.161228
C46   C     C_R   0.108397 0.499910 0.391503 0.508341
C47   C     C_R   0.891621 0.500080 0.891606 0.536390
C48   C     C_R   0.108379 0.499919 0.108394 0.536390
C49   C     C_R   0.608539 0.500633 0.608392 0.575148
C50   C     C_R   0.391460 0.499367 0.391608 0.575148
C51   C     C_3   0.570469 0.490658 0.462786 0.150812
C52   C     C_3   0.429531 0.509342 0.537214 0.150811
C53   C     C_3   0.470779 0.579884 0.493893 0.152810
C54   C     C_3   0.529221 0.420116 0.506107 0.152810
C55   C     C_3   0.448444 0.499324 0.448911 -0.001490
C56   C     C_3   0.516826 0.034717 0.077623 0.161228
C57   C     C_3   0.551556 0.500676 0.551088 -0.001490
C58   C     C_3   0.907041 0.924281 0.531888 -0.345650
C59   C     C_3   0.092958 0.075719 0.468112 -0.345650
C60   C     C_3   0.388375 0.445658 0.908750 -0.349077
C61   C     C_3   0.611625 0.554342 0.091250 -0.349077
C62   C     C_3   0.168085 0.437574 0.531577 -0.350088
C63   C     C_3   0.831915 0.562426 0.468423 -0.350087
C64   C     C_3   0.517715 0.035266 0.957051 -0.131578
C65   C     C_3   0.482285 0.964734 0.042949 -0.131578
C66   C     C_3   0.448334 0.102324 0.051152 0.031177
H1    H     H_    0.036767 0.935926 0.339726 0.173370
H2    H     H_    0.412663 0.665374 0.651980 0.194216
H3    H     H_    0.530898 0.065829 0.922506 0.154578
H4    H     H_    0.469102 0.934171 0.077494 0.154578
H5    H     H_    0.340491 0.062637 0.030239 0.165350
H6    H     H_    0.659509 0.937363 0.969761 0.165350
H7    H     H_    0.075124 0.324000 0.465025 0.127491
H8    H     H_    0.924876 0.676000 0.534975 0.127491
H9    H     H_    0.025947 0.377467 0.340051 0.144809
H10   H     H_    0.974053 0.622532 0.659949 0.144809
H11   H     H_    0.838963 0.991006 0.583094 0.192311
H12   H     H_    0.963233 0.064074 0.660274 0.173370
H13   H     H_    0.900028 0.875064 0.467836 0.172044
H14   H     H_    0.945819 0.876821 0.557115 0.145463
H15   H     H_    0.161037 0.008994 0.416905 0.192311
H16   H     H_    0.054181 0.123179 0.442885 0.145463
H17   H     H_    0.099972 0.124936 0.532164 0.172044
H18   H     H_    0.402809 0.430754 0.841331 0.186564
H19   H     H_    0.402145 0.374236 0.900043 0.158168
H20   H     H_    0.316246 0.510693 0.949245 0.149100
H21   H     H_    0.597191 0.569246 0.158669 0.186564
H22   H     H_    0.683754 0.489306 0.050755 0.149100
H23   H     H_    0.857037 0.545976 0.077405 0.144514
H24   H     H_    0.597855 0.625764 0.099956 0.158168
H25   H     H_    0.169546 0.419653 0.582088 0.157793
H26   H     H_    0.224082 0.367147 0.467325 0.162379
H27   H     H_    0.176340 0.502078 0.557802 0.199869
H28   H     H_    0.830454 0.580347 0.417912 0.157793
H29   H     H_    0.823660 0.497922 0.442198 0.199869
H30   H     H_    0.775918 0.632853 0.532675 0.162379
H31   H     H_    0.142963 0.454024 0.922594 0.144514
H32   H     H_    0.032908 0.370337 0.030033 0.164602
H33   H     H_    0.967092 0.629663 0.969967 0.164601
H34   H     H_    0.596396 0.371538 0.031653 0.163149
H35   H     H_    0.403604 0.628462 0.968346 0.163149
H36   H     H_    0.587337 0.334626 0.348020 0.194216
O1    O     O_3   0.750010 0.499980 0.749990 -0.472705
O2    O     O_R   0.305750 0.265450 0.132730 -0.542765
O3    O     O_R   0.867280 0.265410 0.571220 -0.517955
O4    O     O_R   0.132720 0.734590 0.428780 -0.517955
O5    O     O_R   0.571230 0.734580 0.867270 -0.517388
O6    O     O_R   0.428770 0.265420 0.132730 -0.517388
O7    O     O_R   0.694200 0.438470 0.867270 -0.520417
O8    O     O_R   0.305800 0.561530 0.132730 -0.520417
O9    O     O_R   0.867340 0.561470 0.694210 -0.545086
O10   O     O_R   0.132660 0.438530 0.305790 -0.545086
O11   O     O_R   0.867310 0.438430 0.867270 -0.521558
O12   O     O_3   0.249990 0.500020 0.250010 -0.472705
O13   O     O_R   0.132690 0.561570 0.132730 -0.521558
O14   O     O_R   0.694200 0.438520 0.571220 -0.487426
O15   O     O_R   0.305800 0.561480 0.428780 -0.487427
O16   O     O_R   0.867340 0.561440 0.867270 -0.543665
O17   O     O_R   0.132660 0.438560 0.132730 -0.543665
O18   O     O_R   0.571190 0.561530 0.694210 -0.524664
O19   O     O_R   0.428810 0.438470 0.305790 -0.524665
O20   O     O_R   0.571190 0.561490 0.867270 -0.540481
O21   O     O_R   0.428810 0.438510 0.132730 -0.540481
O22   O     O_R   0.867310 0.438490 0.571220 -0.538850
O23   O     O_R   0.132690 0.561510 0.428780 -0.538850
O24   O     O_R   0.867280 0.265380 0.694210 -0.520846
O25   O     O_R   0.132720 0.734620 0.305790 -0.520846
O26   O     O_R   0.694250 0.734550 0.867270 -0.542765
Zn1   Zn    Zn3+2 0.618190 0.587870 0.793920 0.998098
Zn2   Zn    Zn3+2 0.381810 0.412130 0.206080 0.998098
Zn3   Zn    Zn3+2 0.793940 0.412090 0.793920 0.994996
Zn4   Zn    Zn3+2 0.206060 0.587910 0.206080 0.994996
Zn5   Zn    Zn3+2 0.793970 0.587840 0.793920 0.954713
Zn6   Zn    Zn3+2 0.206030 0.412160 0.206080 0.954713
Zn7   Zn    Zn3+2 0.793940 0.412130 0.618200 1.010205
Zn8   Zn    Zn3+2 0.206060 0.587870 0.381800 1.010205

loop_
_geom_bond_atom_site_label_1
_geom_bond_atom_site_label_2
_ccdc_geom_bond_type
C61   H22   S    
C18   C20   S    
O1    Zn1   S    
C47   O16   A    
C63   H29   S    
C36   C43   S    
C6    C9    S    
C29   C31   S    
O7    Zn3   S    
O23   Zn8   S    
Br11  C35   S    
C58   H13   S    
C16   O26   A    
O8    Zn4   S    
O18   Zn1   S    
C37   C61   S    
C51   C53   S    
O12   Zn6   S    
C35   C37   S    
C59   H16   S    
C60   H20   S    
C1    C21   S    
O19   Zn2   S    
C5    C11   S    
C50   C55   S    
C23   H36   S    
C5    H7    S    
C45   C64   S    
C35   C43   S    
C26   C28   S    
C64   C66   S    
C64   H3    S    
C41   O8    A    
C54   C57   S    
C59   H17   S    
C33   C39   S    
C24   H12   S    
C37   C42   S    
O1    Zn7   S    
C4    H6    S    
C21   C24   S    
Br7   C15   S    
O17   Zn6   S    
O3    Zn7   S    
O25   Zn4   S    
C2    C65   S    
O12   Zn4   S    
C25   C30   S    
O15   Zn8   S    
C49   O18   A    
C18   C58   S    
C14   C22   S    
C28   C31   S    
C17   C66   S    
C51   C57   S    
C37   C39   S    
C10   C13   S    
C41   O21   A    
Br1   C53   S    
C19   C21   S    
C4    C56   S    
Br8   C27   S    
C39   C43   S    
C19   C59   S    
C3    C65   S    
C63   H30   S    
C11   H9    S    
O16   Zn5   S    
C3    C45   S    
C50   O15   A    
C6    C13   S    
C30   C32   S    
C36   C60   S    
C48   O17   A    
C44   O22   A    
Br2   C52   S    
C35   C38   S    
C60   H19   S    
O21   Zn2   S    
C12   O25   A    
C56   C66   S    
C17   O6    A    
O1    Zn3   S    
C38   C41   S    
C15   C19   S    
C39   C40   S    
O22   Zn7   S    
C52   C55   S    
O9    Zn5   S    
O6    Zn2   S    
C26   C29   S    
C27   C29   S    
Br4   C56   S    
Br12  C51   S    
O12   Zn8   S    
C10   C44   S    
C43   H35   S    
C23   C54   S    
C53   C55   S    
O10   Zn6   S    
O12   Zn2   S    
Br9   C28   S    
C8    C63   S    
C34   C52   S    
C20   C22   S    
C25   C31   S    
C44   O9    A    
C26   C32   S    
C22   H1    S    
C40   O7    A    
C14   C21   S    
C8    C11   S    
C23   C55   S    
Br10  C33   S    
C19   C22   S    
C42   H34   S    
C6    H8    S    
C26   H31   S    
C36   C38   S    
C34   C53   S    
Br3   C45   S    
C46   O23   A    
C61   H24   S    
C31   H32   S    
C17   O2    A    
C8    C10   S    
C33   C42   S    
C14   C18   S    
C9    C11   S    
O5    Zn1   S    
C2    C4    S    
C58   H11   S    
C50   O19   A    
C62   H26   S    
C33   C36   S    
C49   C57   S    
C56   C65   S    
C61   H21   S    
C2    C45   S    
C7    C9    S    
C15   C20   S    
C4    C64   S    
C12   O4    A    
C7    C62   S    
C58   H14   S    
C29   C48   S    
Br5   C54   S    
C3    C66   S    
C16   O5    A    
C30   C47   S    
C1    O3    A    
O14   Zn7   S    
C27   C32   S    
C59   H15   S    
C15   C24   S    
C47   O11   A    
O1    Zn5   S    
O26   Zn5   S    
C46   O10   A    
C5    C10   S    
C18   C24   S    
O24   Zn3   S    
C1    O24   A    
O4    Zn8   S    
C9    C46   S    
C38   C42   S    
C62   H27   S    
C25   H23   S    
O2    Zn6   S    
C12   C20   S    
Br6   C14   S    
C65   H4    S    
O11   Zn3   S    
C3    H5    S    
C28   C30   S    
C5    C7    S    
C49   O14   A    
C6    C8    S    
O13   Zn4   S    
C13   H10   S    
C7    C13   S    
C48   O13   A    
C60   H18   S    
C32   H33   S    
C40   O20   A    
C63   H28   S    
C25   C27   S    
C34   C57   S    
C23   C51   S    
C34   H2    S    
C2    C16   S    
C52   C54   S    
C62   H25   S    
O20   Zn1   S    
