data_mof_unit_57952.cif
_audit_creation_date              2012-12-11T15:31:40-0500
_audit_creation_method            fapswitch 2.2
_symmetry_space_group_name_H-M    P1
_symmetry_Int_Tables_number       1
_space_group_crystal_system       triclinic
_cell_length_a                    6.943361
_cell_length_b                    14.772303
_cell_length_c                    21.322316
_cell_angle_alpha                 74.853828
_cell_angle_beta                  90.208439
_cell_angle_gamma                 90.716497
_cell_volume                      2110.88085983

loop_
_atom_site_label
_atom_site_type_symbol
_atom_type_description
_atom_site_fract_x
_atom_site_fract_y
_atom_site_fract_z
_atom_type_partial_charge
O1    O     O_R   0.648150 0.130050 0.214300 -0.539472
O2    O     O_R   0.351850 0.869950 0.785700 -0.539473
O3    O     O_R   0.320490 0.006660 0.340150 -0.543928
O4    O     O_R   0.679510 0.993340 0.659850 -0.543929
O5    O     O_R   0.146100 0.869940 0.285700 -0.539331
O6    O     O_R   0.853900 0.130060 0.714300 -0.539331
C1    C     C_R   0.489153 0.001570 0.367158 0.675752
C2    C     C_R   0.510847 0.998430 0.632842 0.675752
O7    O     O_R   0.318690 0.137980 0.218120 -0.540804
O8    O     O_R   0.681310 0.862020 0.781880 -0.540803
O9    O     O_R   0.144280 0.002190 0.162800 -0.542446
O10   O     O_R   0.855720 0.997810 0.837200 -0.542445
C3    C     C_R   0.488438 0.175551 0.206005 0.695992
C4    C     C_R   0.511562 0.824449 0.793994 0.695992
O11   O     O_R   0.649960 0.997790 0.337200 -0.540766
O12   O     O_R   0.350040 0.002210 0.662800 -0.540766
O13   O     O_3   0.479300 0.955290 0.231990 -0.369470
O14   O     O_3   0.520700 0.044710 0.768010 -0.369470
V1    V     V_3+5 0.206040 0.008290 0.253340 1.414502
V2    V     V_3+5 0.793960 0.991710 0.746660 1.414502
O15   O     O_R   0.814320 0.993320 0.159850 -0.541393
O16   O     O_R   0.185680 0.006680 0.840150 -0.541393
C5    C     C_R   0.982944 0.998444 0.132918 0.700642
C6    C     C_R   0.017056 0.001556 0.867081 0.700641
O17   O     O_R   0.816120 0.862000 0.281880 -0.540111
O18   O     O_R   0.183880 0.138000 0.718120 -0.540111
C7    C     C_R   0.983752 0.824351 0.294079 0.698660
C8    C     C_R   0.016248 0.175649 0.705921 0.698660
V3    V     V_3+5 0.705540 0.991700 0.246660 1.416710
V4    V     V_3+5 0.294460 0.008300 0.753340 1.416709
O19   O     O_3   0.982150 0.044700 0.268010 -0.370639
O20   O     O_3   0.017850 0.955300 0.731990 -0.370638
C9    C     C_R   0.986600 0.722809 0.321592 -0.035608
C10   C     C_R   0.013400 0.277191 0.678408 -0.035607
C11   C     C_R   0.923881 0.566868 0.310290 -0.163526
C12   C     C_R   0.076116 0.433132 0.689710 -0.163530
C13   C     C_R   0.940266 0.662977 0.282711 -0.174387
C14   C     C_R   0.059732 0.337023 0.717289 -0.174389
C15   C     C_R   0.015764 0.686567 0.388359 -0.215079
C16   C     C_R   0.984237 0.313433 0.611641 -0.215080
C17   C     C_R   0.994663 0.589248 0.418146 0.084608
C18   C     C_R   0.005336 0.410752 0.581853 0.084609
C19   C     C_R   0.948569 0.529726 0.377458 0.141749
C20   C     C_R   0.051428 0.470274 0.622541 0.141747
C21   C     C_R   0.013747 0.549448 0.486729 0.059679
C22   C     C_R   0.986252 0.450551 0.513270 0.059679
C23   C     C_R   0.941628 0.394762 0.470331 -0.191749
C24   C     C_R   0.058368 0.605237 0.529669 -0.191749
C25   C     C_R   0.923908 0.433716 0.403988 -0.206239
C26   C     C_R   0.076087 0.566284 0.596012 -0.206240
H1    H     H_    0.888530 0.388034 0.373101 0.120835
H2    H     H_    0.111463 0.611966 0.626899 0.120836
H3    H     H_    0.952115 0.263080 0.584449 0.090908
H4    H     H_    0.047888 0.736919 0.415550 0.090908
H5    H     H_    0.085362 0.309120 0.768845 0.105674
H6    H     H_    0.914635 0.690880 0.231155 0.105673
H7    H     H_    0.887721 0.521592 0.279224 0.115078
H8    H     H_    0.112275 0.478408 0.720775 0.115084
H9    H     H_    0.918289 0.320135 0.486220 0.117375
H10   H     H_    0.081705 0.679865 0.513780 0.117375
C27   C     C_3   0.820298 0.990895 0.978009 -0.159215
C28   C     C_3   0.179702 0.009105 0.021990 -0.159216
C29   C     C_3   0.922769 0.919494 0.033648 0.212304
C30   C     C_3   0.077232 0.080506 0.966352 0.212301
H11   H     H_    0.672253 0.982641 0.960227 0.120673
H12   H     H_    0.327747 0.017359 0.039773 0.120673
C31   C     C_3   0.992437 0.999098 0.062437 -0.050533
C32   C     C_3   0.007563 0.000903 0.937563 -0.050534
C33   C     C_3   0.891103 0.071619 0.007130 -0.178411
C34   C     C_3   0.108897 0.928382 0.992869 -0.178410
H13   H     H_    0.802615 0.130937 0.013046 0.113921
H14   H     H_    0.197385 0.869064 0.986954 0.113920
C35   C     C_3   0.681012 0.994834 0.479237 -0.117803
C36   C     C_3   0.318988 0.005166 0.520763 -0.117803
C37   C     C_3   0.603526 0.073626 0.507736 -0.136951
C38   C     C_3   0.396473 0.926374 0.492264 -0.136952
H15   H     H_    0.688875 0.134407 0.514571 0.096251
H16   H     H_    0.311125 0.865593 0.485429 0.096251
H17   H     H_    0.830427 0.990628 0.461913 0.108014
H18   H     H_    0.169572 0.009372 0.538087 0.108014
C39   C     C_3   0.502798 0.999009 0.562236 -0.005383
C40   C     C_3   0.497201 0.000991 0.437764 -0.005384
C41   C     C_3   0.580323 0.920232 0.534544 -0.143190
C42   C     C_3   0.419677 0.079768 0.465456 -0.143190
H19   H     H_    0.646276 0.854368 0.563482 0.101675
H20   H     H_    0.353724 0.145632 0.436518 0.101676
C43   C     C_R   0.500400 0.276796 0.178102 -0.031524
C44   C     C_R   0.499603 0.723204 0.821898 -0.031523
C45   C     C_R   0.538750 0.433355 0.191019 -0.162924
C46   C     C_R   0.461321 0.566642 0.808979 -0.162928
C47   C     C_R   0.526252 0.336970 0.218176 -0.177872
C48   C     C_R   0.473813 0.663028 0.781822 -0.177876
C49   C     C_R   0.488583 0.312687 0.110729 -0.214817
C50   C     C_R   0.511373 0.687314 0.889272 -0.214811
C51   C     C_R   0.502964 0.410354 0.081615 0.085347
C52   C     C_R   0.497027 0.589646 0.918385 0.085347
C53   C     C_R   0.526954 0.470443 0.123400 0.141017
C54   C     C_R   0.473080 0.529555 0.876599 0.141015
C55   C     C_R   0.493863 0.450178 0.012819 0.059675
C56   C     C_R   0.506130 0.549822 0.987181 0.059674
C57   C     C_R   0.526622 0.606261 0.031167 -0.191421
C58   C     C_R   0.473397 0.393738 0.968833 -0.191422
C59   C     C_R   0.538209 0.567157 0.097659 -0.202394
C60   C     C_R   0.461837 0.432841 0.902340 -0.202393
H21   H     H_    0.555261 0.613412 0.129358 0.126877
H22   H     H_    0.444818 0.386585 0.870640 0.126875
H23   H     H_    0.531789 0.737904 0.917113 0.090809
H24   H     H_    0.468102 0.262100 0.082889 0.090814
H25   H     H_    0.463923 0.690707 0.729598 0.100710
H26   H     H_    0.536181 0.309289 0.270400 0.100709
H27   H     H_    0.557668 0.479101 0.222954 0.114365
H28   H     H_    0.442443 0.520895 0.777044 0.114371
H29   H     H_    0.533569 0.681588 0.016032 0.119965
H30   H     H_    0.466475 0.318410 0.983969 0.119965
C61   C     C_3   0.834809 0.826955 0.072038 -0.823596
H31   H     H_    0.802978 0.782103 0.038817 0.210959
H32   H     H_    0.937711 0.790422 0.109897 0.199813
H33   H     H_    0.699408 0.840118 0.095541 0.210447
C62   C     C_3   0.165192 0.173046 0.927962 -0.823592
H34   H     H_    0.197027 0.217897 0.961183 0.210959
H35   H     H_    0.300592 0.159882 0.904458 0.210446
H36   H     H_    0.062289 0.209580 0.890104 0.199813

loop_
_geom_bond_atom_site_label_1
_geom_bond_atom_site_label_2
_ccdc_geom_bond_type
C43   C47   A    
C57   H29   S    
C46   H28   S    
O4    C2    A    
V1    O19   S    
C60   H22   S    
C15   C17   A    
C21   C22   A    
C7    C9    S    
O9    V1    S    
C48   H25   S    
C9    C15   A    
C30   C62   S    
C36   C38   S    
C28   C31   S    
C10   C16   A    
C30   C32   S    
C47   H26   S    
C11   C13   A    
C42   H20   S    
O3    C1    A    
C49   H24   S    
C51   C55   A    
C37   C42   S    
C62   H36   S    
C15   H4    S    
O12   V4    S    
C61   H31   S    
C52   C56   A    
O13   V3    S    
C28   C34   S    
C27   C29   S    
C18   C22   A    
C5    C31   S    
C33   H13   S    
O7    C3    A    
C28   C30   S    
O5    C7    A    
C13   H6    S    
O7    V1    S    
O6    C8    A    
C14   H5    S    
C44   C48   A    
O8    V2    S    
C61   H32   S    
C52   C54   A    
C26   H2    S    
O3    V1    S    
O14   V4    S    
C45   C47   A    
C11   C19   A    
C24   H10   S    
C29   C61   S    
C2    O12   A    
C24   C26   A    
C8    C10   S    
C49   C51   A    
C36   H18   S    
C17   C19   A    
C3    C43   S    
C18   C20   A    
C38   C41   S    
C39   C41   S    
O11   V3    S    
C44   C50   A    
C62   H35   S    
O17   V3    S    
C29   C31   S    
C50   H23   S    
C28   H12   S    
C2    C39   S    
C23   C25   A    
O8    C4    A    
C38   C40   S    
C37   C39   S    
C1    O11   A    
C25   H1    S    
O15   V3    S    
C9    C13   A    
C45   C53   A    
C31   C33   S    
C58   C60   A    
C58   H30   S    
C46   C48   A    
C55   C56   A    
C29   C34   S    
C61   H33   S    
O10   V2    S    
O1    V3    S    
C35   H17   S    
C59   H21   S    
C30   C33   S    
C50   C52   A    
C37   H15   S    
C53   C59   A    
C41   H19   S    
O18   V4    S    
C40   C42   S    
O15   C5    A    
O16   C6    A    
C12   C20   A    
O1    C3    A    
C1    C40   S    
C35   C37   S    
C36   C39   S    
C35   C40   S    
V2    O20   S    
C21   C24   A    
C20   C26   A    
C36   C42   S    
O10   C6    A    
C22   C23   A    
O16   V4    S    
C10   C14   A    
O18   C8    A    
C19   C25   A    
C38   H16   S    
C16   C18   A    
C62   H34   S    
C51   C53   A    
O5    V1    S    
O17   C7    A    
O6    V2    S    
C45   H27   S    
C12   H8    S    
C57   C59   A    
O2    V4    S    
C11   H7    S    
C27   C33   S    
C12   C14   A    
C4    C44   S    
V3    O19   S    
V4    O20   S    
C27   C32   S    
C54   C60   A    
C43   C49   A    
O9    C5    A    
C56   C57   A    
O13   V1    S    
C46   C54   A    
O14   V2    S    
O2    C4    A    
C6    C32   S    
C23   H9    S    
O4    V2    S    
C27   H11   S    
C55   C58   A    
C32   C34   S    
C16   H3    S    
C17   C21   A    
C34   H14   S    
C35   C41   S    
