data_mof_unit_42681.cif
_audit_creation_date              2012-12-10T18:06:39-0500
_audit_creation_method            fapswitch 2.2
_symmetry_space_group_name_H-M    P1
_symmetry_Int_Tables_number       1
_space_group_crystal_system       triclinic
_cell_length_a                    12.599516
_cell_length_b                    13.151112
_cell_length_c                    15.396283
_cell_angle_alpha                 83.32199
_cell_angle_beta                  98.53484
_cell_angle_gamma                 96.809208
_cell_volume                      2492.39597043

loop_
_atom_site_label
_atom_site_type_symbol
_atom_type_description
_atom_site_fract_x
_atom_site_fract_y
_atom_site_fract_z
_atom_type_partial_charge
C1    C     C_R   0.442053 0.308638 0.506877 0.856202
C2    C     C_R   0.692584 0.540286 0.929409 0.074780
C3    C     C_R   0.585431 0.560702 0.894754 0.025496
C4    C     C_R   0.436615 0.515755 0.335650 0.854407
C5    C     C_R   0.761328 0.510313 0.874456 0.478307
C6    C     C_R   0.717983 0.490105 0.787699 -0.334287
C7    C     C_R   0.545998 0.540649 0.808398 -0.273447
C8    C     C_R   0.645268 0.943112 0.369430 -0.200147
C9    C     C_R   0.583018 0.801095 0.469561 -0.050790
C10   C     C_R   0.330875 0.158836 0.568991 -0.187782
C11   C     C_R   0.310559 0.053211 0.587822 -0.147149
C12   C     C_R   0.468004 0.580640 0.097249 0.090146
C13   C     C_R   0.369311 0.987569 0.554084 -0.187986
C14   C     C_R   0.446330 0.027187 0.496950 0.088425
C15   C     C_R   0.454030 0.132848 0.467497 0.092705
C16   C     C_R   0.556134 0.691609 0.489106 0.856872
C17   C     C_R   0.515930 0.965593 0.467948 0.082668
C18   C     C_R   0.578964 0.005712 0.400110 0.178893
C19   C     C_R   0.573102 0.106868 0.362812 -0.253020
C20   C     C_R   0.511124 0.169774 0.395946 -0.207065
C21   C     C_R   0.525714 0.865321 0.505726 -0.253860
C22   C     C_R   0.645784 0.840098 0.403045 -0.190889
C23   C     C_R   0.366365 0.614612 0.062073 0.178072
C24   C     C_R   0.405218 0.199165 0.511250 -0.116905
C25   C     C_R   0.138329 0.638539 0.625288 -0.315462
C26   C     C_R   0.757738 0.381354 0.394804 0.022387
C27   C     C_R   0.853113 0.355670 0.372654 -0.249573
C28   C     C_R   0.565586 0.490724 0.663813 0.895109
C29   C     C_R   0.950773 0.400074 0.413172 -0.193417
C30   C     C_R   0.952868 0.471002 0.476096 0.014637
C31   C     C_R   0.853377 0.494165 0.496466 0.234834
C32   C     C_R   0.049015 0.519948 0.519116 -0.012140
C33   C     C_R   0.043983 0.589828 0.582082 0.202315
C34   C     C_R   0.547614 0.579322 0.041705 0.075822
C35   C     C_R   0.944933 0.610919 0.600816 -0.311439
C36   C     C_R   0.850916 0.564139 0.557997 -0.218395
C37   C     C_R   0.150853 0.502864 0.502024 -0.055645
C38   C     C_R   0.236571 0.618171 0.605251 0.012133
C39   C     C_R   0.406714 0.543546 0.241099 -0.059826
C40   C     C_R   0.610414 0.504466 0.755349 -0.109163
C41   C     C_R   0.287594 0.616224 0.117372 -0.199841
C42   C     C_R   0.308025 0.581579 0.206828 -0.188712
C43   C     C_R   0.484503 0.541729 0.185772 -0.262620
C44   C     C_3   0.940914 0.534428 0.851504 0.100968
C45   C     C_R   0.516804 0.591334 0.949621 0.103098
C46   C     C_3   0.053101 0.549117 0.903464 -0.829761
C47   C     C_R   0.417249 0.630561 0.915909 -0.230853
C48   C     C_R   0.344341 0.644395 0.971962 -0.243486
C49   C     C_R   0.656092 0.564462 0.074903 -0.263930
C50   C     C_R   0.728139 0.548165 0.019027 -0.184322
H1    H     H_    0.268734 0.674269 0.944250 0.146836
H2    H     H_    0.310981 0.654723 0.637794 0.121062
H3    H     H_    0.940013 0.664430 0.648250 0.148774
H4    H     H_    0.136020 0.691639 0.673649 0.137246
H5    H     H_    0.163400 0.451679 0.455698 0.126187
H6    H     H_    0.681356 0.347926 0.363235 0.129598
H7    H     H_    0.022488 0.377411 0.393742 0.138431
H8    H     H_    0.851395 0.301775 0.324270 0.149742
H9    H     H_    0.777377 0.584752 0.574046 0.215909
H10   H     H_    0.767238 0.461743 0.745831 0.165873
H11   H     H_    0.810258 0.536327 0.047372 0.193021
H12   H     H_    0.690181 0.790107 0.374086 0.160339
H13   H     H_    0.210205 0.643566 0.091338 0.136917
H14   H     H_    0.247176 0.584953 0.248954 0.160714
H15   H     H_    0.557331 0.506962 0.212259 0.160246
H16   H     H_    0.395047 0.653075 0.846448 0.139591
H17   H     H_    0.687661 0.567181 0.143852 0.152296
H18   H     H_    0.920910 0.610916 0.817738 0.126290
H19   H     H_    0.943537 0.480586 0.801478 0.159040
H20   H     H_    0.076468 0.474404 0.937838 0.268435
H21   H     H_    0.112270 0.579743 0.857687 0.202945
H22   H     H_    0.054574 0.604385 0.953063 0.243258
H23   H     H_    0.617682 0.137883 0.308944 0.142517
H24   H     H_    0.462604 0.548020 0.782674 0.170726
H25   H     H_    0.692888 0.972615 0.317131 0.138850
H26   H     H_    0.485660 0.833389 0.561558 0.140231
H27   H     H_    0.291006 0.208989 0.601787 0.160863
H28   H     H_    0.350804 0.906329 0.572001 0.130319
H29   H     H_    0.252370 0.022206 0.631702 0.141968
H30   H     H_    0.507021 0.247291 0.364229 0.154043
N1    N     N_R   0.239390 0.551900 0.544730 -0.100182
N2    N     N_R   0.759950 0.448600 0.455730 -0.129718
O1    O     O_R   0.374950 0.371210 0.521360 -0.613109
O2    O     O_R   0.542050 0.338030 0.492790 -0.605338
O3    O     O_R   0.368720 0.526070 0.390200 -0.613249
O4    O     O_R   0.535820 0.492890 0.361630 -0.629621
O5    O     O_R   0.457950 0.661970 0.507210 -0.610035
O6    O     O_R   0.625050 0.628790 0.478640 -0.636473
O7    O     O_R   0.464180 0.507110 0.638370 -0.618937
O8    O     O_R   0.631280 0.473930 0.609800 -0.630604
O9    O     O_3   0.866515 0.492268 0.909804 -0.623290
Zn1   Zn    Zn3+2 0.388420 0.522150 0.519080 0.936774
Zn2   Zn    Zn3+2 0.611580 0.477850 0.480920 0.925151

loop_
_geom_bond_atom_site_label_1
_geom_bond_atom_site_label_2
_ccdc_geom_bond_type
C35   H3    S    
C41   C42   A    
C19   C20   A    
C36   H9    S    
C1    O2    A    
O1    Zn1   S    
C21   H26   S    
C26   C27   A    
C31   N2    A    
C9    C16   S    
C12   C43   A    
C3    C7    A    
C30   C31   A    
C9    C22   A    
C27   C29   A    
C28   C40   S    
C18   C19   A    
C2    C50   A    
O6    Zn2   S    
N1    Zn1   S    
O3    Zn1   S    
C48   H1    S    
C35   C36   A    
C16   O5    A    
C8    C22   A    
C7    C40   A    
C28   O7    A    
C39   C42   A    
C47   H16   S    
C46   H22   S    
C26   N2    A    
N2    Zn2   S    
C13   C14   A    
C14   C17   A    
C37   N1    A    
C10   H27   S    
C44   C46   S    
C7    H24   S    
C45   C47   A    
C15   C20   A    
C20   H30   S    
C6    H10   S    
C19   H23   S    
C25   H4    S    
C39   C43   A    
C4    O3    A    
C10   C24   A    
C3    C45   A    
C8    H25   S    
C8    C18   A    
C29   C30   A    
O4    Zn2   S    
C25   C38   A    
C22   H12   S    
C47   C48   A    
C12   C23   A    
C4    C39   S    
C43   H15   S    
C17   C18   A    
C44   H19   S    
C34   C45   A    
C32   C37   A    
O7    Zn1   S    
C46   H21   S    
C5    O9    S    
C44   O9    S    
C11   H29   S    
C15   C24   A    
C29   H7    S    
C38   N1    A    
C6    C40   A    
C44   H18   S    
C2    C5    A    
C41   H13   S    
C12   C34   A    
C42   H14   S    
O8    Zn2   S    
C13   H28   S    
C34   C49   A    
C23   C48   A    
C49   H17   S    
C31   C36   A    
C27   H8    S    
C26   H6    S    
C1    O1    A    
C23   C41   A    
C32   C33   A    
C2    C3    A    
C30   C32   A    
C11   C13   A    
C9    C21   A    
C5    C6    A    
C38   H2    S    
C33   C35   A    
O2    Zn2   S    
C17   C21   A    
C46   H20   S    
C10   C11   A    
C37   H5    S    
C4    O4    A    
C1    C24   S    
C49   C50   A    
C16   O6    A    
C50   H11   S    
C14   C15   A    
C28   O8    A    
O5    Zn1   S    
C25   C33   A    
