data_mof_unit_61455.cif
_audit_creation_date              2012-12-10T18:21:49-0500
_audit_creation_method            fapswitch 2.2
_symmetry_space_group_name_H-M    P1
_symmetry_Int_Tables_number       1
_space_group_crystal_system       triclinic
_cell_length_a                    19.390952
_cell_length_b                    10.645457
_cell_length_c                    9.444993
_cell_angle_alpha                 90.034034
_cell_angle_beta                  90.367519
_cell_angle_gamma                 90.096677
_cell_volume                      1949.64459261

loop_
_atom_site_label
_atom_site_type_symbol
_atom_type_description
_atom_site_fract_x
_atom_site_fract_y
_atom_site_fract_z
_atom_type_partial_charge
C1    C     C_R   0.499887 0.259742 0.499769 0.923141
C2    C     C_R   0.500113 0.740258 0.500231 0.923141
C3    C     C_3   0.556237 0.042300 0.565746 0.581282
C4    C     C_3   0.443763 0.957700 0.434254 0.581283
C5    C     C_3   0.557148 0.958090 0.432268 -0.423914
C6    C     C_3   0.442852 0.041910 0.567731 -0.423915
C7    C     C_3   0.500512 0.876718 0.500810 -0.413033
C8    C     C_3   0.499488 0.123282 0.499190 -0.413033
C9    C     C_3   0.500498 0.960074 0.633388 0.676339
C10   C     C_3   0.499502 0.039926 0.366611 0.676339
C11   C     C_3   0.517979 0.607705 0.049642 0.630469
C12   C     C_3   0.482021 0.392295 0.950357 0.630469
C13   C     C_3   0.457747 0.581882 0.949610 0.661249
C14   C     C_3   0.542253 0.418118 0.050390 0.661249
C15   C     C_3   0.561191 0.526121 0.949972 -0.373879
C16   C     C_3   0.438809 0.473879 0.050028 -0.373880
C17   C     C_R   0.367600 0.500608 0.499622 0.859457
C18   C     C_R   0.632400 0.499392 0.500378 0.859457
C19   C     C_R   0.256045 0.476864 0.625383 -0.277255
C20   C     C_R   0.743955 0.523135 0.374617 -0.277254
C21   C     C_R   0.184200 0.476256 0.627701 0.681096
C22   C     C_R   0.815799 0.523743 0.372299 0.681096
C23   C     C_R   0.146261 0.500439 0.502921 -0.180283
C24   C     C_R   0.853739 0.499561 0.497079 -0.180283
C25   C     C_R   0.182039 0.525421 0.377079 -0.258275
C26   C     C_R   0.817961 0.474579 0.622921 -0.258275
C27   C     C_R   0.253843 0.526017 0.374865 0.669530
C28   C     C_R   0.746157 0.473983 0.625135 0.669531
C29   C     C_R   0.291629 0.501180 0.499343 -0.253546
C30   C     C_R   0.708371 0.498820 0.500657 -0.253546
C31   C     C_R   0.929968 0.499840 0.498180 0.472826
C32   C     C_R   0.070032 0.500160 0.501820 0.472826
Cu1   Cu    Cu3+1 0.500020 0.499990 0.643150 1.134144
Cu2   Cu    Cu3+1 0.499980 0.500010 0.356850 1.134144
N1    N     N_R   0.034617 0.521247 0.379727 -0.203569
N2    N     N_R   0.965383 0.478753 0.620273 -0.203568
N3    N     N_R   0.966051 0.521084 0.377967 -0.102923
N4    N     N_R   0.033949 0.478915 0.622033 -0.102923
N5    N     N_3   0.500050 0.499970 0.858290 -0.325910
N6    N     N_3   0.499950 0.500030 0.141710 -0.325909
O1    O     O_R   0.500030 0.316850 0.620870 -0.507248
O2    O     O_R   0.499970 0.683150 0.379130 -0.507248
O3    O     O_R   0.500000 0.316860 0.379090 -0.525745
O4    O     O_R   0.500000 0.683140 0.620910 -0.525744
O5    O     O_R   0.400160 0.499980 0.620930 -0.566385
O6    O     O_R   0.599840 0.500020 0.379070 -0.566385
O7    O     O_R   0.400130 0.499990 0.379150 -0.532735
O8    O     O_R   0.599870 0.500010 0.620850 -0.532735
H1    H     H_    0.283810 0.457341 0.722786 0.233377
H2    H     H_    0.716190 0.542658 0.277214 0.233377
H3    H     H_    0.612243 0.549109 0.904348 0.259340
H4    H     H_    0.387757 0.450891 0.095652 0.259340
F1    F     F_    0.152450 0.451564 0.752300 -0.591798
F2    F     F_    0.847550 0.548434 0.247700 -0.591797
H5    H     H_    0.154540 0.545077 0.279459 0.232723
H6    H     H_    0.845460 0.454924 0.720542 0.232723
F3    F     F_    0.285839 0.552894 0.251115 -0.601391
F4    F     F_    0.714161 0.447107 0.748885 -0.601391
H7    H     H_    0.603607 0.922444 0.377267 0.245620
H8    H     H_    0.396393 0.077556 0.622733 0.245620
F5    F     F_    0.613807 0.088726 0.635408 -0.550790
F6    F     F_    0.386193 0.911274 0.364592 -0.550790
F7    F     F_    0.502110 0.917349 0.771615 -0.495206
F8    F     F_    0.497890 0.082651 0.228385 -0.495206
F9    F     F_    0.413448 0.669845 0.891730 -0.533945
F10   F     F_    0.586552 0.330155 0.108270 -0.533945
F11   F     F_    0.536821 0.722975 0.105203 -0.542764
F12   F     F_    0.463179 0.277025 0.894797 -0.542765

loop_
_geom_bond_atom_site_label_1
_geom_bond_atom_site_label_2
_ccdc_geom_bond_type
C27   C29   A    
C1    C8    S    
Cu1   O5    S    
C2    C7    S    
Cu2   O2    S    
C6    C9    S    
C22   F2    S    
C20   C30   A    
C12   F12   S    
Cu1   N5    S    
Cu2   N6    S    
N1    N3    A    
C24   C26   A    
C4    F6    S    
C17   C29   S    
C20   H2    S    
C11   C15   S    
C1    O3    A    
C12   C16   S    
C17   O7    A    
C2    O4    A    
Cu2   O6    S    
C15   H3    S    
C9    F7    S    
C4    C7    S    
C18   O6    A    
C11   F11   S    
C3    F5    S    
C5    H7    S    
C32   N1    A    
C6    H8    S    
C4    C6    S    
C3    C8    S    
C27   F3    S    
C5    C7    S    
C6    C8    S    
C31   N3    A    
C26   H6    S    
C3    C9    S    
C19   H1    S    
Cu1   Cu2   S    
C14   F10   S    
C15   N5    S    
C16   N6    S    
C18   C30   S    
C1    O1    A    
C20   C22   A    
C32   N4    A    
C21   C23   A    
C22   C24   A    
C4    C10   S    
C19   C29   A    
C16   H4    S    
C7    C9    S    
C19   C21   A    
C14   C15   S    
Cu1   O4    S    
C10   F8    S    
Cu2   O3    S    
C25   H5    S    
C17   O5    A    
C3    C5    S    
C18   O8    A    
C28   F4    S    
C25   C27   A    
C26   C28   A    
Cu1   O1    S    
C23   C32   S    
C12   N5    S    
N2    N4    A    
C12   C14   S    
C24   C31   S    
C5    C10   S    
C21   F1    S    
C11   C13   S    
C2    O2    A    
C28   C30   A    
C23   C25   A    
C11   N6    S    
C13   F9    S    
C13   N5    S    
C14   N6    S    
C8    C10   S    
C13   C16   S    
Cu1   O8    S    
C31   N2    A    
Cu2   O7    S    
