data_mof_unit_56151.cif
_audit_creation_date              2012-12-10T17:02:01-0500
_audit_creation_method            fapswitch 2.2
_symmetry_space_group_name_H-M    P1
_symmetry_Int_Tables_number       1
_space_group_crystal_system       triclinic
_cell_length_a                    10.798049
_cell_length_b                    11.050264
_cell_length_c                    9.87364
_cell_angle_alpha                 111.292801
_cell_angle_beta                  97.879881
_cell_angle_gamma                 91.625742
_cell_volume                      1083.44167742

loop_
_atom_site_label
_atom_site_type_symbol
_atom_type_description
_atom_site_fract_x
_atom_site_fract_y
_atom_site_fract_z
_atom_type_partial_charge
C1    C     C_R   0.492480 0.254071 0.440295 0.846548
C2    C     C_R   0.082938 0.612126 0.615151 0.104278
C3    C     C_R   0.129008 0.508525 0.504886 -0.139591
C4    C     C_R   0.045460 0.413728 0.390083 -0.070101
C5    C     C_R   0.917436 0.419989 0.388579 -0.142749
C6    C     C_R   0.870951 0.516003 0.500543 -0.110282
C7    C     C_2   0.491511 0.114392 0.406919 -0.341849
C8    C     C_2   0.519742 0.071965 0.516696 -0.050067
C9    C     C_2   0.507346 0.887126 0.597280 0.272580
C10   C     C_2   0.514547 0.933222 0.489698 -0.256322
C11   C     C_2   0.506235 0.516140 0.083019 -0.021212
C12   C     C_R   0.262864 0.502808 0.502044 0.747181
C13   C     C_2   0.480609 0.499195 0.922294 0.051600
C14   C     C_R   0.506784 0.746301 0.560342 0.724132
C15   C     C_R   0.737220 0.506157 0.500214 0.795915
C16   C     C_R   0.163168 0.715416 0.724368 -0.181258
C17   C     C_R   0.115405 0.813032 0.834240 -0.146066
C18   C     C_R   0.986514 0.813405 0.834696 0.428906
C19   C     C_R   0.905477 0.718458 0.721861 -0.251698
C20   C     C_R   0.952056 0.614939 0.613317 0.052230
Cu1   Cu    Cu3+1 0.521920 0.521810 0.644910 0.990857
Cu2   Cu    Cu3+1 0.478080 0.478190 0.355090 0.997493
H1    H     H_    0.466520 0.046554 0.293671 0.167349
H2    H     H_    0.577871 0.590683 0.156172 0.153111
H3    H     H_    0.634669 0.608196 0.929835 0.223233
H4    H     H_    0.381290 0.370611 0.067387 0.246671
H5    H     H_    0.263133 0.723851 0.726242 0.212463
H6    H     H_    0.179241 0.889194 0.917998 0.195527
H7    H     H_    0.806156 0.728357 0.719569 0.161496
H8    H     H_    0.853072 0.345114 0.303199 0.203986
H9    H     H_    0.516977 0.866844 0.377588 0.164530
H10   H     H_    0.546132 0.141301 0.628517 0.236275
N1    N     N_2   0.445130 0.445430 0.137370 -0.263253
N2    N     N_2   0.554930 0.554500 0.862630 -0.312042
O1    O     O_R   0.511700 0.332330 0.577400 -0.605386
O2    O     O_R   0.474680 0.295500 0.332650 -0.561214
O3    O     O_R   0.338160 0.518420 0.622400 -0.586624
O4    O     O_R   0.301140 0.481590 0.377650 -0.568998
O5    O     O_R   0.525320 0.704500 0.667350 -0.525505
O6    O     O_R   0.488300 0.667670 0.422600 -0.598982
O7    O     O_R   0.698860 0.518410 0.622350 -0.568158
O8    O     O_R   0.661840 0.481580 0.377600 -0.571545
C21   C     C_2   0.089444 0.304254 0.272455 0.510749
H11   H     H_    0.177022 0.263793 0.294032 0.059541
O9    O     O_2   0.028676 0.259607 0.148851 -0.437504
C22   C     C_2   0.364018 0.420401 0.834485 0.496311
H12   H     H_    0.365579 0.337719 0.734200 0.110960
O10   O     O_2   0.263262 0.447354 0.875875 -0.534291
S1    S     S_3+6 0.924886 0.934115 0.974327 0.058216
O11   O     O_2   0.021396 0.987388 0.111078 -0.255418
O12   O     O_2   0.889540 0.042402 0.922428 -0.203212
O13   O     O_3   0.796918 0.870956 0.013426 -0.514173
H13   H     H_    0.726667 0.873347 0.938841 0.379867
S2    S     S_3+6 0.492890 0.990930 0.780634 -0.019616
O14   O     O_2   0.613556 0.074946 0.851418 -0.261721
O15   O     O_2   0.388252 0.076791 0.775196 -0.318895
O16   O     O_3   0.461515 0.904982 0.883694 -0.544691
H14   H     H_    0.454955 0.971264 0.981445 0.370416

loop_
_geom_bond_atom_site_label_1
_geom_bond_atom_site_label_2
_ccdc_geom_bond_type
C9    C14   S    
Cu1   O1    S    
C4    C21   S    
C2    C16   A    
C11   C13   S    
C9    C10   D    
S2    O14   D    
H4    N1    S    
C19   C20   A    
Cu1   O5    S    
H3    N2    S    
C21   H11   S    
S1    O13   S    
Cu2   O6    S    
C16   H5    S    
C17   C18   A    
C18   S1    S    
C7    C8    D    
Cu1   Cu2   S    
C21   O9    D    
C1    O1    A    
O16   H14   S    
Cu2   O8    S    
C8    H10   S    
C6    C20   A    
C7    H1    S    
C5    C6    A    
C15   O8    A    
C2    C3    A    
S2    O15   D    
C12   O4    A    
C13   C22   S    
C14   O5    A    
Cu1   O7    S    
C16   C17   A    
C14   O6    A    
C3    C4    A    
C19   H7    S    
C22   O10   D    
C11   H2    S    
C11   N1    D    
Cu1   O3    S    
O13   H13   S    
C15   O7    A    
C8    C10   S    
S1    O11   D    
C5    H8    S    
C12   O3    A    
C3    C12   S    
Cu2   N1    S    
C22   H12   S    
C18   C19   A    
C13   N2    D    
C9    S2    S    
C6    C15   S    
C1    C7    S    
C17   H6    S    
C2    C20   A    
C10   H9    S    
Cu1   N2    S    
Cu2   O2    S    
C1    O2    A    
C4    C5    A    
S1    O12   D    
S2    O16   S    
Cu2   O4    S    
