data_mof_unit_47088.cif
_audit_creation_date              2013-03-05T15:44:50-0500
_audit_creation_method            fapswitch 2.2
_symmetry_space_group_name_H-M    P1
_symmetry_Int_Tables_number       1
_space_group_crystal_system       triclinic
_cell_length_a                    17.337633
_cell_length_b                    17.82522
_cell_length_c                    6.951619
_cell_angle_alpha                 89.999654
_cell_angle_beta                  90.894643
_cell_angle_gamma                 90.000021
_cell_volume                      2148.11595431

loop_
_atom_site_label
_atom_site_type_symbol
_atom_site_description
_atom_site_fract_x
_atom_site_fract_y
_atom_site_fract_z
_atom_type_partial_charge
O1    O     O_R   0.796490 0.328940 0.373020 -0.564912
O2    O     O_R   0.203510 0.671060 0.626980 -0.562265
O3    O     O_R   0.203510 0.828940 0.626980 -0.564905
O4    O     O_R   0.796490 0.171060 0.373020 -0.562261
O5    O     O_R   0.805560 0.173330 0.702970 -0.575816
O6    O     O_R   0.194440 0.826670 0.297030 -0.579562
O7    O     O_R   0.194440 0.673330 0.297030 -0.575816
O8    O     O_R   0.805560 0.326670 0.702970 -0.579572
O9    O     O_R   0.658440 0.172360 0.870170 -0.596875
O10   O     O_R   0.341560 0.827640 0.129830 -0.597952
O11   O     O_R   0.341560 0.672360 0.129830 -0.596877
O12   O     O_R   0.658440 0.327640 0.870170 -0.597951
C1    C     C_R   0.825287 0.147561 0.535848 1.023754
C2    C     C_R   0.175310 0.852988 0.464018 1.031917
C3    C     C_R   0.174714 0.647560 0.464153 1.023761
C4    C     C_R   0.824691 0.352986 0.535981 1.031916
O13   O     O_3   0.679200 0.250000 0.537050 -0.298790
O14   O     O_3   0.320800 0.750000 0.462950 -0.298794
V1    V     V_3+5 0.736420 0.250000 0.813120 1.251368
V2    V     V_3+5 0.263580 0.750000 0.186880 1.251374
O15   O     O_R   0.649370 0.327980 0.199650 -0.597786
O16   O     O_R   0.350630 0.672020 0.800350 -0.596913
O17   O     O_R   0.350630 0.827980 0.800350 -0.597788
O18   O     O_R   0.649370 0.172020 0.199650 -0.596912
C5    C     C_R   0.630506 0.354351 0.029668 0.958029
C6    C     C_R   0.369493 0.645649 0.970333 0.959510
C7    C     C_R   0.369494 0.854351 0.970332 0.958035
C8    C     C_R   0.630507 0.145649 0.029668 0.959511
V3    V     V_3+5 0.718510 0.250000 0.312740 1.238681
V4    V     V_3+5 0.281490 0.750000 0.687260 1.238684
O19   O     O_3   0.775740 0.250000 0.038930 -0.200670
O20   O     O_3   0.224260 0.750000 0.961070 -0.200669
C9    C     C_1   0.574068 0.083188 0.017087 -0.291677
C10   C     C_1   0.425936 0.916808 0.982911 -0.289953
C11   C     C_1   0.425932 0.583188 0.982914 -0.291675
C12   C     C_1   0.574064 0.416808 0.017087 -0.289950
C13   C     C_1   0.527468 0.030927 0.006373 0.070355
C14   C     C_1   0.472538 0.969069 0.993625 0.070022
C15   C     C_1   0.472532 0.530926 0.993627 0.070356
C16   C     C_1   0.527462 0.469069 0.006374 0.070023
H1    H     H_    0.826108 0.028668 0.766885 0.166360
H2    H     H_    0.163217 0.960968 0.204986 0.176017
H3    H     H_    0.173909 0.528654 0.233167 0.166350
H4    H     H_    0.836787 0.460962 0.795016 0.176001
C17   C     C_R   0.882259 0.085381 0.534594 -0.355818
C18   C     C_R   0.116447 0.913517 0.462605 -0.385758
C19   C     C_R   0.117744 0.585378 0.465412 -0.355820
C20   C     C_R   0.883556 0.413514 0.537393 -0.385751
C21   C     C_R   0.059787 0.016892 0.281707 0.641144
C22   C     C_R   0.928145 0.970314 0.685869 0.576271
C23   C     C_R   0.940214 0.516890 0.718290 0.641144
C24   C     C_R   0.071869 0.470301 0.314174 0.576347
C25   C     C_R   0.117711 0.964177 0.309981 -0.156077
C26   C     C_R   0.875110 0.028749 0.671821 -0.213763
C27   C     C_R   0.882292 0.464172 0.690020 -0.156085
C28   C     C_R   0.124903 0.528738 0.328211 -0.213781
C29   C     C_R   0.056826 0.918541 0.598556 0.315487
C30   C     C_R   0.944057 0.082741 0.404740 0.309180
C31   C     C_R   0.943178 0.418539 0.401444 0.315461
C32   C     C_R   0.055943 0.582741 0.595256 0.309173
C33   C     C_R   0.994798 0.970173 0.568525 -0.180305
C34   C     C_R   0.999109 0.023479 0.416041 -0.205837
C35   C     C_R   0.005209 0.470168 0.431489 -0.180324
C36   C     C_R   0.000893 0.523477 0.583960 -0.205831
O21   O     O_3   0.061919 0.056904 0.112629 -0.676747
H5    H     H_    0.010174 0.052138 0.051292 0.351635
O22   O     O_3   0.909938 0.912463 0.808345 -0.700716
H6    H     H_    0.922161 0.864907 0.741567 0.355702
O23   O     O_3   0.938078 0.556903 0.887363 -0.676764
H7    H     H_    0.989824 0.552144 0.948701 0.351634
O24   O     O_3   0.090089 0.412439 0.191750 -0.700713
H8    H     H_    0.077842 0.364890 0.258518 0.355718
N1    N     N_R   0.956997 0.145409 0.281007 0.249207
O25   O     O_R   0.020162 0.184240 0.302123 -0.316980
O26   O     O_R   0.914783 0.153814 0.126068 -0.348340
N2    N     N_R   0.062476 0.875803 0.772624 0.244094
O27   O     O_R   0.060536 0.909234 0.938284 -0.379692
O28   O     O_R   0.066613 0.803270 0.767019 -0.315530
N3    N     N_R   0.042997 0.645412 0.718972 0.249207
O29   O     O_R   0.979832 0.684240 0.697837 -0.316989
O30   O     O_R   0.085208 0.653822 0.873916 -0.348331
N4    N     N_R   0.937529 0.375804 0.227367 0.244094
O31   O     O_R   0.939516 0.409229 0.061721 -0.379698
O32   O     O_R   0.933377 0.303273 0.232968 -0.315529

loop_
_geom_bond_atom_site_label_1
_geom_bond_atom_site_label_2
_geom_bond_distance
_ccdc_geom_bond_type
O10   C7    1.306669 A    
C30   C34   1.425039 A    
C20   C27   1.393681 A    
C1    C17   1.484758 S    
C32   N3    1.429691 S    
O13   V3    1.711478 S    
N1    O25   1.301894 A    
C31   N4    1.431973 S    
C3    C19   1.484757 S    
V1    O19   1.701594 S    
C4    C20   1.485065 S    
C2    C18   1.485062 S    
C23   C27   1.387082 A    
C22   C26   1.391826 A    
C21   O21   1.375818 S    
C29   N2    1.431951 S    
N2    O28   1.295510 A    
H2    C25   1.084638 S    
C18   C25   1.393675 A    
O4    C1    1.299349 A    
O18   V3    1.989397 S    
C19   C32   1.412525 A    
O9    V1    1.979194 S    
O10   V2    1.979196 S    
O14   V4    1.711479 S    
O17   C7    1.308492 A    
C22   O22   1.377074 S    
O5    C1    1.300036 A    
O4    V3    1.991425 S    
O7    C3    1.300039 A    
O8    C4    1.299865 A    
N1    O26   1.301388 A    
O23   H7    0.990922 S    
C7    C10   1.483937 S    
O11   V2    1.979201 S    
C17   C30   1.412527 A    
O8    V1    1.979818 S    
O22   H6    0.990983 S    
O17   V4    1.989397 S    
C12   C16   1.234605 T    
N2    O27   1.297564 A    
C15   C16   1.458770 S    
N3    O30   1.301388 A    
O11   C6    1.306668 A    
O15   V3    1.989390 S    
O7    V2    1.979817 S    
C9    C13   1.234606 T    
N3    O29   1.301891 A    
O3    V4    1.991423 S    
C11   C15   1.234607 T    
C13   C14   1.458770 S    
O6    C2    1.299865 A    
C6    C11   1.483936 S    
O1    V3    1.991426 S    
O1    C4    1.299548 A    
O2    C3    1.299346 A    
O3    C2    1.299550 A    
C17   C26   1.395752 A    
N4    O31   1.297456 A    
N4    O32   1.295501 A    
C18   C29   1.414291 A    
C20   C31   1.414302 A    
V2    O20   1.701593 S    
O15   C5    1.308492 A    
C21   C34   1.422409 A    
O16   V4    1.989393 S    
C10   C14   1.234607 T    
C23   C36   1.422406 A    
O18   C8    1.308497 A    
C24   C35   1.424872 A    
C8    C9    1.483937 S    
C29   C33   1.428341 A    
O5    V1    1.979826 S    
O6    V2    1.979823 S    
C31   C35   1.428346 A    
O2    V4    1.991427 S    
O12   C5    1.306670 A    
C32   C36   1.425036 A    
O24   H8    0.990938 S    
V3    O19   2.160213 S    
C24   O24   1.377051 S    
V4    O20   2.160213 S    
H4    C27   1.084637 S    
C21   C25   1.387088 A    
O12   V1    1.979197 S    
O13   V1    2.146578 S    
O14   V2    2.146580 S    
C33   C34   1.426369 A    
H1    C26   1.084444 S    
C5    C12   1.483938 S    
C35   C36   1.426359 A    
H3    C28   1.084437 S    
O9    C8    1.306668 A    
O21   H5    0.990927 S    
O16   C6    1.308494 A    
C22   C33   1.424880 A    
C23   O23   1.375813 S    
C24   C28   1.391831 A    
C30   N1    1.429695 S    
C19   C28   1.395746 A    
