data_mof_unit_55015.cif
_audit_creation_date              2012-12-11T14:01:41-0500
_audit_creation_method            fapswitch 2.2
_symmetry_space_group_name_H-M    P1
_symmetry_Int_Tables_number       1
_space_group_crystal_system       triclinic
_cell_length_a                    19.014662
_cell_length_b                    10.980069
_cell_length_c                    18.749462
_cell_angle_alpha                 90.209086
_cell_angle_beta                  90.264547
_cell_angle_gamma                 89.921301
_cell_volume                      3914.48442068

loop_
_atom_site_label
_atom_site_type_symbol
_atom_type_description
_atom_site_fract_x
_atom_site_fract_y
_atom_site_fract_z
_atom_type_partial_charge
C1    C     C_R   0.272597 0.042257 0.853602 0.551475
C2    C     C_R   0.010253 0.665013 0.966632 -0.162269
C3    C     C_R   0.485856 0.163782 0.035103 -0.161567
C4    C     C_R   0.510709 0.165139 0.965740 -0.162342
C5    C     C_2   0.262686 0.631511 0.931585 -0.099409
C6    C     C_2   0.750836 0.579163 0.079539 -0.099055
C7    C     C_2   0.749086 0.079596 0.920320 -0.099983
C8    C     C_2   0.251059 0.078529 0.079775 -0.100406
C9    C     C_2   0.255277 0.605866 0.085261 -0.104802
C10   C     C_2   0.750147 0.587118 0.922938 -0.104847
C11   C     C_2   0.749833 0.086532 0.077142 -0.104782
C12   C     C_R   0.727458 0.042206 0.146469 0.557643
C13   C     C_2   0.250317 0.086375 0.923171 -0.102151
C14   C     C_2   0.306802 0.557142 0.045824 -0.159683
C15   C     C_2   0.704795 0.522295 0.962214 -0.164880
C16   C     C_2   0.794883 0.021215 0.037390 -0.164648
C17   C     C_2   0.205300 0.020903 0.962498 -0.169235
C18   C     C_2   0.317551 0.596930 0.972055 -0.168229
C19   C     C_2   0.695978 0.546681 0.038360 -0.168250
C20   C     C_2   0.803821 0.046111 0.961361 -0.168264
C21   C     C_2   0.196339 0.045318 0.038624 -0.169841
C22   C     C_2   0.485914 0.828833 0.571493 -0.093472
C23   C     C_R   0.772541 0.542443 0.853522 0.557455
C24   C     C_2   0.487685 0.840089 0.415305 -0.114088
C25   C     C_2   0.985634 0.328896 0.571383 -0.102475
C26   C     C_2   0.987359 0.340092 0.415147 -0.110809
C27   C     C_2   0.467610 0.742542 0.451754 -0.161276
C28   C     C_2   0.453133 0.749677 0.527441 -0.144969
C29   C     C_2   0.967418 0.242533 0.451676 -0.162784
C30   C     C_2   0.952835 0.249755 0.527353 -0.150071
C31   C     C_2   0.254814 0.612585 0.569131 -0.104215
C32   C     C_2   0.754109 0.565518 0.416436 -0.106590
C33   C     C_2   0.746183 0.065326 0.583238 -0.110297
C34   C     C_R   0.228473 0.545425 0.148268 0.557135
C35   C     C_2   0.245846 0.111549 0.430357 -0.089938
C36   C     C_2   0.257169 0.604933 0.413792 -0.108594
C37   C     C_2   0.762124 0.568142 0.571755 -0.090692
C38   C     C_2   0.737928 0.069376 0.428099 -0.087943
C39   C     C_2   0.243340 0.103337 0.585769 -0.107932
C40   C     C_R   0.472459 0.822384 0.852734 0.580520
C41   C     C_R   0.528397 0.822028 0.146574 0.589000
C42   C     C_R   0.972168 0.322347 0.852975 0.588899
C43   C     C_R   0.028082 0.322054 0.146845 0.588237
C44   C     C_2   0.217735 0.682400 0.450702 -0.166149
C45   C     C_R   0.477714 0.053199 0.072375 0.282833
C46   C     C_2   0.817993 0.558871 0.528077 -0.146764
C47   C     C_2   0.682176 0.058946 0.471749 -0.146564
C48   C     C_2   0.282986 0.180436 0.549223 -0.167825
C49   C     C_2   0.229854 0.701071 0.526148 -0.152518
C50   C     C_2   0.813539 0.584215 0.452493 -0.166845
C51   C     C_2   0.686604 0.083763 0.547439 -0.168256
C52   C     C_2   0.271224 0.199332 0.473837 -0.149562
C53   C     C_R   0.272095 0.677097 0.859757 0.567688
C54   C     C_R   0.739056 0.635832 0.148672 0.559900
C55   C     C_R   0.760964 0.136046 0.851332 0.560997
C56   C     C_R   0.521049 0.055750 0.927361 0.284698
C57   C     C_R   0.239097 0.135701 0.148739 0.562785
C58   C     C_R   0.270973 0.048071 0.649638 0.559466
C59   C     C_R   0.726219 0.042639 0.353723 0.554066
C60   C     C_R   0.773909 0.541985 0.646140 0.554006
C61   C     C_R   0.229128 0.548574 0.350223 0.556387
C62   C     C_R   0.467903 0.823143 0.646175 0.549609
C63   C     C_R   0.527701 0.824774 0.350558 0.550840
C64   C     C_R   0.967790 0.323142 0.646109 0.547926
C65   C     C_R   0.027637 0.324776 0.350525 0.555178
C66   C     C_R   0.261601 0.641785 0.643880 0.552632
C67   C     C_R   0.976986 0.553311 0.073201 0.283242
C68   C     C_R   0.740202 0.634029 0.352405 0.551660
C69   C     C_R   0.759878 0.133879 0.647505 0.549030
C70   C     C_R   0.238553 0.141672 0.355910 0.546571
C71   C     C_R   0.500557 0.829591 0.073479 0.032987
C72   C     C_R   0.503961 0.831207 0.924250 0.032722
C73   C     C_R   0.999023 0.329733 0.074280 0.032700
C74   C     C_R   0.002385 0.330888 0.925062 0.033007
C75   C     C_R   0.494767 0.942635 0.036814 0.000675
C76   C     C_R   0.506759 0.943735 0.962024 0.002147
C77   C     C_R   0.993640 0.442677 0.037564 0.002045
C78   C     C_R   0.020358 0.555549 0.928202 0.289419
C79   C     C_R   0.005641 0.443563 0.962778 0.002722
C80   C     C_R   0.507198 0.721631 0.961736 -0.176412
C81   C     C_R   0.503826 0.720693 0.034546 -0.172538
C82   C     C_R   0.003937 0.221264 0.962753 -0.168504
C83   C     C_R   0.000730 0.220635 0.035548 -0.169445
C84   C     C_3   0.453035 0.152848 0.180717 -0.001407
C85   C     C_3   0.429041 0.127021 0.256322 -0.326837
C86   C     C_3   0.544932 0.159930 0.820562 0.001335
C87   C     C_3   0.567427 0.136722 0.744038 -0.331584
C88   C     C_3   0.952901 0.652711 0.181771 0.001423
C89   C     C_R   0.985370 0.663836 0.035984 -0.162637
C90   C     C_3   0.928743 0.626744 0.257311 -0.332469
C91   C     C_3   0.044666 0.659808 0.821559 0.003137
C92   C     C_3   0.067142 0.636662 0.745038 -0.322414
Cr1   Cr    Cr6+3 0.230530 0.836340 0.748870 0.985638
Cr2   Cr    Cr6+3 0.614360 0.677860 0.250770 1.011971
Cr3   Cr    Cr6+3 0.885640 0.177860 0.749230 1.010598
Cr4   Cr    Cr6+3 0.114360 0.177860 0.250770 1.012175
Cr5   Cr    Cr6+3 0.769470 0.836340 0.251130 0.994342
Cr6   Cr    Cr6+3 0.730530 0.336340 0.748870 0.996760
Cr7   Cr    Cr6+3 0.269470 0.336340 0.251130 0.989254
Cr8   Cr    Cr6+3 0.387420 0.989430 0.750820 1.012271
Cr9   Cr    Cr6+3 0.612580 0.989430 0.249180 1.011858
Cr10  Cr    Cr6+3 0.887420 0.489430 0.750820 1.014140
Cr11  Cr    Cr6+3 0.112580 0.489430 0.249180 1.012933
Cr12  Cr    Cr6+3 0.385640 0.677860 0.749230 1.010534
H1    H     H_    0.507918 0.634257 0.934653 0.136399
H2    H     H_    0.858162 0.629732 0.428325 0.145409
H3    H     H_    0.641817 0.128767 0.571956 0.146620
H4    H     H_    0.289224 0.286005 0.452820 0.153424
H5    H     H_    0.305910 0.568948 0.435832 0.095431
H6    H     H_    0.709156 0.585868 0.552594 0.093777
H7    H     H_    0.790794 0.088060 0.447279 0.085181
H8    H     H_    0.194843 0.067022 0.563376 0.104066
H9    H     H_    0.273133 0.525148 0.549338 0.084163
H10   H     H_    0.711310 0.513166 0.439221 0.110907
H11   H     H_    0.789193 0.013497 0.560060 0.104459
H12   H     H_    0.507162 0.632720 0.060366 0.136616
H13   H     H_    0.227300 0.024242 0.449624 0.086111
H14   H     H_    0.973882 0.751173 0.059925 0.087333
H15   H     H_    0.020221 0.753302 0.943588 0.085469
H16   H     H_    0.474146 0.251068 0.058994 0.088343
H17   H     H_    0.520408 0.253472 0.942632 0.087408
H18   H     H_    0.338304 0.481745 0.065576 0.144249
H19   H     H_    0.674656 0.447938 0.939026 0.148679
H20   H     H_    0.824764 0.946283 0.060124 0.148773
H21   H     H_    0.175447 0.946180 0.939331 0.144577
H22   H     H_    0.370152 0.592050 0.949941 0.150160
H23   H     H_    0.003672 0.133684 0.935889 0.137272
H24   H     H_    0.643134 0.541231 0.059876 0.150135
H25   H     H_    0.856663 0.040077 0.939822 0.151327
H26   H     H_    0.143482 0.039593 0.060089 0.150785
H27   H     H_    0.226200 0.684808 0.066369 0.107928
H28   H     H_    0.778437 0.663709 0.946114 0.110068
H29   H     H_    0.721747 0.163582 0.054411 0.110190
H30   H     H_    0.278391 0.163192 0.946348 0.113625
H31   H     H_    0.209473 0.630827 0.952526 0.125077
H32   H     H_    0.803798 0.581128 0.057971 0.131967
H33   H     H_    0.696119 0.082144 0.941883 0.131157
H34   H     H_    0.003281 0.132717 0.061531 0.136715
H35   H     H_    0.304033 0.080725 0.058240 0.132308
H36   H     H_    0.467509 0.652416 0.427598 0.150085
H37   H     H_    0.418123 0.680223 0.548232 0.155234
H38   H     H_    0.967653 0.152313 0.427647 0.151393
H39   H     H_    0.917874 0.180251 0.548185 0.153810
H40   H     H_    0.483678 0.930956 0.438143 0.098591
H41   H     H_    0.520895 0.899627 0.552545 0.082154
H42   H     H_    0.982992 0.431014 0.437854 0.096644
H43   H     H_    0.020488 0.399802 0.552370 0.089121
H44   H     H_    0.419065 0.226995 0.159775 0.141859
H45   H     H_    0.171164 0.724310 0.427553 0.150329
H46   H     H_    0.508968 0.182955 0.182707 0.127117
H47   H     H_    0.465569 0.062713 0.282332 0.163151
H48   H     H_    0.427967 0.212891 0.287779 0.093994
H49   H     H_    0.375772 0.085899 0.255567 0.189583
H50   H     H_    0.579712 0.232247 0.842538 0.141005
H51   H     H_    0.489179 0.191390 0.819971 0.126678
H52   H     H_    0.529276 0.076116 0.717132 0.162036
H53   H     H_    0.569675 0.224070 0.714500 0.089911
H54   H     H_    0.619947 0.092646 0.743036 0.187922
H55   H     H_    0.919283 0.727466 0.160987 0.141195
H56   H     H_    0.870373 0.540645 0.549028 0.155145
H57   H     H_    0.008975 0.681994 0.183815 0.126813
H58   H     H_    0.964851 0.561585 0.283176 0.161325
H59   H     H_    0.928126 0.712372 0.289013 0.089611
H60   H     H_    0.875271 0.586447 0.256407 0.187907
H61   H     H_    0.079571 0.731907 0.843587 0.141486
H62   H     H_    0.988966 0.691565 0.820946 0.122833
H63   H     H_    0.029125 0.575620 0.718236 0.162179
H64   H     H_    0.069076 0.724016 0.715453 0.091024
H65   H     H_    0.119820 0.593104 0.744013 0.199775
H66   H     H_    0.629902 0.039805 0.450778 0.150718
H67   H     H_    0.329306 0.222590 0.572785 0.150897
H68   H     H_    0.212102 0.787854 0.547703 0.155436
O1    O     O_R   0.215090 0.709860 0.828130 -0.526763
O2    O     O_R   0.543740 0.718170 0.330000 -0.509448
O3    O     O_R   0.956260 0.218170 0.670000 -0.511016
O4    O     O_R   0.043740 0.218170 0.330000 -0.511118
O5    O     O_R   0.320940 0.626760 0.674370 -0.495839
O6    O     O_R   0.679060 0.626760 0.325630 -0.495702
O7    O     O_R   0.820940 0.126760 0.674370 -0.504750
O8    O     O_R   0.179060 0.126760 0.325630 -0.492685
O9    O     O_3   0.334530 0.834540 0.749640 -0.261983
O10   O     O_3   0.665470 0.834540 0.250360 -0.245298
O11   O     O_3   0.834530 0.334540 0.749640 -0.247642
O12   O     O_R   0.784910 0.709860 0.171870 -0.529855
O13   O     O_3   0.165470 0.334540 0.250360 -0.243741
O14   O     O_R   0.236990 0.958390 0.823710 -0.513655
O15   O     O_R   0.763010 0.958390 0.176290 -0.500930
O16   O     O_R   0.736990 0.458390 0.823710 -0.500663
O17   O     O_R   0.263010 0.458390 0.176290 -0.499780
O18   O     O_R   0.332380 0.074750 0.830850 -0.518298
O19   O     O_R   0.667620 0.074750 0.169150 -0.519898
O20   O     O_R   0.832380 0.574750 0.830850 -0.519197
O21   O     O_R   0.167620 0.574750 0.169150 -0.523062
O22   O     O_R   0.445800 0.917770 0.825070 -0.461678
O23   O     O_R   0.715090 0.209860 0.828130 -0.528941
O24   O     O_R   0.554200 0.917770 0.174930 -0.462517
O25   O     O_R   0.945800 0.417770 0.825070 -0.460423
O26   O     O_R   0.054200 0.417770 0.174930 -0.462623
O27   O     O_R   0.456410 0.716580 0.829970 -0.545067
O28   O     O_R   0.543590 0.716580 0.170030 -0.540455
O29   O     O_R   0.956410 0.216580 0.829970 -0.537807
O30   O     O_R   0.043590 0.216580 0.170030 -0.540676
O31   O     O_R   0.321080 0.625290 0.822650 -0.490516
O32   O     O_R   0.678920 0.625290 0.177350 -0.500973
O33   O     O_R   0.821080 0.125290 0.822650 -0.499823
O34   O     O_R   0.284910 0.209860 0.171870 -0.526434
O35   O     O_R   0.178920 0.125290 0.177350 -0.500113
O36   O     O_R   0.214930 0.711450 0.668160 -0.529600
O37   O     O_R   0.785070 0.711450 0.331840 -0.530629
O38   O     O_R   0.714930 0.211450 0.668160 -0.527721
O39   O     O_R   0.285070 0.211450 0.331840 -0.536753
O40   O     O_R   0.236850 0.959870 0.675420 -0.505555
O41   O     O_R   0.763150 0.959870 0.324580 -0.494011
O42   O     O_R   0.736850 0.459870 0.675420 -0.492578
O43   O     O_R   0.263150 0.459870 0.324580 -0.507831
O44   O     O_R   0.332230 0.076350 0.670880 -0.515066
O45   O     O_R   0.445660 0.919250 0.676780 -0.509418
O46   O     O_R   0.667770 0.076350 0.329120 -0.520053
O47   O     O_R   0.832230 0.576350 0.670880 -0.520986
O48   O     O_R   0.167770 0.576350 0.329120 -0.517483
O49   O     O_3   0.445080 0.046268 0.138916 -0.559078
O50   O     O_3   0.552824 0.051483 0.860238 -0.556150
O51   O     O_3   0.944439 0.546468 0.139786 -0.559136
O52   O     O_3   0.052345 0.551241 0.861187 -0.548383
O53   O     O_R   0.554340 0.919250 0.323220 -0.522830
O54   O     O_R   0.945660 0.419250 0.676780 -0.518571
O55   O     O_R   0.054340 0.419250 0.323220 -0.515229
O56   O     O_R   0.456260 0.718170 0.670000 -0.513795

loop_
_geom_bond_atom_site_label_1
_geom_bond_atom_site_label_2
_ccdc_geom_bond_type
C44   C49   S    
C43   C73   S    
C31   C66   S    
C55   O23   A    
C75   C76   A    
Cr3   O33   S    
C14   H18   S    
C71   C75   A    
C13   H30   S    
C14   C18   S    
C91   H62   S    
C67   C77   A    
C61   O48   A    
C7    C55   S    
C20   H25   S    
C9    C14   D    
C84   H44   S    
Cr3   O11   S    
C64   O54   A    
C53   O1    A    
Cr5   O10   S    
C63   O53   A    
Cr7   O39   S    
C1    O14   A    
C15   C19   S    
C6    C19   D    
Cr6   O38   S    
C53   O31   A    
Cr1   O40   S    
Cr5   O37   S    
C90   H58   S    
C8    H35   S    
C56   C76   A    
Cr10  O11   S    
C5    C53   S    
C6    C54   S    
C84   O49   S    
C41   O24   A    
C10   C15   D    
C11   H29   S    
C23   O16   A    
C62   O56   A    
Cr11  O55   S    
C88   H57   S    
C19   H24   S    
C67   C89   A    
C65   O55   A    
Cr9   O53   S    
Cr2   O6    S    
C88   H55   S    
Cr1   O1    S    
Cr6   O11   S    
C26   H42   S    
Cr3   O3    S    
Cr6   O16   S    
Cr1   O9    S    
Cr9   O46   S    
C35   C70   S    
Cr2   O10   S    
Cr11  O13   S    
C4    H17   S    
Cr10  O20   S    
C24   C27   D    
Cr4   O4    S    
C37   C46   D    
Cr9   O24   S    
C33   C69   S    
Cr11  O48   S    
C41   C71   S    
C27   C28   S    
C1    O18   A    
C77   C79   A    
Cr12  O9    S    
Cr6   O42   S    
Cr5   O41   S    
C4    C56   A    
C70   O39   A    
C63   O2    A    
C31   C49   D    
C41   O28   A    
C68   O37   A    
C23   O20   A    
C22   C28   D    
Cr12  O56   S    
C6    H32   S    
C9    H27   S    
C35   H13   S    
C55   O33   A    
C66   O5    A    
Cr10  O54   S    
C33   H11   S    
C42   C74   S    
Cr7   O34   S    
C62   O45   A    
C31   H9    S    
C84   C85   S    
C60   O47   A    
C91   C92   S    
C7    H33   S    
C86   C87   S    
Cr4   O35   S    
C40   O22   A    
C5    C18   D    
C39   C58   S    
C57   O34   A    
C3    C45   A    
C17   C21   S    
C30   H39   S    
C87   H53   S    
C90   H60   S    
C25   C64   S    
Cr1   O36   S    
C2    C89   A    
C86   H51   S    
C85   H47   S    
C29   C30   S    
C2    C78   A    
C8    C57   S    
C22   C62   S    
C48   H67   S    
C66   O36   A    
C11   C16   D    
C92   H64   S    
Cr12  O5    S    
C22   H41   S    
C92   H65   S    
C16   C20   S    
C46   H56   S    
C43   O30   A    
C8    C21   D    
C37   H6    S    
C88   O51   S    
C42   O25   A    
C72   C76   A    
C25   H43   S    
C85   H49   S    
Cr4   O8    S    
C64   O3    A    
C67   O51   S    
Cr8   O9    S    
C32   C50   D    
C38   C47   D    
C15   H19   S    
Cr10  O47   S    
Cr2   O2    S    
C34   O21   A    
Cr3   O7    S    
C39   H8    S    
C17   H21   S    
C88   C90   S    
Cr8   O45   S    
C7    C20   D    
C24   C63   S    
C58   O40   A    
C74   C79   A    
C65   O4    A    
C9    C34   S    
Cr12  O27   S    
C54   O12   A    
Cr10  O25   S    
C1    C13   S    
C36   C61   S    
C21   H26   S    
Cr7   O13   S    
C47   H66   S    
Cr5   O12   S    
Cr7   O17   S    
C74   C82   A    
C25   C30   D    
C5    H31   S    
C12   O19   A    
Cr5   O15   S    
C35   C52   D    
Cr8   O44   S    
C40   C72   S    
C78   C79   A    
C26   C65   S    
Cr4   O13   S    
C91   H61   S    
C34   O17   A    
Cr8   O18   S    
Cr12  O31   S    
C80   C81   A    
Cr9   O19   S    
C59   O46   A    
C49   H68   S    
C47   C51   S    
C2    H15   S    
C59   O41   A    
Cr4   O30   S    
C69   O38   A    
C40   O27   A    
Cr8   O22   S    
C10   C23   S    
C33   C51   D    
C61   O43   A    
C46   C50   S    
C44   H45   S    
C87   H54   S    
C13   C17   D    
C90   H59   S    
C45   C75   A    
C45   O49   S    
C86   H50   S    
C85   H48   S    
C72   C80   A    
Cr3   O29   S    
Cr1   O14   S    
C32   C68   S    
C56   O50   S    
C12   O15   A    
C92   H63   S    
C70   O8    A    
Cr7   O43   S    
C24   H40   S    
C54   O32   A    
C29   H38   S    
C80   H1    S    
C81   H12   S    
C68   O6    A    
C73   C83   A    
Cr6   O23   S    
C43   O26   A    
Cr2   O28   S    
C84   H46   S    
C16   H20   S    
C10   H28   S    
C82   H23   S    
C69   O7    A    
C37   C60   S    
C36   C44   D    
C3    H16   S    
C38   C59   S    
C38   H7    S    
C48   C52   S    
C27   H36   S    
Cr2   O32   S    
C89   H14   S    
C52   H4    S    
C26   C29   D    
C51   H3    S    
C82   C83   A    
C78   O52   S    
C36   H5    S    
C50   H2    S    
C73   C77   A    
C87   H52   S    
C42   O29   A    
C60   O42   A    
C28   H37   S    
C86   O50   S    
C32   H10   S    
C91   O52   S    
C57   O35   A    
Cr11  O26   S    
C83   H34   S    
C18   H22   S    
Cr9   O10   S    
C3    C4    A    
C11   C12   S    
Cr11  O21   S    
C39   C48   D    
C71   C81   A    
C58   O44   A    
