data_mof_unit_54182.cif
_audit_creation_date              2012-10-26T19:41:50-0400
_audit_creation_method            fapswitch 2.2
_symmetry_space_group_name_H-M    P1
_symmetry_Int_Tables_number       1
_space_group_crystal_system       triclinic
_cell_length_a                    10.628574
_cell_length_b                    10.761133
_cell_length_c                    9.66057
_cell_angle_alpha                 90.862418
_cell_angle_beta                  90.947843
_cell_angle_gamma                 92.99734
_cell_volume                      1103.12975935

loop_
_atom_site_label
_atom_site_type_symbol
_atom_type_description
_atom_site_fract_x
_atom_site_fract_y
_atom_site_fract_z
_atom_type_partial_charge
C1    C     C_R   0.501632 0.263167 0.499457 0.528895
C2    C     C_R   0.613315 0.071518 0.550867 0.019622
C3    C     C_R   0.506785 0.129776 0.499159 -0.012307
C4    C     C_R   0.259774 0.500148 0.499108 0.538978
C5    C     C_R   0.401763 0.060606 0.446965 -0.145711
C6    C     C_R   0.397182 0.931450 0.449604 -0.003985
C7    C     C_R   0.503382 0.871388 0.500022 0.015708
C8    C     C_R   0.664924 0.669048 0.148883 -0.066396
C9    C     C_R   0.746086 0.750853 0.079449 -0.154342
C10   C     C_R   0.746548 0.749634 0.936768 -0.177328
C11   C     C_R   0.665480 0.666945 0.862700 -0.084028
C12   C     C_3   0.952687 0.405088 0.423793 -0.005549
C13   C     C_R   0.580262 0.583098 0.928571 0.145559
C14   C     C_R   0.579732 0.583931 0.077546 0.132936
C15   C     C_R   0.426850 0.414825 0.068703 0.113731
C16   C     C_R   0.500391 0.737022 0.500416 0.528325
C17   C     C_R   0.425657 0.419447 0.920907 0.025826
C18   C     C_R   0.740234 0.500971 0.500815 0.547801
C19   C     C_3   0.049132 0.598577 0.576723 -0.125140
C20   C     C_3   0.961575 0.490903 0.631474 -0.158398
C21   C     C_3   0.877038 0.500566 0.501500 0.077026
C22   C     C_3   0.963810 0.605261 0.447601 0.220544
C23   C     C_3   0.038168 0.393728 0.553419 -0.129645
C24   C     C_3   0.039618 0.511362 0.367168 -0.092258
C25   C     C_3   0.277008 0.861453 0.399562 -0.267851
C26   C     C_3   0.271956 0.850978 0.241820 -0.418969
C27   C     C_3   0.357509 0.304020 0.135497 -0.255521
C28   C     C_3   0.257720 0.231264 0.045667 -0.512977
C29   C     C_3   0.895852 0.298562 0.332356 -0.261714
C30   C     C_3   0.989952 0.198561 0.309445 -0.449616
C31   C     C_3   0.123050 0.501359 0.497940 -0.002076
C32   C     C_R   0.720687 0.140444 0.604368 -0.109988
C33   C     C_R   0.828877 0.080861 0.643076 -0.132853
C34   C     C_R   0.832382 0.952346 0.628435 -0.116571
C35   C     C_R   0.726101 0.882473 0.579991 -0.092250
C36   C     C_R   0.613884 0.940551 0.544779 0.006585
Cu1   Cu    Cu3+1 0.499990 0.499990 0.640660 0.905025
Cu2   Cu    Cu3+1 0.500010 0.500010 0.359340 0.896774
H1    H     H_    0.927399 0.482333 0.739067 0.124144
H2    H     H_    0.073168 0.521060 0.259423 0.117131
H3    H     H_    0.072520 0.306638 0.597091 0.104369
H4    H     H_    0.321077 0.107955 0.407820 0.104353
H5    H     H_    0.723308 0.240752 0.613844 0.135012
H6    H     H_    0.911088 0.134873 0.681873 0.103576
H7    H     H_    0.272777 0.944919 0.195710 0.141328
H8    H     H_    0.353745 0.801317 0.203281 0.188321
H9    H     H_    0.184109 0.798015 0.207896 0.127791
H10   H     H_    0.267412 0.766925 0.443534 0.155510
H11   H     H_    0.193986 0.910873 0.435675 0.120245
H12   H     H_    0.917603 0.906497 0.654933 0.112905
H13   H     H_    0.186955 0.294407 0.004872 0.149754
H14   H     H_    0.302054 0.180997 0.959537 0.147243
H15   H     H_    0.208658 0.159089 0.108847 0.133585
H16   H     H_    0.428229 0.236485 0.164842 0.172448
H17   H     H_    0.308281 0.334022 0.228311 0.198580
H18   H     H_    0.997175 0.766260 0.370108 0.313774
H19   H     H_    0.080263 0.241744 0.273455 0.148375
H20   H     H_    0.007387 0.148910 0.407286 0.150610
H21   H     H_    0.952091 0.129980 0.230320 0.143579
H22   H     H_    0.810345 0.256549 0.380444 0.156520
H23   H     H_    0.733589 0.783259 0.567556 0.140984
H24   H     H_    0.867321 0.336571 0.230948 0.158368
H25   H     H_    0.674971 0.675308 0.258252 0.215281
H26   H     H_    0.810203 0.814693 0.137075 0.148734
H27   H     H_    0.811127 0.812373 0.883003 0.121603
H28   H     H_    0.674020 0.670806 0.754031 0.181462
H29   H     H_    0.367521 0.354994 0.858154 0.136566
H30   H     H_    0.091042 0.679336 0.637381 0.104879
N1    N     N_R   0.501210 0.501210 0.147910 -0.247636
N2    N     N_R   0.501250 0.501290 0.852040 -0.259657
O1    O     O_R   0.499990 0.319640 0.618810 -0.504003
O2    O     O_R   0.500000 0.319660 0.381240 -0.522767
O3    O     O_R   0.316850 0.499960 0.618770 -0.495571
O4    O     O_R   0.316860 0.499980 0.381190 -0.521137
O5    O     O_R   0.500000 0.680340 0.618760 -0.518644
O6    O     O_R   0.500010 0.680360 0.381190 -0.521262
O7    O     O_R   0.683140 0.500020 0.618810 -0.539604
O8    O     O_R   0.683150 0.500040 0.381230 -0.507687
O9    O     O_3   0.920458 0.714954 0.392892 -0.746925

loop_
_geom_bond_atom_site_label_1
_geom_bond_atom_site_label_2
_ccdc_geom_bond_type
C5    H4    S    
C12   C29   S    
C9    H26   S    
C11   C13   A    
C7    C36   A    
C35   C36   A    
C19   C31   S    
C27   H16   S    
Cu2   O6    S    
C12   C23   S    
C1    O1    A    
H18   O9    S    
C21   C22   S    
Cu1   Cu2   S    
C22   O9    S    
C5    C6    A    
C28   H13   S    
C27   H17   S    
C6    C25   S    
C13   N2    A    
C18   C21   S    
C30   H19   S    
C2    C32   A    
C34   C35   A    
C26   H7    S    
C19   C20   S    
C8    C9    A    
C29   H22   S    
C9    C10   A    
C4    O4    A    
C11   H28   S    
Cu1   O5    S    
Cu2   N1    S    
C17   N2    A    
C13   C14   A    
C15   N1    A    
Cu2   O2    S    
C34   H12   S    
C1    O2    A    
C17   H29   S    
C19   C22   S    
C20   H1    S    
Cu2   O8    S    
C25   C26   S    
Cu1   O7    S    
C12   C21   S    
C1    C3    S    
C23   C31   S    
C29   C30   S    
C15   C27   S    
C20   C23   S    
C18   O8    A    
C30   H21   S    
C33   C34   A    
C19   H30   S    
C35   H23   S    
C16   O5    A    
C25   H10   S    
C4    O3    A    
C26   H9    S    
C7    C16   S    
Cu1   O1    S    
C14   N1    A    
C22   C24   S    
Cu2   O4    S    
C10   H27   S    
C2    C36   A    
C15   C17   A    
Cu1   O3    S    
C29   H24   S    
C8    C14   A    
C16   O6    A    
C33   H6    S    
C3    C5    A    
C28   H15   S    
C6    C7    A    
C12   C24   S    
C23   H3    S    
C32   C33   A    
C2    C3    A    
C24   C31   S    
C28   H14   S    
C18   O7    A    
C30   H20   S    
C24   H2    S    
C32   H5    S    
C25   H11   S    
C4    C31   S    
C10   C11   A    
C26   H8    S    
C8    H25   S    
C20   C21   S    
C27   C28   S    
Cu1   N2    S    
