data_mof_unit_27916.cif
_audit_creation_date              2013-03-05T15:58:35-0500
_audit_creation_method            fapswitch 2.2
_symmetry_space_group_name_H-M    P1
_symmetry_Int_Tables_number       1
_space_group_crystal_system       triclinic
_cell_length_a                    15.082568
_cell_length_b                    13.705149
_cell_length_c                    10.631366
_cell_angle_alpha                 89.755884
_cell_angle_beta                  89.974003
_cell_angle_gamma                 90.006718
_cell_volume                      2197.57716377

loop_
_atom_site_label
_atom_site_type_symbol
_atom_site_description
_atom_site_fract_x
_atom_site_fract_y
_atom_site_fract_z
_atom_type_partial_charge
O1    O     O_R   0.370260 0.582280 0.500030 -0.588333
O2    O     O_R   0.629740 0.417720 0.499970 -0.592905
O3    O     O_R   0.629740 0.582280 0.499970 -0.587763
O4    O     O_R   0.370260 0.417720 0.500030 -0.592279
C1    C     C_R   0.328484 0.499998 0.500325 0.819448
C2    C     C_R   0.671516 0.500010 0.499658 0.819267
O5    O     O_R   0.499980 0.582260 0.316850 -0.590042
O6    O     O_R   0.500020 0.417740 0.683150 -0.584626
O7    O     O_R   0.500020 0.582260 0.683150 -0.583903
O8    O     O_R   0.499980 0.417740 0.316850 -0.577405
C3    C     C_R   0.500022 0.500240 0.259087 0.803433
C4    C     C_R   0.499975 0.499750 0.740913 0.804221
Cu1   Cu    Cu3+1 0.500000 0.597420 0.500000 0.963907
Cu2   Cu    Cu3+1 0.500000 0.402580 0.500000 0.965499
C5    C     C_3   0.501096 0.592865 0.039908 -0.107859
C6    C     C_3   0.498897 0.407064 0.960088 -0.089872
C7    C     C_3   0.573380 0.544955 0.957623 -0.161035
C8    C     C_3   0.426615 0.454971 0.042380 -0.150910
C9    C     C_3   0.427686 0.547016 0.957727 -0.161824
C10   C     C_3   0.572307 0.452909 0.042277 -0.155065
H1    H     H_    0.368580 0.585454 0.919883 0.162372
H2    H     H_    0.631401 0.414450 0.080123 0.168569
H3    H     H_    0.502046 0.668987 0.075217 0.171492
H4    H     H_    0.497943 0.330937 0.924788 0.188020
H5    H     H_    0.633389 0.581682 0.919740 0.158497
H6    H     H_    0.366609 0.418237 0.080258 0.160371
C11   C     C_3   0.499973 0.499202 0.877720 -0.017229
C12   C     C_3   0.500021 0.500737 0.122280 -0.014446
C13   C     C_R   0.814727 0.411314 0.496347 -0.211793
C14   C     C_R   0.185280 0.588739 0.503592 -0.203693
C15   C     C_R   0.768367 0.500037 0.499230 -0.087318
C16   C     C_R   0.231633 0.500004 0.500706 -0.087446
C17   C     C_R   0.814736 0.588778 0.501879 -0.202750
C18   C     C_R   0.185255 0.411277 0.497995 -0.211344
C19   C     C_R   0.907107 0.589397 0.502235 0.093884
C20   C     C_R   0.092887 0.410671 0.497622 0.096884
C21   C     C_R   0.953526 0.500041 0.499674 0.063456
C22   C     C_R   0.046473 0.500029 0.500201 0.063570
C23   C     C_R   0.907094 0.410694 0.496595 0.096634
C24   C     C_R   0.092910 0.589373 0.503306 0.093503
C25   C     C_R   0.953797 0.677797 0.505299 -0.161221
C26   C     C_R   0.046200 0.322273 0.494544 -0.165488
C27   C     C_R   0.046238 0.677784 0.505905 -0.160920
C28   C     C_R   0.953764 0.322285 0.493982 -0.165351
H7    H     H_    0.779073 0.342622 0.493971 0.169485
H8    H     H_    0.220942 0.657425 0.505989 0.183906
H9    H     H_    0.779089 0.657472 0.503947 0.182511
H10   H     H_    0.220895 0.342579 0.495911 0.169432
H11   H     H_    0.918822 0.746853 0.507278 0.182248
H12   H     H_    0.081170 0.253216 0.492539 0.174574
H13   H     H_    0.081228 0.746829 0.508350 0.184270
H14   H     H_    0.918779 0.253237 0.491557 0.175755
C29   C     C_R   0.443299 0.792717 0.577019 0.094791
C30   C     C_R   0.557313 0.207279 0.423898 0.096037
C31   C     C_R   0.556673 0.793234 0.422936 0.087596
C32   C     C_R   0.442725 0.206767 0.576160 0.087995
N1    N     N_R   0.500000 0.743810 0.500000 -0.212398
N2    N     N_R   0.500000 0.256190 0.500000 -0.211968
C33   C     C_R   0.559430 0.896522 0.421903 -0.128477
C34   C     C_R   0.441712 0.103469 0.579805 -0.128340
C35   C     C_R   0.440560 0.895994 0.578075 -0.128972
C36   C     C_R   0.558321 0.104009 0.420244 -0.128904
C37   C     C_R   0.500000 0.948206 0.499997 0.005912
C38   C     C_R   0.500008 0.051791 0.500011 0.006159
C39   C     C_R   0.618586 0.948871 0.343205 0.248096
C40   C     C_R   0.382845 0.051119 0.658931 0.247565
C41   C     C_R   0.381427 0.947806 0.656810 0.249425
C42   C     C_R   0.617201 0.052201 0.341132 0.248872
H15   H     H_    0.400596 0.750268 0.637801 0.170646
H16   H     H_    0.602336 0.249720 0.366595 0.169226
H17   H     H_    0.599337 0.751187 0.362111 0.171299
H18   H     H_    0.397737 0.248823 0.633510 0.170539
N3    N     N_R   0.679493 0.897683 0.263353 0.138717
O9    O     O_R   0.679305 0.913345 0.142566 -0.278363
O10   O     O_R   0.740175 0.841781 0.312356 -0.364726
N4    N     N_R   0.322949 0.102313 0.740283 0.137465
O11   O     O_R   0.237949 0.087435 0.732192 -0.288303
O12   O     O_R   0.353713 0.157484 0.829507 -0.350683
N5    N     N_R   0.320534 0.896072 0.736683 0.138973
O13   O     O_R   0.320793 0.910873 0.857483 -0.278104
O14   O     O_R   0.259803 0.840529 0.687698 -0.369350
N6    N     N_R   0.677161 0.103952 0.259875 0.136186
O15   O     O_R   0.762154 0.089035 0.268094 -0.290799
O16   O     O_R   0.646475 0.159761 0.170659 -0.348500

loop_
_geom_bond_atom_site_label_1
_geom_bond_atom_site_label_2
_geom_bond_distance
_ccdc_geom_bond_type
C22   C24   1.411068 A    
C31   C33   1.416175 A    
N3    O10   1.301255 A    
N3    O9    1.301042 A    
C20   C26   1.401729 A    
C8    H6    1.110207 S    
O3    C2    1.291715 A    
C29   H15   1.080359 S    
O5    C3    1.283198 A    
O1    C1    1.291707 A    
C9    H1    1.110278 S    
N4    O12   1.301246 A    
Cu1   N1    2.006297 S    
C7    C10   1.546587 S    
C39   N3    1.435718 S    
C8    C9    1.546571 S    
C35   C37   1.413828 A    
O7    Cu1   1.957307 S    
C36   C38   1.413806 A    
C29   C35   1.416118 A    
C24   C27   1.401756 A    
C32   H18   1.080328 S    
C15   C17   1.403279 A    
C9    C11   1.531562 S    
O3    Cu1   1.967807 S    
O6    C4    1.283076 A    
C1    C16   1.460767 S    
C28   H14   1.083835 S    
C6    C11   1.533705 S    
C5    H3    1.110345 S    
C2    C15   1.460764 S    
C34   C40   1.415885 A    
C6    H4    1.110369 S    
Cu1   Cu2   2.670310 S    
C25   C27   1.394272 A    
O2    C2    1.291800 A    
C26   C28   1.394180 A    
C19   C25   1.401764 A    
C25   H11   1.083838 S    
Cu2   N2    2.006297 S    
C4    C11   1.454437 S    
C7    C11   1.531624 S    
C8    C12   1.531660 S    
N4    O11   1.301042 A    
O8    Cu2   1.957308 S    
N5    O14   1.301275 A    
C29   N1    1.362092 A    
C30   C36   1.416119 A    
N5    O13   1.301045 A    
C13   H7    1.084532 S    
C16   C18   1.403187 A    
C5    C9    1.545801 S    
C21   C22   1.401898 A    
C21   C23   1.411069 A    
C35   C41   1.415935 A    
C30   H16   1.080319 S    
C6    C10   1.545821 S    
C39   C42   1.416380 A    
C40   N4    1.435621 S    
C13   C23   1.393159 A    
C14   C24   1.393219 A    
C26   H12   1.083825 S    
C10   H2    1.110292 S    
N6    O16   1.301216 A    
C31   N1    1.362054 A    
C17   H9    1.084519 S    
O1    Cu1   1.967758 S    
C30   N2    1.362088 A    
C5    C7    1.545712 S    
O6    Cu2   1.959068 S    
C19   C21   1.411062 A    
C14   H8    1.084518 S    
O4    C1    1.291810 A    
C23   C28   1.401722 A    
C10   C12   1.531605 S    
C33   C37   1.413857 A    
C36   C42   1.415897 A    
C34   C38   1.413839 A    
C42   N6    1.435659 S    
C20   C22   1.411062 A    
C7    H5    1.110207 S    
C13   C15   1.403194 A    
C33   C39   1.415935 A    
C14   C16   1.403277 A    
C27   H13   1.083846 S    
C5    C12   1.533610 S    
C3    C12   1.454433 S    
C17   C19   1.393224 A    
C32   N2    1.362053 A    
C40   C41   1.416367 A    
C18   C20   1.393164 A    
O4    Cu2   1.967807 S    
O2    Cu2   1.967758 S    
O7    C4    1.284495 A    
O8    C3    1.284371 A    
C37   C38   1.419646 A    
C32   C34   1.416164 A    
O5    Cu1   1.959069 S    
C18   H10   1.084517 S    
C6    C8    1.545723 S    
N6    O15   1.301047 A    
C41   N5    1.435726 S    
C31   H17   1.080369 S    
