data_mof_unit_41185.cif
_audit_creation_date              2012-12-10T18:44:16-0500
_audit_creation_method            fapswitch 2.2
_symmetry_space_group_name_H-M    P1
_symmetry_Int_Tables_number       1
_space_group_crystal_system       triclinic
_cell_length_a                    18.100885
_cell_length_b                    18.119149
_cell_length_c                    22.11304
_cell_angle_alpha                 114.161418
_cell_angle_beta                  114.248505
_cell_angle_gamma                 90.042427
_cell_volume                      5907.74461644

loop_
_atom_site_label
_atom_site_type_symbol
_atom_type_description
_atom_site_fract_x
_atom_site_fract_y
_atom_site_fract_z
_atom_type_partial_charge
C1    C     C_R   0.349726 0.349660 0.699396 0.820889
C2    C     C_R   0.650274 0.650340 0.300604 0.820888
C3    C     C_3   0.539038 0.562641 0.569090 0.260783
C4    C     C_3   0.460962 0.437359 0.430910 0.260783
C5    C     C_3   0.995111 0.057993 0.976066 0.324780
C6    C     C_3   0.004889 0.942007 0.023934 0.324780
C7    C     C_3   0.954773 0.052827 0.023955 0.325365
C8    C     C_3   0.045227 0.947173 0.976044 0.325365
C9    C     C_1   0.110380 0.110511 0.221361 -0.129797
C10   C     C_1   0.889620 0.889489 0.778639 -0.129796
C11   C     C_3   0.076312 0.041244 0.024753 0.326180
C12   C     C_3   0.923688 0.958756 0.975247 0.326180
C13   C     C_3   0.036496 0.036601 0.073700 -0.220582
C14   C     C_3   0.963504 0.963399 0.926300 -0.220582
C15   C     C_1   0.076925 0.077069 0.154692 0.162213
C16   C     C_1   0.923075 0.922931 0.845308 0.162213
C17   C     C_3   0.046304 0.511417 0.569921 0.243729
C18   C     C_3   0.953696 0.488583 0.430079 0.243728
C19   C     C_3   0.951279 0.485009 0.527811 0.254117
C20   C     C_3   0.048721 0.514991 0.472189 0.254117
C21   C     C_3   0.949103 0.551963 0.500730 -0.311787
C22   C     C_3   0.050897 0.448037 0.499269 -0.311788
C23   C     C_R   0.150211 0.150294 0.300617 0.805411
C24   C     C_R   0.849789 0.849706 0.699383 0.805412
C25   C     C_3   0.045049 0.577545 0.542860 0.343060
C26   C     C_3   0.954951 0.422455 0.457140 0.343060
C27   C     C_3   0.582070 0.519890 0.024444 0.326057
C28   C     C_3   0.417930 0.480110 0.975556 0.326055
C29   C     C_3   0.529716 0.431264 0.976424 0.256729
C30   C     C_3   0.470284 0.568736 0.023575 0.256729
C31   C     C_1   0.389468 0.389133 0.778660 -0.121991
C32   C     C_1   0.610532 0.610867 0.221340 -0.121991
C33   C     C_3   0.516303 0.551823 0.975488 0.268139
C34   C     C_3   0.483697 0.448177 0.024512 0.268139
C35   C     C_3   0.463361 0.462635 0.926327 -0.177759
C36   C     C_3   0.536638 0.537365 0.073673 -0.177759
C37   C     C_1   0.422878 0.422198 0.845333 0.155403
C38   C     C_1   0.577122 0.577802 0.154667 0.155404
C39   C     C_3   0.058999 0.962353 0.487575 0.468288
C40   C     C_3   0.941001 0.037646 0.512424 0.468286
C41   C     C_3   0.966199 0.933666 0.434345 0.461023
C42   C     C_3   0.033801 0.066334 0.565655 0.461024
C43   C     C_3   0.949293 0.948904 0.500776 -0.221036
C44   C     C_3   0.050707 0.051096 0.499224 -0.221036
C45   C     C_R   0.391687 0.108529 0.499984 0.963864
C46   C     C_R   0.608313 0.891471 0.500016 0.963865
C47   C     C_3   0.043433 0.977667 0.555086 -0.456760
C48   C     C_3   0.956567 0.022333 0.444914 -0.456762
C49   C     C_3   0.526590 0.060578 0.569505 0.303122
C50   C     C_3   0.473409 0.939421 0.430495 0.303121
C51   C     C_3   0.576026 0.041558 0.524283 0.314134
C52   C     C_3   0.423974 0.958442 0.475717 0.314136
C53   C     C_3   0.551233 0.948373 0.500327 -0.331645
C54   C     C_3   0.448767 0.051626 0.499673 -0.331645
C55   C     C_3   0.500932 0.968184 0.545599 0.279055
C56   C     C_3   0.499068 0.031816 0.454401 0.279056
C57   C     C_R   0.108282 0.391475 0.499719 0.956102
C58   C     C_R   0.891718 0.608525 0.500281 0.956101
C59   C     C_R   0.108299 0.108219 0.499796 0.923470
C60   C     C_R   0.891701 0.891781 0.500204 0.923470
C61   C     C_R   0.390383 0.391779 0.499016 0.960245
C62   C     C_R   0.609617 0.608221 0.500984 0.960247
C63   C     C_3   0.445119 0.541486 0.518995 0.339701
C64   C     C_3   0.554881 0.458514 0.481005 0.339701
C65   C     C_3   0.458249 0.529053 0.451217 0.244307
C66   C     C_3   0.541751 0.470947 0.548783 0.244308
C67   C     C_3   0.552992 0.551071 0.501267 -0.310498
C68   C     C_3   0.447007 0.448929 0.498733 -0.310498
H1    H     H_    0.076862 0.958571 0.599266 0.189558
H2    H     H_    0.923138 0.041429 0.400734 0.189558
O1    O     O_3   0.250010 0.250010 0.500010 -0.528361
O2    O     O_3   0.749990 0.749990 0.499990 -0.528361
O3    O     O_R   0.376520 0.141930 0.456900 -0.615297
O4    O     O_R   0.623480 0.858070 0.543100 -0.615297
O5    O     O_R   0.184990 0.419580 0.543110 -0.612145
O6    O     O_R   0.815010 0.580420 0.456890 -0.612145
O7    O     O_R   0.332220 0.270690 0.664420 -0.626015
O8    O     O_R   0.667780 0.729310 0.335580 -0.626015
O9    O     O_R   0.106290 0.167820 0.335630 -0.636737
O10   O     O_R   0.893710 0.832180 0.664370 -0.636737
O11   O     O_R   0.332200 0.393690 0.664400 -0.633832
O12   O     O_R   0.667800 0.606310 0.335600 -0.633832
O13   O     O_R   0.229300 0.167820 0.335610 -0.625162
O14   O     O_R   0.770700 0.832180 0.664390 -0.625162
O15   O     O_R   0.358130 0.123520 0.543120 -0.620995
O16   O     O_R   0.641870 0.876480 0.456880 -0.620995
O17   O     O_R   0.080390 0.314990 0.456920 -0.622800
O18   O     O_R   0.919610 0.685010 0.543080 -0.622800
O19   O     O_R   0.185040 0.123520 0.543150 -0.600339
O20   O     O_R   0.814960 0.876480 0.456850 -0.600339
O21   O     O_R   0.358080 0.419590 0.543080 -0.622925
O22   O     O_R   0.641920 0.580410 0.456920 -0.622926
O23   O     O_R   0.080420 0.141920 0.456950 -0.662018
O24   O     O_R   0.919580 0.858080 0.543050 -0.662018
O25   O     O_R   0.376490 0.315000 0.456880 -0.613258
O26   O     O_R   0.623510 0.685000 0.543120 -0.613259
Zn1   Zn    Zn3+2 0.307090 0.219220 0.438420 1.025018
Zn2   Zn    Zn3+2 0.692910 0.780780 0.561580 1.025018
Zn3   Zn    Zn3+2 0.280820 0.192930 0.561610 1.033032
Zn4   Zn    Zn3+2 0.719180 0.807070 0.438390 1.033031
Zn5   Zn    Zn3+2 0.131340 0.219220 0.438450 0.991743
Zn6   Zn    Zn3+2 0.868660 0.780780 0.561550 0.991743
Zn7   Zn    Zn3+2 0.280790 0.368660 0.561580 1.020691
Zn8   Zn    Zn3+2 0.719210 0.631340 0.438420 1.020690
O27   O     O_3   0.421876 0.564847 0.402716 -0.613581
C69   C     C_3   0.336426 0.530261 0.359059 0.131543
H3    H     H_    0.305438 0.528752 0.392917 0.178698
H4    H     H_    0.326020 0.466466 0.316083 0.175881
C70   C     C_3   0.295704 0.581816 0.319691 -0.883922
H5    H     H_    0.325776 0.584879 0.285718 0.270336
H6    H     H_    0.229077 0.553478 0.282628 0.211071
H7    H     H_    0.301536 0.645392 0.361046 0.247093
O28   O     O_3   0.578124 0.435153 0.597284 -0.613581
C71   C     C_3   0.663574 0.469739 0.640941 0.131543
H8    H     H_    0.673980 0.533534 0.683917 0.175881
H9    H     H_    0.694562 0.471248 0.607083 0.178698
C72   C     C_3   0.704296 0.418184 0.680309 -0.883920
H10   H     H_    0.698464 0.354608 0.638955 0.247093
H11   H     H_    0.770923 0.446522 0.717372 0.211071
H12   H     H_    0.674224 0.415121 0.714283 0.270335
O29   O     O_3   0.556344 0.357628 0.946064 -0.607200
C73   C     C_3   0.621636 0.347296 0.003275 0.131269
H13   H     H_    0.607631 0.356856 0.050173 0.169079
H14   H     H_    0.679716 0.390821 0.025176 0.183683
C74   C     C_3   0.636630 0.259990 0.972015 -0.881685
H15   H     H_    0.653162 0.249150 0.926345 0.261222
H16   H     H_    0.688234 0.251324 0.016389 0.207452
H17   H     H_    0.580056 0.214312 0.950251 0.257019
O30   O     O_3   0.443655 0.642372 0.053936 -0.607201
C75   C     C_3   0.378364 0.652703 0.996725 0.131271
H18   H     H_    0.320284 0.609179 0.974825 0.183683
H19   H     H_    0.392367 0.643142 0.949826 0.169079
C76   C     C_3   0.363370 0.740010 0.027985 -0.881687
H20   H     H_    0.419944 0.785687 0.049748 0.257019
H21   H     H_    0.311765 0.748676 0.983611 0.207452
H22   H     H_    0.346839 0.750851 0.073655 0.261223
O31   O     O_3   0.668965 0.542704 0.055706 -0.612596
C77   C     C_3   0.693286 0.525469 0.999062 -0.290064
H23   H     H_    0.684003 0.574326 0.980340 0.195345
H24   H     H_    0.660764 0.464173 0.950471 0.190010
H25   H     H_    0.760404 0.525100 0.022080 0.170987
O32   O     O_3   0.331035 0.457297 0.944294 -0.612596
C78   C     C_3   0.306714 0.474531 0.000938 -0.290057
H26   H     H_    0.339240 0.535824 0.049531 0.190009
H27   H     H_    0.315991 0.425671 0.019656 0.195342
H28   H     H_    0.239597 0.474906 0.977921 0.170985
O33   O     O_3   0.469612 0.399295 0.056222 -0.606679
C79   C     C_3   0.425386 0.319145 0.000129 0.141506
H29   H     H_    0.465959 0.283267 0.978363 0.178151
H30   H     H_    0.370760 0.320293 0.952917 0.176647
C80   C     C_3   0.394971 0.273987 0.032972 -0.887884
H31   H     H_    0.353410 0.307733 0.054932 0.253897
H32   H     H_    0.360277 0.210731 0.989499 0.210952
H33   H     H_    0.448406 0.269396 0.078810 0.263239
O34   O     O_3   0.530387 0.600705 0.943778 -0.606680
C81   C     C_3   0.574614 0.680855 0.999871 0.141504
H34   H     H_    0.629239 0.679707 0.047083 0.176648
H35   H     H_    0.534040 0.716733 0.021638 0.178152
C82   C     C_3   0.605027 0.726013 0.967028 -0.887885
H36   H     H_    0.551591 0.730605 0.921190 0.263239
H37   H     H_    0.639721 0.789270 0.010501 0.210953
H38   H     H_    0.646588 0.692268 0.945068 0.253897
O35   O     O_3   0.928410 0.859667 0.367706 -0.606059
C83   C     C_3   0.945503 0.866491 0.313353 -0.270568
H39   H     H_    0.013156 0.882077 0.332172 0.187959
H40   H     H_    0.914091 0.912664 0.296909 0.164576
H41   H     H_    0.920768 0.805914 0.263191 0.186940
O36   O     O_3   0.071590 0.140333 0.632293 -0.606058
C84   C     C_3   0.054496 0.133509 0.686647 -0.270560
H42   H     H_    0.085907 0.087335 0.703090 0.164573
H43   H     H_    0.986843 0.117925 0.667828 0.187960
H44   H     H_    0.079233 0.194086 0.736809 0.186939
O37   O     O_3   0.123058 0.927657 0.472734 -0.588988
C85   C     C_3   0.123632 0.851442 0.475675 -0.266072
H45   H     H_    0.062708 0.808188 0.436911 0.180895
H46   H     H_    0.142457 0.860458 0.533211 0.165901
H47   H     H_    0.170075 0.822171 0.458528 0.177693
O38   O     O_3   0.876942 0.072343 0.527266 -0.588989
C86   C     C_3   0.876366 0.148556 0.524321 -0.266067
H48   H     H_    0.857531 0.139536 0.466783 0.165902
H49   H     H_    0.937292 0.191808 0.563078 0.180891
H50   H     H_    0.829930 0.177832 0.541477 0.177691
O39   O     O_3   0.658377 0.079284 0.550124 -0.594534
C87   C     C_3   0.662301 0.161976 0.561313 -0.258095
H51   H     H_    0.622631 0.194466 0.586709 0.188178
H52   H     H_    0.645703 0.165116 0.508441 0.182611
H53   H     H_    0.727027 0.196282 0.599765 0.164641
O40   O     O_3   0.341623 0.920716 0.449876 -0.594534
C88   C     C_3   0.337699 0.838024 0.438687 -0.258097
H54   H     H_    0.354298 0.834884 0.491558 0.182611
H55   H     H_    0.377369 0.805533 0.413290 0.188178
H56   H     H_    0.272973 0.803718 0.400235 0.164641
O41   O     O_3   0.548212 0.126625 0.640192 -0.606993
C89   C     C_3   0.625556 0.124835 0.692185 -0.266843
H57   H     H_    0.676776 0.152894 0.688216 0.195657
H58   H     H_    0.632377 0.061564 0.686390 0.184377
H59   H     H_    0.631749 0.162649 0.748766 0.174764
O42   O     O_3   0.451787 0.873374 0.359808 -0.606993
C90   C     C_3   0.374444 0.875165 0.307815 -0.266845
H60   H     H_    0.367623 0.938436 0.313609 0.184377
H61   H     H_    0.323224 0.847106 0.311784 0.195657
H62   H     H_    0.368250 0.837351 0.251234 0.174764
O43   O     O_3   0.505464 0.930163 0.591147 -0.585985
C91   C     C_3   0.460520 0.965394 0.631479 0.158287
H63   H     H_    0.398535 0.971853 0.596030 0.184886
H64   H     H_    0.495545 0.027098 0.677871 0.181388
C92   C     C_3   0.448011 0.910451 0.664631 -0.875972
H65   H     H_    0.508856 0.903731 0.701359 0.270353
H66   H     H_    0.414121 0.938298 0.697718 0.215985
H67   H     H_    0.411484 0.848462 0.619744 0.238612
O44   O     O_3   0.494536 0.069836 0.408853 -0.585985
C93   C     C_3   0.539480 0.034606 0.368521 0.158288
H68   H     H_    0.504455 0.972902 0.322129 0.181387
H69   H     H_    0.601465 0.028146 0.403970 0.184886
C94   C     C_3   0.551990 0.089549 0.335369 -0.875973
H70   H     H_    0.588516 0.151538 0.380256 0.238612
H71   H     H_    0.585879 0.061702 0.302282 0.215984
H72   H     H_    0.491145 0.096269 0.298641 0.270353
O45   O     O_3   0.384633 0.579032 0.538454 -0.592566
C95   C     C_3   0.393882 0.661401 0.548975 -0.294581
H73   H     H_    0.368430 0.663866 0.495095 0.191395
H74   H     H_    0.459174 0.695813 0.583325 0.207462
H75   H     H_    0.357941 0.694163 0.578369 0.159035
O46   O     O_3   0.615367 0.420968 0.461546 -0.592566
C96   C     C_3   0.606118 0.338599 0.451025 -0.294583
H76   H     H_    0.540826 0.304187 0.416675 0.207462
H77   H     H_    0.631570 0.336134 0.504905 0.191395
H78   H     H_    0.642059 0.305837 0.421632 0.159036
O47   O     O_3   0.584530 0.630562 0.639583 -0.599415
C97   C     C_3   0.554998 0.629879 0.689457 0.127764
H79   H     H_    0.547831 0.567952 0.687766 0.172688
H80   H     H_    0.494454 0.649130 0.676971 0.184067
C98   C     C_3   0.615983 0.691137 0.768050 -0.836970
H81   H     H_    0.622809 0.754190 0.772182 0.273777
H82   H     H_    0.593134 0.691653 0.807737 0.214143
H83   H     H_    0.677353 0.673356 0.783137 0.252719
O48   O     O_3   0.415470 0.369437 0.360417 -0.599415
C99   C     C_3   0.445001 0.370121 0.310543 0.127765
H84   H     H_    0.505547 0.350870 0.323029 0.184067
H85   H     H_    0.452169 0.432048 0.312234 0.172688
C100  C     C_3   0.384017 0.308863 0.231950 -0.836971
H86   H     H_    0.322647 0.326644 0.216863 0.252719
H87   H     H_    0.406866 0.308347 0.192263 0.214144
H88   H     H_    0.377191 0.245810 0.227818 0.273777
O49   O     O_3   0.912504 0.110705 0.054786 -0.603669
C101  C     C_3   0.835972 0.106582 0.998144 -0.268815
H89   H     H_    0.788732 0.054897 0.983080 0.195963
H90   H     H_    0.840128 0.100716 0.947583 0.186810
H91   H     H_    0.814179 0.164550 0.019607 0.165441
O50   O     O_3   0.087496 0.889295 0.945214 -0.603669
C102  C     C_3   0.164028 0.893418 0.001855 -0.268815
H92   H     H_    0.159872 0.899284 0.052416 0.186809
H93   H     H_    0.211268 0.945103 0.016920 0.195963
H94   H     H_    0.185821 0.835449 0.980393 0.165441
O51   O     O_3   0.988109 0.113863 0.945368 -0.604568
C103  C     C_3   0.012641 0.195846 0.001999 -0.276710
H95   H     H_    0.069007 0.205467 0.053075 0.187339
H96   H     H_    0.961408 0.215189 0.016095 0.193787
H97   H     H_    0.027202 0.237147 0.980993 0.166389
O52   O     O_3   0.011891 0.886136 0.054631 -0.604568
C104  C     C_3   0.987359 0.804154 0.998001 -0.276710
H98   H     H_    0.038592 0.784811 0.983904 0.193787
H99   H     H_    0.930992 0.794533 0.946925 0.187340
H100  H     H_    0.972798 0.762853 0.019007 0.166389
O53   O     O_3   0.842278 0.914471 0.943425 -0.600875
C105  C     C_3   0.824782 0.911947 0.999205 -0.270029
H101  H     H_    0.847510 0.972125 0.050081 0.187402
H102  H     H_    0.850715 0.862868 0.013888 0.193515
H103  H     H_    0.756668 0.896085 0.977003 0.170672
O54   O     O_3   0.157722 0.085528 0.056575 -0.600875
C106  C     C_3   0.175218 0.088052 0.000795 -0.270030
H104  H     H_    0.149284 0.137132 0.986112 0.193515
H105  H     H_    0.152490 0.027875 0.949919 0.187402
H106  H     H_    0.243332 0.103915 0.022997 0.170672
O55   O     O_3   0.896742 0.473775 0.555624 -0.601653
C107  C     C_3   0.916594 0.413222 0.581328 0.138175
H107  H     H_    0.975067 0.437391 0.633607 0.177782
H108  H     H_    0.922988 0.355944 0.539942 0.166610
C108  C     C_3   0.848299 0.390456 0.597473 -0.898431
H109  H     H_    0.788751 0.364400 0.546044 0.262587
H110  H     H_    0.863580 0.343739 0.618724 0.203650
H111  H     H_    0.841927 0.446300 0.639992 0.266161
O56   O     O_3   0.103258 0.526225 0.444376 -0.601653
C109  C     C_3   0.083406 0.586778 0.418672 0.138175
H112  H     H_    0.077010 0.644055 0.460058 0.166610
H113  H     H_    0.024933 0.562609 0.366393 0.177781
C110  C     C_3   0.151701 0.609546 0.402529 -0.898429
H114  H     H_    0.158075 0.553703 0.360011 0.266161
H115  H     H_    0.136420 0.656263 0.381278 0.203648
H116  H     H_    0.211249 0.635604 0.453959 0.262585
O57   O     O_3   0.098008 0.517433 0.640742 -0.610708
C111  C     C_3   0.086664 0.584190 0.696048 0.133069
H117  H     H_    0.020102 0.583642 0.682061 0.166073
H118  H     H_    0.115288 0.643992 0.704572 0.187802
C112  C     C_3   0.128869 0.578870 0.769067 -0.857668
H119  H     H_    0.196020 0.581391 0.785635 0.265969
H120  H     H_    0.121036 0.631442 0.813228 0.213925
H121  H     H_    0.101070 0.520136 0.763120 0.255373
O58   O     O_3   0.901992 0.482567 0.359257 -0.610708
C113  C     C_3   0.913336 0.415810 0.303952 0.133066
H122  H     H_    0.884715 0.356007 0.295430 0.187803
H123  H     H_    0.979898 0.416359 0.317938 0.166073
C114  C     C_3   0.871129 0.421128 0.230932 -0.857668
H124  H     H_    0.898925 0.479862 0.236878 0.255375
H125  H     H_    0.878962 0.368556 0.186771 0.213925
H126  H     H_    0.803977 0.418605 0.214365 0.265969
O59   O     O_3   0.086885 0.661000 0.587259 -0.601557
C115  C     C_3   0.173166 0.666074 0.613879 -0.263687
H127  H     H_    0.192251 0.659693 0.570658 0.196371
H128  H     H_    0.195476 0.619791 0.634517 0.202231
H129  H     H_    0.204883 0.728117 0.661134 0.166226
O60   O     O_3   0.913115 0.339000 0.412741 -0.601557
C116  C     C_3   0.826834 0.333926 0.386121 -0.263689
H130  H     H_    0.804523 0.380207 0.365481 0.202231
H131  H     H_    0.807749 0.340309 0.429342 0.196372
H132  H     H_    0.795117 0.271882 0.338867 0.166226

loop_
_geom_bond_atom_site_label_1
_geom_bond_atom_site_label_2
_ccdc_geom_bond_type
C89   H58   S    
C63   C65   S    
C106  H106  S    
C18   C21   S    
C1    O7    A    
O57   C111  S    
C79   C80   S    
C71   H8    S    
C50   O42   S    
C39   C41   S    
O19   Zn3   S    
C48   H2    S    
C109  H112  S    
C51   O39   S    
C72   H11   S    
C89   H59   S    
C69   H3    S    
C78   H26   S    
C103  H97   S    
C96   H78   S    
C63   O45   S    
C40   C43   S    
C49   C51   S    
C92   H67   S    
C50   C52   S    
C4    O48   S    
C110  H115  S    
C115  H129  S    
C90   H60   S    
C18   O58   S    
C80   H32   S    
O5    Zn7   S    
C41   C43   S    
C42   C44   S    
C54   C56   S    
C99   H85   S    
C50   C53   S    
C114  H125  S    
O23   Zn5   S    
C17   O57   S    
O1    Zn3   S    
C31   C37   T    
C64   C66   S    
C94   H70   S    
O47   C97   S    
C2    O8    A    
C114  H124  S    
C55   O43   S    
C97   H80   S    
C85   H47   S    
C77   H24   S    
O36   C84   S    
C60   O20   A    
C11   O54   S    
C113  H122  S    
C39   C47   S    
C40   C48   S    
C109  C110  S    
O21   Zn7   S    
C77   H25   S    
C58   O18   A    
O18   Zn6   S    
O25   Zn1   S    
C29   O29   S    
C30   O30   S    
C29   C35   S    
C30   C36   S    
C17   C25   S    
C111  H118  S    
C75   H18   S    
C9    C15   T    
C10   C16   T    
C11   C13   S    
C46   C53   S    
C81   H35   S    
C108  H110  S    
O22   Zn8   S    
C7    C13   S    
C93   H68   S    
O24   Zn6   S    
O41   C89   S    
O34   C81   S    
C74   H16   S    
O12   Zn8   S    
C86   H49   S    
C43   C47   S    
C44   C48   S    
C25   O59   S    
C66   O28   S    
C27   C29   S    
O33   C79   S    
O38   C86   S    
C91   H64   S    
C58   O6    A    
C112  H120  S    
C27   C33   S    
O1    Zn1   S    
C8    O50   S    
C19   C21   S    
C79   H30   S    
C70   H6    S    
C104  H98   S    
C116  H131  S    
C44   C59   S    
C1    C31   S    
O60   C116  S    
C2    C32   S    
C100  H86   S    
C59   O19   A    
C88   H55   S    
C85   H45   S    
C47   H1    S    
O17   Zn5   S    
C28   C35   S    
O26   Zn2   S    
C90   H62   S    
C20   O56   S    
C98   H81   S    
C113  C114  S    
C40   C42   S    
C106  H104  S    
O48   C99   S    
C84   H43   S    
C97   H79   S    
C65   O27   S    
C95   H73   S    
C115  H128  S    
C7    C12   S    
C56   O44   S    
C94   H72   S    
C4    C68   S    
C9    C23   S    
C102  H94   S    
C10   C24   S    
C49   C55   S    
C50   C56   S    
C57   O17   A    
O10   Zn6   S    
C51   C53   S    
O15   Zn3   S    
C93   C94   S    
C108  H109  S    
C82   H37   S    
C105  H102  S    
C22   C26   S    
C73   H14   S    
C106  H105  S    
C76   H21   S    
O30   C75   S    
O11   Zn7   S    
C21   C25   S    
C101  H89   S    
O54   C106  S    
C12   C14   S    
O52   C104  S    
C105  H103  S    
C104  H100  S    
C71   H9    S    
C33   O34   S    
C39   C44   S    
C7    O49   S    
C87   H53   S    
C100  H88   S    
C5    O51   S    
C73   C74   S    
C109  H113  S    
C21   C58   S    
C72   H10   S    
C69   H4    S    
C33   C35   S    
O7    Zn3   S    
C34   C36   S    
C98   H83   S    
C71   C72   S    
C91   H63   S    
O56   C109  S    
C92   H66   S    
O9    Zn5   S    
C52   O40   S    
O49   C101  S    
C95   H75   S    
C69   C70   S    
C60   O24   A    
O6    Zn8   S    
C78   H28   S    
C62   O26   A    
O55   C107  S    
C18   C26   S    
C39   O37   S    
O46   C96   S    
C3    O47   S    
C102  H92   S    
C99   C100  S    
C27   O31   S    
C23   O13   A    
C108  H111  S    
C83   H39   S    
C5    C11   S    
C6    C12   S    
C20   C25   S    
C1    O11   A    
C64   O46   S    
C6    O52   S    
C19   C26   S    
O1    Zn7   S    
C63   C68   S    
C42   O36   S    
C65   C67   S    
C26   O60   S    
C80   H31   S    
O16   Zn4   S    
C52   C55   S    
C86   H50   S    
C89   H57   S    
O1    Zn5   S    
C28   C34   S    
C113  H123  S    
C114  H126  S    
C81   C82   S    
C92   H65   S    
O4    Zn2   S    
C72   H12   S    
O45   C95   S    
C5    C7    S    
C6    C8    S    
O2    Zn8   S    
O50   C102  S    
C29   C34   S    
O59   C115  S    
C75   H19   S    
O58   C113  S    
C34   O33   S    
O44   C93   S    
C107  C108  S    
C82   H38   S    
O29   C73   S    
C93   H69   S    
C41   O35   S    
O8    Zn4   S    
C74   H15   S    
C2    O12   A    
C75   C76   S    
C112  H119  S    
O28   C71   S    
C99   H84   S    
C81   H34   S    
C83   H41   S    
C61   O25   A    
C3    C63   S    
C27   C36   S    
O27   C69   S    
C4    C64   S    
C17   C22   S    
C36   C38   S    
C70   H5    S    
C57   O5    A    
C116  H130  S    
C28   C30   S    
C87   H52   S    
C88   H54   S    
C85   H46   S    
C77   H23   S    
C86   H48   S    
O13   Zn1   S    
C90   H61   S    
O32   C78   S    
C66   C68   S    
O43   C91   S    
C84   H42   S    
O35   C83   S    
O39   C87   S    
C22   C57   S    
C95   H74   S    
O2    Zn2   S    
O37   C85   S    
C87   H51   S    
O3    Zn1   S    
O2    Zn6   S    
C62   C67   S    
C111  H117  S    
C35   C37   S    
C94   H71   S    
C4    C65   S    
C102  H93   S    
C49   C54   S    
C97   C98   S    
C45   O3    A    
C51   C56   S    
C80   H33   S    
C12   O53   S    
C96   H77   S    
C24   O10   A    
C19   O55   S    
C82   H36   S    
C62   O22   A    
C76   H22   S    
C91   C92   S    
O42   C90   S    
C32   C38   T    
O53   C105  S    
O20   Zn4   S    
C52   C54   S    
C112  H121  S    
C53   C55   S    
C101  H90   S    
C110  H116  S    
C64   C67   S    
C79   H29   S    
C70   H7    S    
C104  H99   S    
C116  H132  S    
C103  H96   S    
O40   C88   S    
C100  H87   S    
C88   H56   S    
C45   O15   A    
C74   H17   S    
C103  H95   S    
C96   H76   S    
C5    C14   S    
C107  H107  S    
C98   H82   S    
C43   C60   S    
C40   O38   S    
C107  H108  S    
C45   C54   S    
C13   C15   S    
C110  H114  S    
C84   H44   S    
C14   C16   S    
C28   O32   S    
O51   C103  S    
C46   O4    A    
C115  H127  S    
O2    Zn4   S    
C78   H27   S    
C8    C14   S    
C30   C33   S    
C111  C112  S    
C3    C67   S    
C20   C22   S    
O31   C77   S    
O14   Zn2   S    
C83   H40   S    
C24   O14   A    
C6    C13   S    
C61   C68   S    
C76   H20   S    
C49   O41   S    
C8    C11   S    
C17   C19   S    
C41   C48   S    
C18   C20   S    
C42   C47   S    
C105  H101  S    
C3    C66   S    
C59   O23   A    
C23   O9    A    
C73   H13   S    
C101  H91   S    
C61   O21   A    
C46   O16   A    
