data_mof_unit_58101.cif
_audit_creation_date              2012-12-10T17:32:19-0500
_audit_creation_method            fapswitch 2.2
_symmetry_space_group_name_H-M    P1
_symmetry_Int_Tables_number       1
_space_group_crystal_system       triclinic
_cell_length_a                    12.30383
_cell_length_b                    13.172364
_cell_length_c                    15.059579
_cell_angle_alpha                 77.631239
_cell_angle_beta                  101.366812
_cell_angle_gamma                 116.382918
_cell_volume                      2121.21736574

loop_
_atom_site_label
_atom_site_type_symbol
_atom_type_description
_atom_site_fract_x
_atom_site_fract_y
_atom_site_fract_z
_atom_type_partial_charge
C1    C     C_R   0.854888 0.286792 0.506085 0.783031
C2    C     C_R   0.094391 0.485606 0.110782 0.111119
C3    C     C_R   0.807226 0.518857 0.011951 -0.213952
C4    C     C_R   0.806985 0.518916 0.919340 -0.207642
C5    C     C_R   0.901999 0.508191 0.889778 0.108432
C6    C     C_R   0.997949 0.496717 0.953764 0.062346
C7    C     C_R   0.093903 0.485734 0.924712 0.105881
C8    C     C_R   0.189003 0.474669 0.988646 -0.211567
C9    C     C_R   0.189359 0.474825 0.081208 -0.220411
C10   C     C_R   0.902934 0.509023 0.797265 -0.250983
C11   C     C_R   0.998461 0.498445 0.768206 -0.075611
C12   C     C_R   0.999368 0.499488 0.671252 0.813475
C13   C     C_R   0.093389 0.486507 0.832077 -0.242821
C14   C     C_R   0.266793 0.031447 0.407968 0.431378
C15   C     C_R   0.227477 0.835326 0.473727 -0.112899
C16   C     C_R   0.818619 0.083411 0.548045 -0.188807
C17   C     C_R   0.741518 0.967741 0.559728 -0.146452
C18   C     C_R   0.616677 0.931243 0.533797 -0.183029
C19   C     C_R   0.566132 0.010498 0.491847 0.104891
C20   C     C_R   0.647280 0.126842 0.469678 0.086723
C21   C     C_R   0.437975 0.978377 0.471047 0.013749
C22   C     C_R   0.393479 0.061021 0.424909 0.055158
C23   C     C_R   0.145024 0.713553 0.487929 0.830122
C24   C     C_R   0.476013 0.170871 0.393373 -0.217446
C25   C     C_R   0.600423 0.201624 0.412098 -0.215732
C26   C     C_R   0.352570 0.866789 0.496275 -0.265741
C27   C     C_R   0.184373 0.918335 0.432897 -0.303712
C28   C     C_R   0.772864 0.164427 0.505265 -0.107677
C29   C     C_R   0.335774 0.312134 0.633224 0.385826
C30   C     C_R   0.759929 0.647149 0.377472 0.064824
C31   C     C_R   0.663679 0.679843 0.351803 -0.261335
C32   C     C_R   0.559947 0.624086 0.397745 -0.199306
C33   C     C_R   0.551118 0.534280 0.470498 0.025202
C34   C     C_R   0.000077 0.499629 0.328817 0.807925
C35   C     C_R   0.652618 0.504322 0.494680 0.290056
C36   C     C_R   0.445703 0.472798 0.519735 -0.080057
C37   C     C_R   0.441535 0.379122 0.588478 0.050699
C38   C     C_R   0.543051 0.353958 0.612496 -0.274268
C39   C     C_R   0.646371 0.416176 0.567878 -0.198661
C40   C     C_R   0.343408 0.499759 0.503904 -0.010387
C41   C     C_R   0.240849 0.346460 0.616333 -0.007894
C42   C     C_R   0.094233 0.486153 0.203151 -0.250254
C43   C     C_R   0.999490 0.498146 0.232096 -0.072880
C44   C     C_R   0.903830 0.508788 0.168378 -0.252091
C45   C     C_R   0.902458 0.508027 0.075879 0.107021
C46   C     C_R   0.998176 0.496613 0.046860 0.063649
Cu1   Cu    Cu3+1 0.098270 0.475420 0.521130 0.934087
Cu2   Cu    Cu3+1 0.901730 0.524580 0.478870 0.918431
H1    H     H_    0.168266 0.477934 0.252260 0.158059
H2    H     H_    0.444796 0.233344 0.352506 0.183660
H3    H     H_    0.380917 0.801646 0.533361 0.163310
H4    H     H_    0.914158 0.109524 0.574310 0.156069
H5    H     H_    0.563243 0.840184 0.546612 0.127993
H6    H     H_    0.830175 0.517572 0.190597 0.154747
H7    H     H_    0.840081 0.691040 0.341502 0.125162
H8    H     H_    0.487897 0.652324 0.374401 0.135213
H9    H     H_    0.733182 0.527538 0.033566 0.142443
H10   H     H_    0.732763 0.527605 0.870846 0.147551
H11   H     H_    0.829184 0.517704 0.748083 0.159385
H12   H     H_    0.167431 0.478383 0.809834 0.159657
H13   H     H_    0.263226 0.466303 0.967010 0.145183
H14   H     H_    0.264024 0.466922 0.129559 0.141717
H15   H     H_    0.087154 0.895411 0.419050 0.163932
N1    N     N_R   0.246280 0.438190 0.553160 -0.210842
N2    N     N_R   0.754320 0.561190 0.447410 -0.208802
O1    O     O_R   0.972510 0.318130 0.526570 -0.580693
O2    O     O_R   0.806530 0.359650 0.490890 -0.607881
O3    O     O_R   0.082980 0.479210 0.647590 -0.582408
O4    O     O_R   0.917000 0.520730 0.611900 -0.603353
O5    O     O_R   0.193470 0.640350 0.509110 -0.589156
O6    O     O_R   0.027490 0.681870 0.473430 -0.588311
O7    O     O_R   0.083000 0.479270 0.388100 -0.582051
O8    O     O_R   0.917020 0.520790 0.352410 -0.599186
O9    O     O_3   0.224379 0.115205 0.373977 -0.587851
C47   C     C_3   0.174067 0.105352 0.281882 0.045299
H16   H     H_    0.089148 0.024939 0.276865 0.143246
H17   H     H_    0.240831 0.107179 0.240400 0.137983
C48   C     C_3   0.141887 0.206168 0.241751 -0.768134
H18   H     H_    0.225055 0.287748 0.246298 0.237403
H19   H     H_    0.103723 0.200833 0.168786 0.205625
H20   H     H_    0.073016 0.205377 0.280095 0.254490
H21   H     H_    0.778249 0.905984 0.591979 0.146004
H22   H     H_    0.658360 0.284222 0.378617 0.181470
H23   H     H_    0.160489 0.297631 0.651717 0.146666
H24   H     H_    0.543817 0.285840 0.667340 0.182153
O10   O     O_3   0.325548 0.215687 0.696199 -0.606425
C49   C     C_3   0.293313 0.121628 0.649588 0.070185
H25   H     H_    0.321902 0.058361 0.696872 0.171103
H26   H     H_    0.341257 0.144939 0.587701 0.159664
C50   C     C_3   0.155395 0.063119 0.623604 -0.818249
H27   H     H_    0.125157 0.118947 0.568281 0.244522
H28   H     H_    0.131332 0.981612 0.598359 0.223397
H29   H     H_    0.106871 0.044138 0.684101 0.246589
H30   H     H_    0.338884 0.569356 0.452970 0.135831
H31   H     H_    0.669405 0.748556 0.295965 0.146477
H32   H     H_    0.719340 0.391470 0.593550 0.208748

loop_
_geom_bond_atom_site_label_1
_geom_bond_atom_site_label_2
_ccdc_geom_bond_type
C16   C28   A    
C21   C26   A    
C19   C20   A    
Cu2   O4    S    
C12   O4    A    
C7    C8    A    
C13   H12   S    
C45   C46   A    
C2    C46   A    
C12   O3    A    
C5    C6    A    
C14   O9    S    
C36   C37   A    
C19   C21   A    
C18   C19   A    
C30   C31   A    
C48   H19   S    
C20   C25   A    
C35   N2    A    
C33   C36   A    
C17   H21   S    
C18   H5    S    
C1    O2    A    
C50   H28   S    
Cu1   Cu2   S    
C8    C9    A    
C1    C28   S    
Cu2   N2    S    
Cu1   O1    S    
C8    H13   S    
C15   C23   S    
C21   C22   A    
C23   O5    A    
C17   C18   A    
C24   H2    S    
Cu1   O7    S    
O9    C47   S    
C38   H24   S    
C9    H14   S    
C23   O6    A    
C36   C40   A    
C24   C25   A    
Cu1   N1    S    
C48   H18   S    
C16   C17   A    
C15   C26   A    
C20   C28   A    
C34   O8    A    
C41   H23   S    
C3    C45   A    
C35   C39   A    
C47   H16   S    
Cu1   O5    S    
C37   C38   A    
C15   C27   A    
C31   C32   A    
C1    O1    A    
C47   H17   S    
C29   O10   S    
C27   H15   S    
C3    H9    S    
C49   H26   S    
C43   C44   A    
C14   C27   A    
C22   C24   A    
C42   C43   A    
Cu2   O6    S    
C29   C37   A    
C3    C4    A    
C34   O7    A    
Cu1   O3    S    
C44   C45   A    
C50   H29   S    
C6    C46   A    
C29   C41   A    
O10   C49   S    
Cu2   O8    S    
C34   C43   S    
C16   H4    S    
C40   H30   S    
C4    C5    A    
C11   C12   S    
C6    C7    A    
C30   H7    S    
C40   N1    A    
C32   C33   A    
C14   C22   A    
C10   H11   S    
C5    C10   A    
C26   H3    S    
C11   C13   A    
C48   H20   S    
C50   H27   S    
C38   C39   A    
C2    C42   A    
C31   H31   S    
C33   C35   A    
Cu2   O2    S    
C47   C48   S    
C39   H32   S    
C30   N2    A    
C10   C11   A    
C42   H1    S    
C44   H6    S    
C7    C13   A    
C49   H25   S    
C49   C50   S    
C4    H10   S    
C25   H22   S    
C41   N1    A    
C2    C9    A    
C32   H8    S    
