data_mof_unit_9488.cif
_audit_creation_date              2012-12-10T18:52:56-0500
_audit_creation_method            fapswitch 2.2
_symmetry_space_group_name_H-M    P1
_symmetry_Int_Tables_number       1
_space_group_crystal_system       triclinic
_cell_length_a                    9.789775
_cell_length_b                    10.806754
_cell_length_c                    16.771649
_cell_angle_alpha                 89.96827
_cell_angle_beta                  83.716465
_cell_angle_gamma                 90.762595
_cell_volume                      1763.54874592

loop_
_atom_site_label
_atom_site_type_symbol
_atom_type_description
_atom_site_fract_x
_atom_site_fract_y
_atom_site_fract_z
_atom_type_partial_charge
C1    C     C_R   0.502132 0.740626 0.497532 0.922410
C2    C     C_R   0.499512 0.259806 0.493959 0.925309
C3    C     C_R   0.630326 0.942783 0.491322 -0.053418
C4    C     C_R   0.376751 0.058279 0.473394 -0.069085
C5    C     C_R   0.627037 0.067872 0.473855 0.428302
C6    C     C_R   0.388385 0.931019 0.465019 0.412721
C7    C     C_R   0.499350 0.127689 0.480014 -0.297860
C8    C     C_R   0.507796 0.872943 0.485953 -0.284644
C9    C     C_R   0.938892 0.450977 0.437084 -0.018473
C10   C     C_R   0.061406 0.552812 0.561509 -0.060112
C11   C     C_R   0.082965 0.449963 0.437393 -0.131472
C12   C     C_R   0.917118 0.550909 0.562166 -0.103456
C13   C     C_R   0.479503 0.504098 0.653490 0.897284
C14   C     C_R   0.520650 0.495898 0.346805 0.865640
C15   C     C_R   0.466487 0.526659 0.739587 -0.126961
C16   C     C_R   0.536886 0.472178 0.261370 -0.149744
C17   C     C_R   0.576871 0.587088 0.770908 -0.289902
C18   C     C_R   0.437864 0.398211 0.229166 -0.290031
C19   C     C_R   0.575873 0.603005 0.852601 -0.198161
C20   C     C_R   0.448892 0.375629 0.147542 -0.209291
C21   C     C_R   0.465795 0.556521 0.903774 0.112490
C22   C     C_R   0.558503 0.427605 0.097989 0.109614
C23   C     C_R   0.351886 0.502418 0.873696 -0.316726
C24   C     C_R   0.663064 0.493809 0.130046 -0.279791
C25   C     C_R   0.348208 0.490970 0.790742 0.468166
C26   C     C_R   0.651980 0.518206 0.211971 0.460749
C27   C     C_2   0.481355 0.542947 0.988373 0.034688
C28   C     C_2   0.544718 0.440334 0.013015 0.040295
H1    H     H_    0.666422 0.618915 0.732359 0.164911
H2    H     H_    0.350488 0.360070 0.266925 0.165662
H3    H     H_    0.270932 0.461621 0.915048 0.140109
H4    H     H_    0.747009 0.534637 0.090813 0.141608
H5    H     H_    0.367243 0.325620 0.122232 0.149031
H6    H     H_    0.664957 0.643443 0.876248 0.135897
H7    H     H_    0.892889 0.412611 0.386728 0.147656
H8    H     H_    0.107921 0.595573 0.610252 0.135813
H9    H     H_    0.146246 0.409284 0.387609 0.126197
H10   H     H_    0.853651 0.590406 0.612219 0.143450
N1    N     N_R   0.142790 0.500030 0.500020 -0.074275
N2    N     N_R   0.857210 0.499970 0.499980 -0.076259
O1    O     O_R   0.385380 0.683250 0.500010 -0.556942
O2    O     O_R   0.614620 0.316750 0.499990 -0.562514
O3    O     O_R   0.614710 0.683220 0.500000 -0.642752
O4    O     O_R   0.385290 0.316780 0.500000 -0.629969
O5    O     O_R   0.371780 0.500040 0.615800 -0.584794
O6    O     O_R   0.628220 0.499960 0.384200 -0.588854
O7    O     O_R   0.601110 0.500010 0.615800 -0.635159
O8    O     O_R   0.398890 0.499990 0.384200 -0.640483
Zn1   Zn    Zn3+2 0.346870 0.500020 0.500000 0.958924
Zn2   Zn    Zn3+2 0.653130 0.499980 0.500000 0.962046
O9    O     O_3   0.752245 0.588668 0.243141 -0.603948
C29   C     C_3   0.719351 0.714724 0.236256 0.110616
H11   H     H_    0.616257 0.734558 0.268367 0.107411
H12   H     H_    0.721576 0.742132 0.172140 0.138578
C30   C     C_3   0.825112 0.793353 0.273521 -0.842392
H13   H     H_    0.801475 0.892697 0.267196 0.202166
H14   H     H_    0.823385 0.770423 0.338160 0.259640
H15   H     H_    0.929055 0.776022 0.242407 0.256266
O10   O     O_3   0.240589 0.428032 0.760644 -0.602947
C31   C     C_3   0.116031 0.491367 0.781319 0.109365
H16   H     H_    0.119277 0.582675 0.750461 0.126183
H17   H     H_    0.093881 0.506539 0.846979 0.124766
C32   C     C_3   0.997060 0.414689 0.755678 -0.840774
H18   H     H_    0.987347 0.326013 0.789461 0.251849
H19   H     H_    0.899695 0.466382 0.767893 0.203364
H20   H     H_    0.014926 0.394296 0.690771 0.266210
C33   C     C_3   0.599164 0.339542 0.954485 -0.406965
C34   C     C_3   0.663109 0.229219 0.994113 -0.347880
C35   C     C_3   0.713569 0.132188 0.932042 -0.892152
H21   H     H_    0.626660 0.096158 0.901037 0.264909
H22   H     H_    0.793354 0.172836 0.887031 0.263011
H23   H     H_    0.758961 0.053784 0.962377 0.246811
H24   H     H_    0.751585 0.261794 0.025163 0.226778
H25   H     H_    0.585393 0.185127 0.038940 0.224168
H26   H     H_    0.512977 0.304040 0.922587 0.214781
H27   H     H_    0.678379 0.381194 0.909486 0.211397
C36   C     C_3   0.421793 0.645034 0.043892 -0.405513
C37   C     C_3   0.512884 0.761859 0.035281 -0.338089
C38   C     C_3   0.461448 0.860340 0.096128 -0.923910
H28   H     H_    0.355223 0.887450 0.086975 0.267044
H29   H     H_    0.462427 0.824891 0.158257 0.245275
H30   H     H_    0.529465 0.943515 0.088384 0.251992
H31   H     H_    0.620136 0.738233 0.044509 0.208172
H32   H     H_    0.513268 0.800775 0.973893 0.227944
H33   H     H_    0.317417 0.667363 0.028229 0.193742
H34   H     H_    0.407874 0.616016 0.107693 0.218061
C39   C     C_3   0.762131 0.893162 0.520471 -0.297105
C40   C     C_3   0.741585 0.867226 0.611300 -0.335779
C41   C     C_3   0.878505 0.858735 0.646649 -0.933849
H35   H     H_    0.951255 0.799295 0.609204 0.269511
H36   H     H_    0.925404 0.952228 0.650094 0.275462
H37   H     H_    0.861306 0.819543 0.708210 0.243237
H38   H     H_    0.681427 0.942794 0.642759 0.224090
H39   H     H_    0.683025 0.779579 0.623715 0.226213
H40   H     H_    0.802572 0.811926 0.485763 0.205364
H41   H     H_    0.847799 0.960904 0.509373 0.236111
C42   C     C_3   0.232057 0.111423 0.480351 -0.316866
C43   C     C_3   0.175834 0.124280 0.569140 -0.313928
C44   C     C_3   0.034770 0.183657 0.579071 -0.846675
H42   H     H_    0.043379 0.281644 0.560300 0.276209
H43   H     H_    0.963657 0.134849 0.542522 0.292954
H44   H     H_    0.991383 0.179392 0.642995 0.243589
H45   H     H_    0.167073 0.030739 0.597035 0.218579
H46   H     H_    0.246845 0.180470 0.602221 0.250883
H47   H     H_    0.227092 0.198108 0.445677 0.200824
H48   H     H_    0.159939 0.049799 0.451950 0.220087
O11   O     O_3   0.749754 0.132406 0.456241 -0.605260
C45   C     C_3   0.777786 0.144701 0.371939 0.124445
H49   H     H_    0.747569 0.238475 0.353853 0.161531
H50   H     H_    0.722479 0.075828 0.337045 0.106462
C46   C     C_3   0.931033 0.129014 0.348180 -0.917754
H51   H     H_    0.961372 0.033619 0.362608 0.252417
H52   H     H_    0.955497 0.145074 0.282755 0.219182
H53   H     H_    0.990692 0.195954 0.381140 0.253593
O12   O     O_3   0.277374 0.862586 0.443869 -0.589035
C47   C     C_3   0.294108 0.847304 0.359768 0.098336
H54   H     H_    0.391898 0.799345 0.339611 0.119665
H55   H     H_    0.293021 0.938486 0.328763 0.121232
C48   C     C_3   0.176019 0.768648 0.335375 -0.794980
H56   H     H_    0.076790 0.812362 0.356779 0.242953
H57   H     H_    0.184947 0.759928 0.269042 0.197199
H58   H     H_    0.178763 0.674992 0.362132 0.277331

loop_
_geom_bond_atom_site_label_1
_geom_bond_atom_site_label_2
_ccdc_geom_bond_type
O4    Zn1   S    
C39   C40   S    
C32   H19   S    
C1    C8    S    
C17   H1    S    
C46   H51   S    
C30   H13   S    
C42   C43   S    
C14   O6    A    
C36   C37   S    
C45   H49   S    
C31   C32   S    
C22   C24   A    
C19   C21   A    
C24   C26   A    
C43   H46   S    
C15   C25   A    
C34   H25   S    
O12   C47   S    
C47   H54   S    
C31   H17   S    
C35   H22   S    
C37   H31   S    
C1    O3    A    
C2    C7    S    
C2    O4    A    
C34   C35   S    
C39   H40   S    
O11   C45   S    
C18   H2    S    
C41   H36   S    
C29   C30   S    
C42   H47   S    
C21   C27   S    
C32   H20   S    
C36   H33   S    
O10   C31   S    
C22   C28   S    
C4    C42   S    
C4    C7    A    
O1    Zn1   S    
C29   H12   S    
O7    Zn2   S    
C5    C7    A    
C48   H57   S    
C21   C23   A    
C16   C26   A    
C40   H39   S    
C3    C39   S    
C33   C34   S    
C28   C33   S    
C4    C6    A    
C3    C8    A    
C13   O7    A    
C37   C38   S    
C14   O8    A    
C3    C5    A    
C34   H24   S    
C9    N2    A    
O9    C29   S    
C10   N1    A    
C23   H3    S    
C12   N2    A    
C35   H23   S    
C24   H4    S    
C44   H42   S    
O5    Zn1   S    
C39   H41   S    
C46   H52   S    
C41   H37   S    
C11   N1    A    
C9    C11   A    
C10   C12   A    
O2    Zn2   S    
C20   H5    S    
C1    O1    A    
O8    Zn1   S    
C44   H43   S    
C20   C22   A    
C36   H34   S    
C30   H14   S    
C14   C16   S    
C33   H26   S    
C42   H48   S    
C29   H11   S    
C11   H9    S    
C5    O11   S    
C48   H58   S    
C15   C17   A    
C40   H38   S    
N1    Zn1   S    
C47   H55   S    
C32   H18   S    
C27   C36   S    
C19   H6    S    
C38   H30   S    
C6    C8    A    
C48   H56   S    
C45   C46   S    
O3    Zn2   S    
O6    Zn2   S    
C38   H29   S    
C47   C48   S    
C13   C15   S    
C26   O9    S    
C13   O5    A    
C2    O2    A    
N2    Zn2   S    
C17   C19   A    
C45   H50   S    
C46   H53   S    
C18   C20   A    
C23   C25   A    
C12   H10   S    
C35   H21   S    
C6    O12   S    
C38   H28   S    
C37   H32   S    
C44   H44   S    
C40   C41   S    
C16   C18   A    
C43   C44   S    
C30   H15   S    
C27   C28   D    
C9    H7    S    
C31   H16   S    
C10   H8    S    
C33   H27   S    
C25   O10   S    
C41   H35   S    
C43   H45   S    
