data_mof_unit_56192.cif
_audit_creation_date              2012-12-11T16:26:36-0500
_audit_creation_method            fapswitch 2.2
_symmetry_space_group_name_H-M    P1
_symmetry_Int_Tables_number       1
_space_group_crystal_system       triclinic
_cell_length_a                    6.966014
_cell_length_b                    17.818397
_cell_length_c                    19.304068
_cell_angle_alpha                 107.970825
_cell_angle_beta                  88.679769
_cell_angle_gamma                 90.460389
_cell_volume                      2278.5807216

loop_
_atom_site_label
_atom_site_type_symbol
_atom_type_description
_atom_site_fract_x
_atom_site_fract_y
_atom_site_fract_z
_atom_type_partial_charge
O1    O     O_R   0.494330 0.415720 0.413720 -0.515041
O2    O     O_R   0.819330 0.430070 0.560210 -0.546330
O3    O     O_R   0.994320 0.584280 0.586280 -0.547172
C1    C     C_R   0.649307 0.416158 0.582785 0.677899
O4    O     O_R   0.823730 0.406300 0.412670 -0.524244
O5    O     O_R   0.998760 0.560340 0.437690 -0.569091
C2    C     C_R   0.657278 0.387559 0.381468 0.734270
O6    O     O_R   0.489890 0.439660 0.562310 -0.540251
O7    O     O_3   0.662340 0.550560 0.508380 -0.388440
V1    V     V_3+5 0.935370 0.490620 0.498450 1.491254
O8    O     O_R   0.328750 0.569930 0.439790 -0.510609
C3    C     C_R   0.161255 0.580985 0.414719 0.849084
O9    O     O_R   0.324340 0.593700 0.587330 -0.548162
C4    C     C_R   0.154352 0.615378 0.615919 0.683987
V2    V     V_3+5 0.435940 0.509380 0.501550 1.520216
O10   O     O_3   0.159100 0.449440 0.491620 -0.361474
H1    H     H_    0.551427 0.824448 0.592677 0.261056
C5    C     C_R   0.972397 0.601372 0.749462 -0.171852
C6    C     C_R   0.887480 0.592093 0.812324 -0.112372
C7    C     C_R   0.880878 0.655004 0.876333 -0.098657
C8    C     C_R   0.958344 0.727863 0.877985 -0.163440
C9    C     C_R   0.042476 0.739913 0.814752 0.070108
C10   C     C_R   0.050471 0.674810 0.748982 0.083156
C11   C     C_R   0.121907 0.814544 0.816773 -0.151368
C12   C     C_R   0.214255 0.822691 0.752915 -0.158590
C13   C     C_R   0.227917 0.756530 0.688928 -0.053030
C14   C     C_R   0.141717 0.683275 0.685308 -0.110191
C15   C     C_R   0.280513 0.896482 0.746572 0.293069
C16   C     C_R   0.427298 0.894924 0.693331 0.365163
C17   C     C_R   0.460815 0.823910 0.638749 -0.253667
C18   C     C_R   0.313817 0.768935 0.627020 0.300988
H2    H     H_    0.978448 0.549847 0.701821 0.112384
H3    H     H_    0.828611 0.535410 0.811558 0.133949
H4    H     H_    0.816936 0.647135 0.925282 0.133848
H5    H     H_    0.953474 0.773985 0.929775 0.099067
C19   C     C_R   0.254926 0.602173 0.292409 -0.010103
C20   C     C_R   0.149914 0.624362 0.359502 -0.109107
C21   C     C_R   0.016061 0.685944 0.372293 -0.044170
C22   C     C_R   0.002230 0.733675 0.326805 0.020195
C23   C     C_R   0.131440 0.720406 0.267223 0.043443
C24   C     C_R   0.259982 0.655399 0.250290 0.106499
C25   C     C_R   0.871156 0.797633 0.342707 0.393039
C26   C     C_R   0.891297 0.855117 0.306022 -0.171184
C27   C     C_R   0.998989 0.835086 0.239321 -0.037445
C28   C     C_R   0.126707 0.770075 0.222471 0.040408
C29   C     C_R   0.254997 0.756275 0.162008 0.108185
C30   C     C_R   0.389396 0.695332 0.148388 -0.181975
C31   C     C_R   0.392614 0.646175 0.192208 -0.062396
C32   C     C_R   0.985074 0.877972 0.188991 -0.120091
C33   C     C_R   0.111740 0.864140 0.129025 -0.073873
C34   C     C_R   0.249980 0.804616 0.116908 -0.179197
H6    H     H_    0.928260 0.698770 0.420869 0.156564
H7    H     H_    0.874542 0.921570 0.194430 0.169154
H8    H     H_    0.349906 0.794512 0.071032 0.112491
H9    H     H_    0.493028 0.685691 0.103761 0.151858
H10   H     H_    0.503522 0.602216 0.181550 0.235147
C35   C     C_R   0.473980 0.198407 0.880781 -0.101250
C36   C     C_R   0.629633 0.148719 0.881820 -0.084373
C37   C     C_R   0.795555 0.153272 0.841079 -0.076452
C38   C     C_R   0.798212 0.197059 0.792029 0.050739
C39   C     C_R   0.641144 0.245407 0.789836 0.110175
C40   C     C_R   0.482048 0.250866 0.838404 0.060715
C41   C     C_R   0.953419 0.190402 0.743229 -0.189971
C42   C     C_R   0.949729 0.225529 0.687640 0.419962
C43   C     C_R   0.794574 0.275902 0.685653 -0.029519
C44   C     C_R   0.643374 0.287535 0.738561 0.041143
C45   C     C_R   0.491818 0.339687 0.738975 0.144902
C46   C     C_R   0.340703 0.349141 0.790170 -0.192835
C47   C     C_R   0.333649 0.306024 0.840387 -0.054644
C48   C     C_R   0.785578 0.315188 0.632728 -0.140579
C49   C     C_R   0.640006 0.369719 0.634743 -0.127269
C50   C     C_R   0.494207 0.382311 0.688525 -0.124666
H11   H     H_    0.345513 0.193613 0.911422 0.164519
H12   H     H_    0.917639 0.118038 0.843458 0.211608
H13   H     H_    0.075997 0.155416 0.747123 0.232895
H14   H     H_    0.890941 0.304346 0.589133 0.202131
H15   H     H_    0.381358 0.424536 0.690492 0.122361
H16   H     H_    0.227480 0.390915 0.791154 0.148391
H17   H     H_    0.452889 0.156798 0.445139 0.179674
C51   C     C_R   0.744016 0.398466 0.225752 -0.142572
C52   C     C_R   0.760189 0.403543 0.153694 0.446606
C53   C     C_R   0.719912 0.337845 0.095301 -0.185835
C54   C     C_R   0.672836 0.267055 0.106027 -0.219266
C55   C     C_R   0.657319 0.259153 0.176491 0.075039
C56   C     C_R   0.684125 0.326605 0.239241 -0.033093
C57   C     C_R   0.612979 0.184378 0.183526 -0.124547
C58   C     C_R   0.572412 0.177323 0.253374 0.042672
C59   C     C_R   0.590395 0.243929 0.316895 0.081111
C60   C     C_R   0.649162 0.318863 0.311400 -0.128632
C61   C     C_R   0.510143 0.104439 0.260981 -0.170462
C62   C     C_R   0.462744 0.096688 0.329387 0.024081
C63   C     C_R   0.484550 0.161678 0.391501 -0.129755
C64   C     C_R   0.548740 0.233684 0.385613 -0.149832
H18   H     H_    0.729658 0.340757 0.040070 0.184101
H19   H     H_    0.646642 0.218392 0.057463 0.113598
H20   H     H_    0.494311 0.053310 0.213460 0.133861
H21   H     H_    0.564147 0.281144 0.436015 0.103823
O11   O     O_R   0.775200 0.060470 0.937800 -0.519323
O12   O     O_R   0.441110 0.093720 0.087350 -0.547934
O13   O     O_R   0.266330 0.939630 0.062280 -0.543387
C65   C     C_R   0.607442 0.113892 0.116783 0.660007
O14   O     O_R   0.445750 0.069950 0.939820 -0.511579
O15   O     O_R   0.271000 0.915700 0.913700 -0.537829
C66   C     C_R   0.616433 0.089923 0.922688 0.773079
O16   O     O_R   0.770530 0.084400 0.086380 -0.541337
O17   O     O_3   0.602830 0.949510 0.991680 -0.384752
V3    V     V_3+5 0.329710 0.009370 0.001550 1.530009
O18   O     O_R   0.940990 0.906170 0.912570 -0.521802
C67   C     C_R   0.111293 0.882794 0.885508 0.794755
O19   O     O_R   0.936350 0.929940 0.060100 -0.556064
C68   C     C_R   0.104080 0.914117 0.080716 0.668036
V4    V     V_3+5 0.829160 0.990450 0.998310 1.511826
O20   O     O_3   0.105910 0.050480 0.008320 -0.358217
S1    S     S_3+6 0.670308 0.801497 0.402705 0.091797
O21   O     O_2   0.734142 0.836013 0.479923 -0.249625
O22   O     O_2   0.512177 0.851509 0.388777 -0.275583
O23   O     O_3   0.583213 0.709964 0.389925 -0.509713
H22   H     H_    0.590822 0.700511 0.437724 0.355655
C69   C     C_2   0.836622 0.939206 0.345913 0.909677
O24   O     O_2   0.829372 0.989013 0.314591 -0.589714
O25   O     O_R   0.809294 0.963296 0.421618 -0.552050
H23   H     H_    0.777021 0.021440 0.442615 0.347715
S2    S     S_3+6 0.134092 0.199067 0.619199 0.033046
O26   O     O_2   0.297934 0.160277 0.644272 -0.266010
O27   O     O_2   0.051669 0.141931 0.551998 -0.290902
O28   O     O_3   0.218491 0.278199 0.598376 -0.543741
H24   H     H_    0.311117 0.256768 0.557449 0.350789
C70   C     C_2   0.174528 0.323596 0.895968 0.760294
O29   O     O_2   0.019979 0.347054 0.882015 -0.562271
O30   O     O_R   0.202987 0.317319 0.965409 -0.654979
H25   H     H_    0.081181 0.326879 0.996534 0.328573
C71   C     C_2   0.815153 0.464288 0.284286 0.823251
O31   O     O_2   0.972304 0.458318 0.308014 -0.557962
O32   O     O_R   0.704409 0.532191 0.312280 -0.632815
H26   H     H_    0.759408 0.571643 0.356469 0.299823
S3    S     S_3+6 0.835766 0.488599 0.130315 -0.019155
O33   O     O_2   0.691356 0.504576 0.079932 -0.338405
O34   O     O_2   0.857541 0.560971 0.194884 -0.357482
O35   O     O_3   0.047036 0.468882 0.084823 -0.481236
H27   H     H_    0.079551 0.517251 0.071970 0.383002
C72   C     C_2   0.393087 0.020154 0.335705 0.841719
O36   O     O_2   0.332613 0.015410 0.394222 -0.478192
O37   O     O_R   0.399226 0.952787 0.274779 -0.671781
H28   H     H_    0.357202 0.903693 0.286854 0.323575
S4    S     S_3+6 0.119840 0.977311 0.772363 0.063614
O38   O     O_2   0.193052 0.037851 0.838827 -0.347471
O39   O     O_2   0.106541 0.013427 0.712058 -0.251615
O40   O     O_3   0.897255 0.949460 0.789812 -0.498205
H29   H     H_    0.867520 0.902766 0.747842 0.355317
S5    S     S_3+6 0.524751 0.979464 0.675792 0.169377
O41   O     O_2   0.414869 0.994987 0.615524 -0.187625
O42   O     O_2   0.511832 0.050092 0.742218 -0.303254
O43   O     O_3   0.754739 0.962581 0.647699 -0.432187
H30   H     H_    0.789589 0.006154 0.627979 0.421981
S6    S     S_3+6 0.155358 0.781159 0.561865 0.070086
O44   O     O_2   0.126280 0.867529 0.572631 -0.188446
O45   O     O_2   0.249471 0.745852 0.488881 -0.349391
O46   O     O_3   0.938348 0.741725 0.568945 -0.503360
H31   H     H_    0.937613 0.689848 0.531366 0.321968
C73   C     C_2   0.322042 0.518701 0.259654 0.853513
O47   O     O_2   0.352933 0.477089 0.297968 -0.545184
O48   O     O_R   0.333298 0.485035 0.184052 -0.622765
H32   H     H_    0.361712 0.426428 0.168478 0.319349

loop_
_geom_bond_atom_site_label_1
_geom_bond_atom_site_label_2
_ccdc_geom_bond_type
C27   C32   A    
C58   C59   A    
O28   H24   S    
C53   H18   S    
S6    O45   D    
C6    C7    A    
C1    O6    A    
C70   O29   D    
S1    O21   D    
C61   C62   A    
S2    O26   D    
O17   V4    S    
C28   C29   A    
C12   C15   A    
C15   S4    S    
C16   C17   A    
C38   C41   A    
C51   C71   S    
C30   H9    S    
C15   C16   A    
C20   C21   A    
C55   C57   A    
C45   C50   A    
C72   O37   S    
S4    O38   D    
C17   C18   A    
C32   H7    S    
O37   H28   S    
S2    O27   D    
C21   H6    S    
O17   V3    S    
V2    O10   S    
C2    C60   S    
O18   C67   A    
C5    C6    A    
C35   H11   S    
C3    C20   S    
C32   C33   A    
O19   C68   A    
V3    O20   S    
C50   H15   S    
C16   S5    S    
C59   C64   A    
O8    V2    S    
C39   C44   A    
C25   S1    S    
C54   C55   A    
C47   C70   S    
C71   O31   D    
S5    O43   S    
C48   C49   A    
O1    V2    S    
C10   C14   A    
C4    C14   S    
O7    V1    S    
C7    H4    S    
C44   C45   A    
C37   C38   A    
C8    C9    A    
S6    O46   S    
C46   H16   S    
H1    C17   S    
C19   C24   A    
S3    O35   S    
O4    V1    S    
V4    O20   S    
S4    O39   D    
C52   C53   A    
C22   C25   A    
C69   O25   S    
C65   O16   A    
C23   C28   A    
O11   V4    S    
C45   C46   A    
C35   C40   A    
C11   C12   A    
S3    O34   D    
C6    H3    S    
C62   C63   A    
O4    C2    A    
C56   C60   A    
C57   C58   A    
C46   C47   A    
S2    O28   S    
C12   C13   A    
C29   C34   A    
C5    C10   A    
C40   C47   A    
C38   C39   A    
C73   O48   S    
O2    C1    A    
C26   C27   A    
C51   C56   A    
S1    O22   D    
C30   C31   A    
C69   O24   D    
C54   H19   S    
C7    C8    A    
C33   C34   A    
C13   C14   A    
O14   V3    S    
C55   C56   A    
O14   C66   A    
C63   C64   A    
C37   H12   S    
O25   H23   S    
O3    C4    A    
C23   C24   A    
O12   C65   A    
O16   V4    S    
C43   C44   A    
O6    V2    S    
O9    V2    S    
C48   H14   S    
O46   H31   S    
O9    C4    A    
S5    O42   D    
C36   C66   S    
C25   C26   A    
O2    V1    S    
C64   H21   S    
C22   C23   A    
S4    O40   S    
C27   C28   A    
C52   S3    S    
H17   C63   S    
O48   H32   S    
C31   H10   S    
C29   C30   A    
C19   C20   A    
O13   V3    S    
O1    C2    A    
C11   C67   S    
C51   C52   A    
C70   O30   S    
O5    V1    S    
C18   S6    S    
O35   H27   S    
C61   H20   S    
O32   H26   S    
C8    H5    S    
C42   S2    S    
O12   V3    S    
S5    O41   D    
O15   C67   A    
C34   H8    S    
C42   C43   A    
O30   H25   S    
C36   C37   A    
C49   C50   A    
O3    V1    S    
V1    O10   S    
O23   H22   S    
C73   O47   D    
O5    C3    A    
C35   C36   A    
C21   C22   A    
C41   H13   S    
O11   C66   A    
C33   C68   S    
C24   C31   A    
C9    C11   A    
O40   H29   S    
O7    V2    S    
C39   C40   A    
O19   V4    S    
S1    O23   S    
C19   C73   S    
C41   C42   A    
O18   V4    S    
C13   C18   A    
C5    H2    S    
C59   C60   A    
O13   C68   A    
C71   O32   S    
C53   C54   A    
C58   C61   A    
S6    O44   D    
C9    C10   A    
S3    O33   D    
O15   V3    S    
O43   H30   S    
C72   O36   D    
C57   C65   S    
C1    C49   S    
C43   C48   A    
O8    C3    A    
C26   C69   S    
C62   C72   S    
