data_mof_unit_23654.cif
_audit_creation_date              2013-03-05T16:06:55-0500
_audit_creation_method            fapswitch 2.2
_symmetry_space_group_name_H-M    P1
_symmetry_Int_Tables_number       1
_space_group_crystal_system       triclinic
_cell_length_a                    10.840553
_cell_length_b                    9.599686
_cell_length_c                    10.881865
_cell_angle_alpha                 90.00346
_cell_angle_beta                  92.366549
_cell_angle_gamma                 90.017232
_cell_volume                      1131.46523233

loop_
_atom_site_label
_atom_site_type_symbol
_atom_site_description
_atom_site_fract_x
_atom_site_fract_y
_atom_site_fract_z
_atom_type_partial_charge
O1    O     O_R   0.319640 0.618740 0.499990 -0.546012
O2    O     O_R   0.680360 0.618740 0.500010 -0.545918
O3    O     O_R   0.319620 0.381170 0.499990 -0.598645
O4    O     O_R   0.680380 0.381170 0.500010 -0.598638
C1    C     C_R   0.262329 0.499670 0.500689 0.808903
C2    C     C_R   0.737676 0.499698 0.499297 0.809185
O5    O     O_R   0.499990 0.618810 0.319660 -0.541624
O6    O     O_R   0.500010 0.618810 0.680340 -0.541511
O7    O     O_R   0.499960 0.381240 0.319650 -0.591852
O8    O     O_R   0.500040 0.381240 0.680350 -0.591765
C3    C     C_R   0.499466 0.499913 0.262819 0.822727
C4    C     C_R   0.500509 0.499920 0.737183 0.822917
Cu1   Cu    Cu3+1 0.500000 0.640660 0.500000 1.051386
Cu2   Cu    Cu3+1 0.500000 0.359340 0.500000 0.961708
C5    C     C_R   0.499274 0.620677 0.061934 0.143973
C6    C     C_R   0.501076 0.620684 0.938113 0.143640
C7    C     C_R   0.499085 0.498447 0.130082 -0.095599
C8    C     C_R   0.500772 0.498458 0.869919 -0.095799
C9    C     C_R   0.499281 0.371473 0.064471 -0.205133
C10   C     C_R   0.499960 0.371479 0.935484 -0.205025
H1    H     H_    0.498969 0.272378 0.112034 0.176159
H2    H     H_    0.499821 0.272387 0.887887 0.176208
C11   C     C_3   0.501595 0.775671 0.929563 -0.448493
C12   C     C_3   0.499761 0.775655 0.070596 -0.449049
H3    H     H_    0.415657 0.817199 0.883889 0.204942
H4    H     H_    0.585977 0.816503 0.116287 0.204981
C13   C     C_R   0.063879 0.371814 0.499175 -0.156208
C14   C     C_R   0.935981 0.371827 0.498768 -0.156053
H5    H     H_    0.111867 0.272883 0.498120 0.177693
H6    H     H_    0.887867 0.272894 0.498149 0.177763
C15   C     C_R   0.871638 0.498577 0.498612 -0.056447
C16   C     C_R   0.128378 0.498530 0.501379 -0.055816
C17   C     C_R   0.936369 0.624488 0.498853 -0.119134
C18   C     C_R   0.063821 0.624441 0.503253 -0.118488
C19   C     C_R   0.406181 0.076017 0.443976 -0.092319
C20   C     C_R   0.593785 0.076128 0.556057 -0.092151
H7    H     H_    0.331868 0.133624 0.398162 0.179968
H8    H     H_    0.668031 0.133854 0.601915 0.180679
C21   C     C_R   0.404097 0.928376 0.443847 0.366236
C22   C     C_R   0.595900 0.928493 0.556197 0.366247
N1    N     N_R   0.500000 0.852070 0.500000 -0.272620
N2    N     N_R   0.500000 0.147940 0.500000 -0.217375
H9    H     H_    0.588951 0.818155 0.895706 0.250381
H10   H     H_    0.412698 0.818788 0.104515 0.250201
H11   H     H_    0.888903 0.723077 0.495480 0.219184
H12   H     H_    0.111431 0.722957 0.508388 0.218011
N3    N     N_R   0.297435 0.863848 0.385780 0.117898
O9    O     O_R   0.190248 0.923387 0.394512 -0.413899
O10   O     O_R   0.309859 0.773367 0.298666 -0.363931
N4    N     N_R   0.702584 0.864174 0.614408 0.116914
O11   O     O_R   0.809570 0.924604 0.606763 -0.414381
O12   O     O_R   0.690141 0.772743 0.700762 -0.364020

loop_
_geom_bond_atom_site_label_1
_geom_bond_atom_site_label_2
_geom_bond_distance
_ccdc_geom_bond_type
N4    O12   1.296958 A    
C11   C12   1.535648 S    
C15   C17   1.397394 A    
O6    Cu1   1.973622 S    
C18   H12   1.077593 S    
O6    C4    1.298086 A    
C13   H5    1.083274 S    
C17   H11   1.077305 S    
C19   C21   1.417483 A    
N3    O9    1.302075 A    
Cu2   N2    2.029374 S    
O7    Cu2   1.973769 S    
C1    C16   1.452464 S    
C14   H6    1.083273 S    
N4    O11   1.302352 A    
N3    O10   1.296822 A    
C6    C8    1.388195 A    
Cu1   Cu2   2.700584 S    
O5    C3    1.298065 A    
O7    C3    1.296202 A    
O2    C2    1.301103 A    
O3    Cu2   1.966674 S    
O8    C4    1.296203 A    
C22   N4    1.435265 S    
C20   H8    1.081874 S    
C22   N1    1.392822 A    
C9    H1    1.083063 S    
C10   H2    1.083060 S    
C17   C18   1.380506 A    
C6    C11   1.490762 S    
C8    C10   1.412660 A    
C11   H3    1.111701 S    
O4    Cu2   1.966548 S    
C12   H10   1.107898 S    
O1    C1    1.300980 A    
O4    C2    1.296335 A    
O1    Cu1   1.966426 S    
C5    C6    1.348347 A    
O5    Cu1   1.973596 S    
C11   H9    1.107897 S    
C19   H7    1.081888 S    
C21   N1    1.392426 A    
C19   N2    1.353174 A    
O8    Cu2   1.973741 S    
C4    C8    1.444371 S    
C13   C14   1.386314 A    
C5    C7    1.388158 A    
O2    Cu1   1.966550 S    
Cu1   N1    2.029470 S    
C5    C12   1.490709 S    
C20   C22   1.417445 A    
C2    C15   1.452593 S    
C7    C9    1.412627 A    
C13   C16   1.402597 A    
C21   N3    1.434966 S    
C20   N2    1.352857 A    
C14   C15   1.402652 A    
C3    C7    1.444327 S    
C9    C10   1.403948 A    
C12   H4    1.111705 S    
O3    C1    1.296397 A    
C16   C18   1.397440 A    
