data_mof_unit_6448.cif
_audit_creation_date              2012-12-10T18:23:54-0500
_audit_creation_method            fapswitch 2.2
_symmetry_space_group_name_H-M    P1
_symmetry_Int_Tables_number       1
_space_group_crystal_system       triclinic
_cell_length_a                    15.657194
_cell_length_b                    14.900267
_cell_length_c                    14.292169
_cell_angle_alpha                 92.768249
_cell_angle_beta                  90.340329
_cell_angle_gamma                 87.013366
_cell_volume                      3325.87695998

loop_
_atom_site_label
_atom_site_type_symbol
_atom_type_description
_atom_site_fract_x
_atom_site_fract_y
_atom_site_fract_z
_atom_type_partial_charge
C1    C     C_R   0.500303 0.327137 0.498141 0.876475
C2    C     C_R   0.500932 0.672699 0.501819 0.879140
C3    C     C_R   0.505406 0.768016 0.505348 -0.035248
C4    C     C_R   0.499187 0.231389 0.495461 -0.062784
C5    C     C_R   0.561558 0.806648 0.445897 -0.263210
C6    C     C_R   0.448488 0.192196 0.560003 -0.283223
C7    C     C_R   0.562942 0.899927 0.443365 0.081191
C8    C     C_R   0.450509 0.099268 0.565385 0.092167
C9    C     C_R   0.507293 0.952987 0.504445 0.018985
C10   C     C_R   0.504743 0.046392 0.502679 0.023067
C11   C     C_R   0.452736 0.912358 0.566274 0.109954
C12   C     C_R   0.556295 0.087171 0.437885 0.112618
C13   C     C_R   0.616567 0.941553 0.380597 0.087662
C14   C     C_R   0.399941 0.057847 0.631178 0.093036
C15   C     C_R   0.611612 0.035260 0.378236 -0.269584
C16   C     C_R   0.400068 0.964251 0.628541 -0.274842
C17   C     C_R   0.439954 0.552212 0.802156 0.165490
C18   C     C_R   0.551477 0.438080 0.196933 0.167095
C19   C     C_R   0.561089 0.447716 0.796241 0.013026
C20   C     C_R   0.445010 0.558515 0.203109 0.013562
C21   C     C_R   0.560270 0.442610 0.896851 -0.068525
C22   C     C_R   0.435306 0.549691 0.102819 -0.070614
C23   C     C_R   0.338183 0.500767 0.499744 0.900229
C24   C     C_R   0.661683 0.501125 0.500124 0.894822
C25   C     C_R   0.497813 0.495378 0.949328 0.046251
C26   C     C_R   0.497540 0.497399 0.050135 0.044767
C27   C     C_R   0.435011 0.545879 0.901585 0.002237
C28   C     C_R   0.558912 0.445873 0.098248 -0.008555
C29   C     C_R   0.620484 0.388671 0.948348 -0.004492
C30   C     C_R   0.366702 0.591537 0.052541 0.001151
C31   C     C_R   0.622378 0.396485 0.046064 -0.261983
C32   C     C_R   0.367650 0.588965 0.954568 -0.262232
C33   C     C_3   0.974791 0.425487 0.489865 -0.168479
C34   C     C_3   0.024000 0.595772 0.503914 -0.166364
C35   C     C_3   0.028898 0.470000 0.416610 -0.164696
C36   C     C_3   0.969756 0.551189 0.577174 -0.171362
C37   C     C_1   0.248941 0.504203 0.498984 -0.206638
C38   C     C_1   0.750406 0.505789 0.499554 -0.175915
C39   C     C_3   0.029728 0.465407 0.570160 -0.170930
C40   C     C_3   0.968759 0.555804 0.423561 -0.171335
C41   C     C_3   0.082161 0.509918 0.496963 0.221577
C42   C     C_3   0.916511 0.511212 0.496881 0.216677
C43   C     C_1   0.173323 0.507353 0.497901 -0.098014
C44   C     C_1   0.825630 0.509339 0.498014 -0.093770
C45   C     C_R   0.451141 0.819767 0.564716 -0.272486
C46   C     C_R   0.552584 0.179948 0.434388 -0.279096
H1    H     H_    0.055396 0.436901 0.351022 0.124939
H2    H     H_    0.943254 0.584398 0.642699 0.124271
H3    H     H_    0.672791 0.359052 0.081344 0.168394
H4    H     H_    0.313113 0.620624 0.920332 0.169171
H5    H     H_    0.952367 0.355956 0.484093 0.122253
H6    H     H_    0.046529 0.665258 0.509578 0.124358
H7    H     H_    0.941513 0.592754 0.363738 0.128080
H8    H     H_    0.056741 0.428420 0.630065 0.127638
H9    H     H_    0.405787 0.787646 0.606965 0.151181
H10   H     H_    0.593004 0.212202 0.386520 0.149589
H11   H     H_    0.602082 0.762635 0.400772 0.158875
H12   H     H_    0.407701 0.235682 0.605373 0.164217
H13   H     H_    0.651599 0.068103 0.330035 0.140754
H14   H     H_    0.359843 0.931546 0.676337 0.152036
N1    N     N_R   0.500040 0.500070 0.750030 -0.135874
N2    N     N_R   0.499960 0.499930 0.249970 -0.129802
O1    O     O_R   0.500020 0.367860 0.580280 -0.627316
O2    O     O_R   0.499980 0.632140 0.419720 -0.605383
O3    O     O_R   0.500020 0.367840 0.419730 -0.637166
O4    O     O_R   0.499980 0.632160 0.580270 -0.646970
O5    O     O_R   0.376770 0.500000 0.580260 -0.637059
O6    O     O_R   0.623230 0.500000 0.419740 -0.634804
O7    O     O_R   0.376780 0.499980 0.419710 -0.624012
O8    O     O_R   0.623220 0.500020 0.580290 -0.597012
Zn1   Zn    Zn3+2 0.499990 0.500020 0.607200 0.928926
Zn2   Zn    Zn3+2 0.500010 0.499980 0.392800 0.931432
C47   C     C_R   0.673142 0.311411 0.907682 0.130568
C48   C     C_R   0.634099 0.231345 0.880824 -0.175437
C49   C     C_R   0.683772 0.155749 0.848120 -0.146559
C50   C     C_R   0.772739 0.159015 0.844100 -0.107091
C51   C     C_R   0.812195 0.237580 0.873661 -0.124501
C52   C     C_R   0.762709 0.313325 0.906410 -0.146373
H15   H     H_    0.565327 0.227858 0.884783 0.128101
H16   H     H_    0.653301 0.094643 0.826101 0.127024
H17   H     H_    0.811136 0.100501 0.818660 0.116369
H18   H     H_    0.881129 0.239731 0.871376 0.119140
H19   H     H_    0.793882 0.373581 0.930055 0.120209
C53   C     C_R   0.286501 0.628182 0.096950 0.122131
C54   C     C_R   0.228507 0.569558 0.132270 -0.176625
C55   C     C_R   0.151119 0.603762 0.171399 -0.152767
C56   C     C_R   0.130672 0.696308 0.173999 -0.115671
C57   C     C_R   0.187236 0.754735 0.136786 -0.127790
C58   C     C_R   0.264688 0.720829 0.097635 -0.142307
H20   H     H_    0.243682 0.497737 0.130276 0.130664
H21   H     H_    0.107092 0.558575 0.199833 0.127808
H22   H     H_    0.070875 0.722694 0.204536 0.120083
H23   H     H_    0.171093 0.826299 0.138346 0.122774
H24   H     H_    0.307989 0.766563 0.068737 0.127610
C59   C     C_3   0.678757 0.888905 0.314949 -0.424828
C60   C     C_3   0.758397 0.854125 0.368048 -0.322696
C61   C     C_3   0.817482 0.794420 0.304089 -0.909906
H25   H     H_    0.783983 0.734516 0.277039 0.262626
H26   H     H_    0.838621 0.832535 0.244228 0.260751
H27   H     H_    0.874804 0.771171 0.344122 0.244698
H28   H     H_    0.793920 0.912302 0.396174 0.219449
H29   H     H_    0.740113 0.814773 0.428160 0.221038
H30   H     H_    0.646397 0.832935 0.277661 0.193162
H31   H     H_    0.699946 0.932311 0.259228 0.196009
C62   C     C_3   0.346675 0.110529 0.705648 -0.418025
C63   C     C_3   0.403940 0.149583 0.783575 -0.341284
C64   C     C_3   0.352010 0.210160 0.853734 -0.892509
H32   H     H_    0.320959 0.268057 0.818199 0.264089
H33   H     H_    0.302235 0.171681 0.886607 0.259743
H34   H     H_    0.394984 0.236517 0.909519 0.248058
H35   H     H_    0.436309 0.093564 0.821053 0.219020
H36   H     H_    0.454287 0.189494 0.753883 0.218565
H37   H     H_    0.306167 0.164182 0.673382 0.194238
H38   H     H_    0.301349 0.066239 0.738190 0.193133
C65   C     C_3   0.381690 0.622306 0.756425 -0.373755
C66   C     C_3   0.399539 0.719000 0.792802 -0.375479
C67   C     C_3   0.319263 0.781428 0.788441 -0.936288
H39   H     H_    0.293532 0.782248 0.715938 0.257516
H40   H     H_    0.269254 0.758725 0.835379 0.264358
H41   H     H_    0.334790 0.850665 0.812410 0.250744
H42   H     H_    0.423092 0.721808 0.866150 0.231572
H43   H     H_    0.451318 0.745197 0.750816 0.229187
H44   H     H_    0.388602 0.621064 0.680785 0.253411
H45   H     H_    0.314061 0.606355 0.767411 0.180479
C68   C     C_3   0.586049 0.349646 0.235856 -0.379657
C69   C     C_3   0.673037 0.354779 0.286398 -0.280873
C70   C     C_3   0.735588 0.275968 0.258186 -0.975260
H46   H     H_    0.706458 0.210921 0.268808 0.258620
H47   H     H_    0.754563 0.278487 0.183791 0.266234
H48   H     H_    0.794171 0.279505 0.302129 0.257533
H49   H     H_    0.703403 0.418544 0.272254 0.231233
H50   H     H_    0.662964 0.351524 0.362718 0.235061
H51   H     H_    0.537127 0.320171 0.277127 0.207598
H52   H     H_    0.590738 0.296106 0.179024 0.179247
C71   C     C_R   0.636954 0.410500 0.743553 0.193767
C72   C     C_R   0.712888 0.457004 0.748581 -0.138551
C73   C     C_R   0.787070 0.420292 0.704400 -0.137402
C74   C     C_R   0.785872 0.337497 0.654209 -0.114544
C75   C     C_R   0.710981 0.290395 0.649756 -0.156130
C76   C     C_R   0.637247 0.325953 0.695605 -0.068352
H53   H     H_    0.714649 0.521143 0.787382 0.114232
H54   H     H_    0.845391 0.456183 0.708761 0.127181
H55   H     H_    0.843214 0.309453 0.619647 0.119885
H56   H     H_    0.710551 0.225354 0.612651 0.131914
H57   H     H_    0.581530 0.286014 0.696798 0.128853
C77   C     C_R   0.409565 0.641649 0.252836 0.189121
C78   C     C_R   0.449763 0.722623 0.241572 -0.160741
C79   C     C_R   0.415629 0.803271 0.283433 -0.136134
C80   C     C_R   0.341754 0.803700 0.337793 -0.108556
C81   C     C_R   0.300731 0.723816 0.348453 -0.165344
C82   C     C_R   0.333698 0.643413 0.304992 -0.059463
H58   H     H_    0.507319 0.723251 0.199975 0.114498
H59   H     H_    0.446900 0.865336 0.274358 0.135813
H60   H     H_    0.315908 0.866042 0.370905 0.129887
H61   H     H_    0.242325 0.724460 0.388662 0.126425
H62   H     H_    0.297895 0.583685 0.308621 0.141953

loop_
_geom_bond_atom_site_label_1
_geom_bond_atom_site_label_2
_ccdc_geom_bond_type
C68   H52   S    
C73   H54   S    
C49   C50   A    
C69   C70   S    
C60   H29   S    
C41   C43   S    
C47   C48   A    
C23   O7    A    
C62   C63   S    
C36   C42   S    
C59   C60   S    
C56   C57   A    
C35   H1    S    
C61   H25   S    
C24   O8    A    
C71   C72   A    
C39   C41   S    
C4    C46   A    
C51   C52   A    
C33   C39   S    
C66   H43   S    
C13   C59   S    
C34   C40   S    
C33   C42   S    
C51   H18   S    
C62   H37   S    
C19   C21   A    
C2    C3    S    
C74   H55   S    
C67   H40   S    
C18   C68   S    
C39   H8    S    
C29   C47   S    
C63   C64   S    
C19   C71   S    
C65   C66   S    
C66   C67   S    
C16   H14   S    
C23   O5    A    
C58   H24   S    
C6    H12   S    
C34   H6    S    
C17   N1    A    
C52   H19   S    
C14   C62   S    
C78   C79   A    
C2    O2    A    
C1    O3    A    
C64   H32   S    
C36   H2    S    
O8    Zn1   S    
C14   C16   A    
C49   H16   S    
O5    Zn1   S    
O6    Zn2   S    
N1    Zn1   S    
C40   C42   S    
C60   H28   S    
C20   N2    A    
C64   H33   S    
C34   C41   S    
C42   C44   S    
C31   H3    S    
C1    O1    A    
C61   H26   S    
C59   H30   S    
C63   H35   S    
C28   C31   A    
C71   C76   A    
C54   H20   S    
C65   H44   S    
C48   C49   A    
C17   C27   A    
C62   H38   S    
C18   C28   A    
C53   C54   A    
C4    C6    A    
C66   H42   S    
C67   H41   S    
C5    C7    A    
C55   C56   A    
C18   N2    A    
C63   H36   S    
C3    C5    A    
C25   C26   A    
C54   C55   A    
C21   C29   A    
C3    C45   A    
C37   C43   T    
O7    Zn2   S    
C80   H60   S    
C70   H47   S    
C38   C44   T    
C72   H53   S    
C75   H56   S    
C24   C38   S    
O4    Zn1   S    
C12   C15   A    
C69   H50   S    
C47   C52   A    
C60   C61   S    
N2    Zn2   S    
C82   H62   S    
C50   C51   A    
C9    C11   A    
C32   H4    S    
C10   C12   A    
C12   C46   A    
C20   C22   A    
C81   H61   S    
C13   C15   A    
C68   C69   S    
C64   H34   S    
C20   C77   S    
C11   C45   A    
C33   H5    S    
C53   C58   A    
C70   H46   S    
C61   H27   S    
C56   H22   S    
C59   H31   S    
C17   C65   S    
C77   C78   A    
C9    C10   A    
C48   H15   S    
C68   H51   S    
C7    C9    A    
C21   C25   A    
C57   H23   S    
C8    C14   A    
C65   H45   S    
C22   C30   A    
C27   C32   A    
C15   H13   S    
C36   C39   S    
O1    Zn1   S    
C72   C73   A    
C2    O4    A    
C50   H17   S    
C6    C8    A    
C75   C76   A    
C25   C27   A    
O3    Zn2   S    
C73   C74   A    
C76   H57   S    
C26   C28   A    
C5    H11   S    
C55   H21   S    
C1    C4    S    
C78   H58   S    
C70   H48   S    
C29   C31   A    
C23   C37   S    
C80   C81   A    
C30   C32   A    
C69   H49   S    
C19   N1    A    
C33   C35   S    
C35   C40   S    
C34   C36   S    
C79   C80   A    
O2    Zn2   S    
C30   C53   S    
C35   C41   S    
C11   C16   A    
C74   C75   A    
C24   O6    A    
C77   C82   A    
C7    C13   A    
C57   C58   A    
C45   H9    S    
C8    C10   A    
C40   H7    S    
C22   C26   A    
C46   H10   S    
C81   C82   A    
C79   H59   S    
C67   H39   S    
