data_mof_unit_26149.cif
_audit_creation_date              2012-12-11T15:55:41-0500
_audit_creation_method            fapswitch 2.2
_symmetry_space_group_name_H-M    P1
_symmetry_Int_Tables_number       1
_space_group_crystal_system       triclinic
_cell_length_a                    10.96299
_cell_length_b                    11.063454
_cell_length_c                    18.770659
_cell_angle_alpha                 90.67511
_cell_angle_beta                  90.205145
_cell_angle_gamma                 59.528782
_cell_volume                      1962.07801013

loop_
_atom_site_label
_atom_site_type_symbol
_atom_type_description
_atom_site_fract_x
_atom_site_fract_y
_atom_site_fract_z
_atom_type_partial_charge
C1    C     C_R   0.357786 0.773354 0.397387 0.542052
C2    C     C_R   0.612648 0.103717 0.178763 0.034087
C3    C     C_R   0.349432 0.309488 0.170331 -0.035218
C4    C     C_R   0.448954 0.198613 0.283432 0.210139
C5    C     C_R   0.465322 0.200490 0.209270 -0.026763
C6    C     C_R   0.025371 0.676168 0.291353 -0.097662
C7    C     C_R   0.917226 0.786182 0.330809 -0.110385
C8    C     C_R   0.645059 0.998137 0.127040 0.018376
C9    C     C_R   0.780302 0.918505 0.097803 -0.093039
C10   C     C_R   0.232139 0.417289 0.207345 -0.178499
C11   C     C_R   0.227168 0.424848 0.281662 -0.075322
C12   C     C_R   0.381281 0.349603 0.390364 0.551806
C13   C     C_R   0.877603 0.760936 0.396956 -0.116761
C14   C     C_R   0.942283 0.624657 0.422666 -0.080412
C15   C     C_R   0.049790 0.514288 0.383328 -0.038313
C16   C     C_R   0.097993 0.539342 0.318592 0.055035
C17   C     C_R   0.344118 0.319978 0.319394 0.028209
C18   C     C_R   0.857771 0.340927 0.182197 0.027686
C19   C     C_R   0.951948 0.321637 0.237021 0.011511
C20   C     C_R   0.908634 0.336210 0.307189 0.037195
C21   C     C_R   0.671359 0.405419 0.268016 -0.211244
C22   C     C_R   0.716935 0.383439 0.197239 -0.185276
C23   C     C_R   0.718700 0.411454 0.395034 0.544343
C24   C     C_3   0.089134 0.191292 0.251638 -0.271010
C25   C     C_3   0.038956 0.202409 0.327552 -0.264581
C26   C     C_R   0.768957 0.377176 0.323041 0.015275
C27   C     C_R   0.353992 0.835171 0.175975 -0.022064
C28   C     C_R   0.455569 0.847611 0.216454 0.062897
C29   C     C_R   0.449286 0.843047 0.291809 0.000097
C30   C     C_R   0.237423 0.830644 0.284183 -0.175411
C31   C     C_R   0.255025 0.812640 0.211721 -0.178796
C32   C     C_3   0.608824 0.732536 0.220277 0.065811
C33   C     C_3   0.600842 0.739058 0.299546 -0.194882
C34   C     C_R   0.342149 0.772289 0.603553 0.548171
C35   C     C_R   0.340454 0.833925 0.326366 0.005313
C36   C     C_R   0.276294 0.274320 0.803347 -0.000285
C37   C     C_R   0.392147 0.171512 0.764906 -0.000736
C38   C     C_R   0.411729 0.189957 0.694499 0.114067
C39   C     C_R   0.189564 0.408645 0.693690 -0.178168
C40   C     C_R   0.169349 0.389284 0.765901 -0.161392
C41   C     C_3   0.547117 0.103995 0.781314 -0.238489
C42   C     C_3   0.568728 0.122598 0.703904 0.097562
C43   C     C_R   0.317827 0.314077 0.659408 -0.014232
C44   C     C_R   0.848525 0.316673 0.828827 0.016777
C45   C     C_R   0.368656 0.349476 0.595456 0.532113
C46   C     C_R   0.845933 0.426720 0.792482 0.033347
C47   C     C_R   0.839869 0.434905 0.720310 0.022429
C48   C     C_R   0.850649 0.212095 0.713409 -0.168511
C49   C     C_R   0.861775 0.202485 0.788273 -0.166206
C50   C     C_3   0.756663 0.580740 0.804357 -0.282307
C51   C     C_3   0.747818 0.591560 0.724181 -0.261721
C52   C     C_R   0.828540 0.334976 0.679606 0.018746
C53   C     C_R   0.293064 0.862234 0.821494 0.012422
C54   C     C_R   0.181369 0.867936 0.783267 0.031763
C55   C     C_R   0.187984 0.855837 0.710088 0.029627
C56   C     C_R   0.765600 0.375900 0.609456 0.545176
C57   C     C_R   0.402523 0.865311 0.709293 -0.166092
C58   C     C_R   0.399773 0.869565 0.783513 -0.165616
C59   C     C_3   0.115444 0.779478 0.790840 -0.283898
C60   C     C_3   0.123426 0.764594 0.710514 -0.265265
C61   C     C_R   0.304949 0.842415 0.672482 0.012099
C62   C     C_R   0.909577 0.316816 0.110883 0.550181
C63   C     C_R   0.327355 0.289944 0.094840 0.558750
C64   C     C_R   0.309189 0.896872 0.105070 0.546164
C65   C     C_R   0.886592 0.307024 0.903588 0.538949
C66   C     C_R   0.269841 0.254665 0.879885 0.566353
C67   C     C_R   0.890880 0.930405 0.125804 -0.091043
C68   C     C_R   0.274296 0.896949 0.896799 0.541164
C69   C     C_R   0.866232 0.018904 0.184157 -0.106421
C70   C     C_R   0.729107 0.102815 0.210865 -0.108758
Cr1   Cr    Cr6+3 0.601740 0.606840 0.505840 1.005329
Cr2   Cr    Cr6+3 0.291500 0.601560 0.495070 1.007833
Cr3   Cr    Cr6+3 0.606780 0.291630 0.499130 1.048534
Cr4   Cr    Cr6+3 0.062440 0.063060 0.008240 1.002084
Cr5   Cr    Cr6+3 0.062950 0.375000 0.998920 1.005301
Cr6   Cr    Cr6+3 0.374550 0.061770 0.992470 0.990872
H1    H     H_    0.794986 0.846693 0.427650 0.136385
H2    H     H_    0.910780 0.604707 0.473733 0.129667
H3    H     H_    0.101132 0.410741 0.405905 0.095284
H4    H     H_    0.561175 0.442302 0.279907 0.114848
H5    H     H_    0.642776 0.400997 0.154738 0.123135
H6    H     H_    0.181149 0.206157 0.246554 0.151528
H7    H     H_    0.101370 0.099253 0.221799 0.153309
H8    H     H_    0.015815 0.118587 0.341519 0.143833
H9    H     H_    0.106504 0.216943 0.366618 0.137760
H10   H     H_    0.150105 0.826226 0.307512 0.152293
H11   H     H_    0.800806 0.841029 0.056649 0.100382
H12   H     H_    0.179362 0.795896 0.183021 0.131501
H13   H     H_    0.623743 0.636178 0.194632 0.141821
H14   H     H_    0.618676 0.641701 0.322344 0.136876
H15   H     H_    0.659144 0.783926 0.326062 0.177715
H16   H     H_    0.111217 0.502633 0.667096 0.127754
H17   H     H_    0.075922 0.468782 0.793389 0.140016
H18   H     H_    0.596765 0.992679 0.797163 0.142860
H19   H     H_    0.572170 0.169427 0.817028 0.121619
H20   H     H_    0.609681 0.194668 0.694681 0.136036
H21   H     H_    0.865577 0.891746 0.310842 0.136241
H22   H     H_    0.850909 0.128345 0.682895 0.124520
H23   H     H_    0.877709 0.108563 0.814027 0.132280
H24   H     H_    0.816719 0.626983 0.828549 0.138906
H25   H     H_    0.654103 0.610814 0.830485 0.137825
H26   H     H_    0.640182 0.626328 0.704039 0.169206
H27   H     H_    0.800423 0.646259 0.701817 0.146491
H28   H     H_    0.489620 0.864052 0.681650 0.184324
H29   H     H_    0.482976 0.875348 0.811309 0.137982
H30   H     H_    0.005150 0.840371 0.811357 0.130593
H31   H     H_    0.996105 0.864427 0.104762 0.128615
H32   H     H_    0.184964 0.679337 0.818772 0.144073
H33   H     H_    0.198946 0.655809 0.692426 0.163794
H34   H     H_    0.017878 0.815253 0.684555 0.124790
H35   H     H_    0.953266 0.019726 0.210280 0.112964
H36   H     H_    0.715000 0.161454 0.259276 0.154380
H37   H     H_    0.055925 0.699803 0.241136 0.092118
H38   H     H_    0.569807 0.967441 0.112619 0.204797
H39   H     H_    0.140466 0.493504 0.177974 0.146207
O1    O     O_R   0.748670 0.497520 0.427970 -0.532161
O2    O     O_R   0.300170 0.471020 0.567120 -0.516464
O3    O     O_R   0.491630 0.259030 0.574940 -0.486193
O4    O     O_R   0.718640 0.304340 0.577850 -0.505436
O5    O     O_3   0.500010 0.500010 0.500020 -0.276120
O6    O     O_R   0.186620 0.923750 0.087000 -0.538399
O7    O     O_R   0.957350 0.194160 0.084660 -0.495437
O8    O     O_R   0.935120 0.407280 0.085350 -0.519638
O9    O     O_R   0.203800 0.365060 0.067090 -0.497845
O10   O     O_R   0.417470 0.174910 0.067830 -0.541306
O11   O     O_R   0.375160 0.946380 0.070880 -0.513745
O12   O     O_R   0.476470 0.723930 0.429450 -0.515139
O13   O     O_R   0.160500 0.919670 0.926690 -0.514655
O14   O     O_R   0.933140 0.190380 0.936050 -0.505909
O15   O     O_R   0.909010 0.403210 0.925030 -0.527584
O16   O     O_R   0.179590 0.361290 0.918480 -0.503852
O17   O     O_R   0.391360 0.170840 0.907510 -0.523246
O18   O     O_R   0.350950 0.942600 0.922260 -0.525195
O19   O     O_3   0.166650 0.166610 0.999880 -0.264803
O20   O     O_R   0.264730 0.744140 0.416740 -0.514811
O21   O     O_R   0.309440 0.472410 0.418220 -0.513966
O22   O     O_R   0.501630 0.260530 0.414310 -0.450873
O23   O     O_R   0.727920 0.305730 0.428950 -0.496272
O24   O     O_R   0.738670 0.496020 0.588600 -0.522891
O25   O     O_R   0.467190 0.722540 0.578350 -0.501453
O26   O     O_R   0.254720 0.742640 0.577370 -0.518841
O27   O     O_3   0.540262 0.082609 0.323066 -0.696345
H40   H     H_    0.593699 0.000976 0.291047 0.342377
O28   O     O_3   0.705927 0.768284 0.196295 -0.740624
H41   H     H_    0.800102 0.681453 0.198743 0.338886
O29   O     O_3   0.641226 0.994885 0.666510 -0.703960
H42   H     H_    0.742952 0.956507 0.677132 0.306303

loop_
_geom_bond_atom_site_label_1
_geom_bond_atom_site_label_2
_ccdc_geom_bond_type
C44   C49   A    
C45   O3    A    
C7    C13   A    
C21   C26   A    
C34   O26   A    
Cr3   O4    S    
Cr6   O11   S    
C41   C42   S    
C23   O23   A    
C19   C20   A    
C40   H17   S    
C65   O15   A    
C66   O16   A    
Cr5   O19   S    
C53   C54   A    
C51   H26   S    
Cr4   O13   S    
C20   C26   A    
Cr1   O5    S    
Cr5   O8    S    
C21   C22   A    
C68   O18   A    
C24   H7    S    
C38   C42   S    
C33   H15   S    
C4    O27   S    
C30   C31   A    
C36   C66   S    
Cr2   O21   S    
C20   C25   S    
C51   H27   S    
C15   C16   A    
C29   C33   S    
C18   C19   A    
C23   C26   S    
C53   C68   S    
C24   H6    S    
C60   H33   S    
C23   O1    A    
C54   C55   A    
C15   H3    S    
C41   H18   S    
Cr5   O16   S    
C8    C9    A    
Cr2   O2    S    
C25   H8    S    
C31   H12   S    
C30   H10   S    
C68   O13   A    
Cr5   O15   S    
C8    H38   S    
C59   C60   S    
Cr3   O5    S    
C55   C60   S    
Cr6   O10   S    
Cr1   O12   S    
C44   C65   S    
C62   O8    A    
C44   C46   A    
C63   O9    A    
C66   O17   A    
C54   C59   S    
C39   C43   A    
Cr2   O26   S    
C13   H1    S    
C59   H30   S    
C27   C31   A    
Cr5   O9    S    
C22   H5    S    
C28   C32   S    
C24   C25   S    
C10   C11   A    
C39   C40   A    
C56   O24   A    
Cr6   O19   S    
C18   C62   S    
Cr2   O20   S    
Cr1   O24   S    
C34   C61   S    
C67   C69   A    
C12   C17   S    
C47   C52   A    
C9    C67   A    
C6    H37   S    
C37   C38   A    
C49   H23   S    
C11   C16   S    
C65   O14   A    
C32   H13   S    
C14   C15   A    
C36   C40   A    
C53   C58   A    
Cr2   O5    S    
C25   H9    S    
C50   C51   S    
C43   C45   S    
C63   O10   A    
C70   H36   S    
C4    C17   A    
C30   C35   A    
C48   C49   A    
Cr4   O7    S    
C64   O11   A    
C12   O21   A    
C56   O4    A    
C42   H20   S    
C2    C5    S    
C55   C61   A    
C42   O29   S    
C39   H16   S    
C62   O7    A    
C1    C35   S    
O29   H42   S    
C45   O2    A    
C57   H28   S    
C46   C50   S    
C46   C47   A    
C28   C29   A    
Cr1   O25   S    
Cr3   O3    S    
C7    H21   S    
C18   C22   A    
C12   O22   A    
C2    C8    A    
C1    O12   A    
O28   H41   S    
C3    C5    A    
C11   C17   A    
C47   C51   S    
Cr6   O18   S    
C57   C61   A    
C6    C7    A    
C3    C63   S    
C48   H22   S    
C29   C35   A    
C50   H24   S    
C59   H32   S    
C58   H29   S    
C32   C33   S    
C19   C24   S    
C38   C43   A    
C3    C10   A    
C2    C70   A    
C33   H14   S    
C9    H11   S    
Cr6   O17   S    
C67   H31   S    
C57   C58   A    
C41   H19   S    
Cr3   O22   S    
C4    C5    A    
Cr4   O19   S    
C21   H4    S    
C34   O25   A    
Cr1   O1    S    
C14   H2    S    
C37   C41   S    
C69   C70   A    
C69   H35   S    
C32   O28   S    
C60   H34   S    
C27   C64   S    
C6    C16   A    
C52   C56   S    
C48   C52   A    
Cr4   O6    S    
C50   H25   S    
C36   C37   A    
Cr3   O23   S    
Cr4   O14   S    
C1    O20   A    
C27   C28   A    
O27   H40   S    
C13   C14   A    
C10   H39   S    
C64   O6    A    
