data_mof_unit_15613.cif
_audit_creation_date              2013-03-05T15:40:54-0500
_audit_creation_method            fapswitch 2.2
_symmetry_space_group_name_H-M    P1
_symmetry_Int_Tables_number       1
_space_group_crystal_system       triclinic
_cell_length_a                    17.481943
_cell_length_b                    24.208397
_cell_length_c                    15.045864
_cell_angle_alpha                 89.9759
_cell_angle_beta                  125.340579
_cell_angle_gamma                 89.871668
_cell_volume                      5194.17108783

loop_
_atom_site_label
_atom_site_type_symbol
_atom_site_description
_atom_site_fract_x
_atom_site_fract_y
_atom_site_fract_z
_atom_type_partial_charge
C1    C     C_R   0.836364 0.648115 0.908713 -0.038818
C2    C     C_R   0.193232 0.621196 0.093862 0.036726
C3    C     C_R   0.306815 0.121585 0.905222 0.034673
C4    C     C_R   0.682214 0.135551 0.090818 -0.075951
H1    H     H_    0.789707 0.663072 0.827579 0.197546
H2    H     H_    0.253067 0.620894 0.177468 0.160589
H3    H     H_    0.245915 0.119765 0.822987 0.167751
H4    H     H_    0.736654 0.147979 0.172108 0.169800
N1    N     N_R   0.892320 0.603520 0.941090 -0.058552
N2    N     N_R   0.107680 0.603520 0.058910 -0.055526
N3    N     N_R   0.392320 0.103520 0.941090 -0.054986
N4    N     N_R   0.607680 0.103520 0.058910 -0.043612
C5    C     C_R   0.911056 0.370921 0.094317 -0.069421
C6    C     C_R   0.074297 0.357623 0.907392 -0.043146
C7    C     C_R   0.430596 0.854801 0.092325 -0.064111
C8    C     C_R   0.595304 0.879406 0.905533 -0.056682
H5    H     H_    0.941182 0.358359 0.176882 0.113391
H6    H     H_    0.036265 0.343053 0.824278 0.143198
H7    H     H_    0.471096 0.839050 0.174763 0.148105
H8    H     H_    0.569636 0.874461 0.821328 0.116587
N5    N     N_R   0.953790 0.399020 0.058440 -0.048789
N6    N     N_R   0.046210 0.399020 0.941560 -0.053163
N7    N     N_R   0.453790 0.899020 0.058440 -0.053279
N8    N     N_R   0.546210 0.899020 0.941560 -0.052325
C9    C     C_R   0.005199 0.545517 0.274430 0.356892
C10   C     C_R   0.951871 0.545817 0.696846 0.292623
C11   C     C_R   0.514958 0.044820 0.283431 0.289022
C12   C     C_R   0.453154 0.045772 0.697212 0.331011
N9    N     N_R   0.026760 0.529450 0.205590 -0.106158
N10   N     N_R   0.973240 0.529450 0.794410 -0.103759
N11   N     N_R   0.526760 0.029450 0.205590 -0.097912
N12   N     N_R   0.473240 0.029450 0.794410 -0.105601
C13   C     C_R   0.744517 0.453448 0.701633 0.245468
C14   C     C_R   0.254016 0.455566 0.303024 0.320348
C15   C     C_R   0.240221 0.954996 0.703621 0.353589
C16   C     C_R   0.748817 0.953469 0.303567 0.211287
N13   N     N_R   0.819350 0.473090 0.793940 -0.125158
N14   N     N_R   0.180650 0.473090 0.206060 -0.106644
N15   N     N_R   0.319350 0.973090 0.793940 -0.115674
N16   N     N_R   0.680650 0.973090 0.206060 -0.129153
C17   C     C_R   0.012761 0.454334 0.278481 -0.158430
C18   C     C_R   0.952021 0.454396 0.699147 -0.148109
C19   C     C_R   0.509435 0.953106 0.274373 -0.115253
C20   C     C_R   0.451308 0.954673 0.698465 -0.175659
H9    H     H_    0.023499 0.412565 0.308398 0.155447
H10   H     H_    0.933623 0.411976 0.673294 0.167383
H11   H     H_    0.510474 0.910005 0.293482 0.144855
H12   H     H_    0.432980 0.912416 0.671748 0.174092
N17   N     N_R   0.027860 0.473090 0.206590 -0.067942
N18   N     N_R   0.972140 0.473090 0.793410 -0.071869
N19   N     N_R   0.527860 0.973090 0.206590 -0.070938
N20   N     N_R   0.472140 0.973090 0.793410 -0.076496
C21   C     C_R   0.740947 0.544894 0.695535 0.201762
C22   C     C_R   0.251360 0.546667 0.305787 0.218251
C23   C     C_R   0.241113 0.046415 0.697965 0.206236
C24   C     C_R   0.752377 0.044435 0.308671 0.189646
N21   N     N_R   0.818250 0.529450 0.792940 -0.120411
N22   N     N_R   0.181750 0.529450 0.207060 -0.116135
N23   N     N_R   0.318250 0.029450 0.792940 -0.124410
N24   N     N_R   0.681750 0.029450 0.207060 -0.118099
C25   C     C_R   0.815468 0.374657 0.912705 -0.020795
C26   C     C_R   0.166755 0.358576 0.089988 -0.019401
C27   C     C_R   0.338292 0.855849 0.910641 -0.011891
C28   C     C_R   0.688718 0.880671 0.087426 -0.015976
H13   H     H_    0.755715 0.369902 0.829674 0.169488
H14   H     H_    0.215108 0.345610 0.173557 0.172388
H15   H     H_    0.291952 0.842098 0.827705 0.178806
H16   H     H_    0.749772 0.878576 0.170662 0.141631
N25   N     N_R   0.896320 0.399020 0.944720 -0.048809
N26   N     N_R   0.103680 0.399020 0.055280 -0.054692
N27   N     N_R   0.396320 0.899020 0.944720 -0.059560
N28   N     N_R   0.603680 0.899020 0.055280 -0.041489
C29   C     C_R   0.931500 0.649142 0.089261 -0.068422
C30   C     C_R   0.101782 0.624821 0.912998 -0.093103
C31   C     C_R   0.398460 0.128318 0.084746 -0.121658
C32   C     C_R   0.593847 0.130915 0.909911 -0.125869
H17   H     H_    0.975302 0.666078 0.169869 0.187016
H18   H     H_    0.077136 0.631345 0.830329 0.156954
H19   H     H_    0.422605 0.140441 0.164786 0.173155
H20   H     H_    0.568854 0.139030 0.827414 0.183663
N29   N     N_R   0.949790 0.603520 0.054810 -0.064619
N30   N     N_R   0.050210 0.603520 0.945190 -0.040393
N31   N     N_R   0.449790 0.103520 0.054810 -0.043139
N32   N     N_R   0.550210 0.103520 0.945190 -0.047672
C33   C     C_R   0.860292 0.677181 0.999956 -0.085730
C34   C     C_R   0.192855 0.635067 0.004528 -0.108434
C35   C     C_R   0.307413 0.137722 0.992658 -0.113476
C36   C     C_R   0.672553 0.154374 0.998081 -0.044224
C37   C     C_R   0.822996 0.357792 0.005618 0.098203
C38   C     C_R   0.149843 0.331795 0.999452 0.047965
C39   C     C_R   0.357881 0.827475 0.000929 0.047268
C40   C     C_R   0.685349 0.869062 0.994877 0.097329
C41   C     C_R   0.992134 0.499040 0.316686 -0.033128
C42   C     C_R   0.935662 0.499290 0.634553 -0.038017
C43   C     C_R   0.497857 0.997529 0.321537 -0.024236
C44   C     C_R   0.436747 0.999440 0.634913 -0.003828
C45   C     C_R   0.690907 0.497757 0.643007 -0.050051
C46   C     C_R   0.301835 0.501409 0.365919 -0.092313
C47   C     C_R   0.187980 0.000647 0.644126 -0.131177
C48   C     C_R   0.798244 0.997359 0.367782 -0.012169
Ni1   Ni    Ni4+2 0.934100 0.565890 0.869590 0.301696
Ni2   Ni    Ni4+2 0.065900 0.565890 0.130410 0.298624
Ni3   Ni    Ni4+2 0.434100 0.065890 0.869590 0.302105
Ni4   Ni    Ni4+2 0.565900 0.065890 0.130410 0.312174
Ni5   Ni    Ni4+2 0.068420 0.436630 0.132700 0.292479
Ni6   Ni    Ni4+2 0.931580 0.436630 0.867300 0.289225
Ni7   Ni    Ni4+2 0.568420 0.936630 0.132700 0.298004
Ni8   Ni    Ni4+2 0.431580 0.936630 0.867300 0.274744
C49   C     C_3   0.521488 0.447559 0.530725 0.322034
C50   C     C_3   0.465571 0.472955 0.416704 0.249282
C51   C     C_3   0.024320 0.980323 0.602067 0.257400
C52   C     C_3   0.967675 0.946678 0.497611 0.310315
C53   C     C_3   0.460110 0.478131 0.558128 -0.235145
C54   C     C_3   0.532373 0.522726 0.456471 -0.220891
C55   C     C_3   0.957057 0.029807 0.547208 -0.234378
C56   C     C_3   0.028866 0.967919 0.461613 -0.239528
H21   H     H_    0.429553 0.460195 0.598992 0.190209
H22   H     H_    0.561033 0.539543 0.412805 0.222037
H23   H     H_    0.929874 0.053704 0.586275 0.231228
H24   H     H_    0.058132 0.942736 0.426167 0.189778
C57   C     C_3   0.404002 0.503730 0.443070 -0.059473
C58   C     C_3   0.588577 0.496872 0.571532 -0.106515
C59   C     C_3   0.900415 0.995594 0.441539 -0.116878
C60   C     C_3   0.085592 0.002318 0.567175 -0.047352
C61   C     C_3   0.471158 0.553928 0.484164 0.122310
C62   C     C_3   0.527725 0.528090 0.599383 0.112560
C63   C     C_3   0.961159 0.017719 0.404969 0.105992
C64   C     C_3   0.017704 0.052175 0.510497 0.102690
C65   C     C_2   0.266926 0.678659 0.921858 0.039084
C66   C     C_2   0.877055 0.774621 0.057382 -0.004547
C67   C     C_2   0.648616 0.251169 0.941957 -0.018659
C68   C     C_2   0.231218 0.181968 0.071083 0.025602
C69   C     C_2   0.274775 0.658566 0.011003 0.276722
C70   C     C_2   0.821538 0.730015 0.002312 0.329149
C71   C     C_2   0.707782 0.206589 0.988287 0.295740
C72   C     C_2   0.225689 0.163469 0.982778 0.278529
C73   C     C_2   0.684261 0.301727 0.926025 -0.056834
C74   C     C_2   0.193429 0.237544 0.067184 -0.050717
C75   C     C_2   0.307585 0.733783 0.927752 -0.052787
C76   C     C_2   0.835057 0.822464 0.074466 -0.095709
C77   C     C_2   0.757003 0.326045 0.013248 -0.196537
C78   C     C_2   0.187933 0.277993 0.002073 -0.128980
C79   C     C_2   0.321220 0.773052 0.999271 -0.128328
C80   C     C_2   0.759059 0.846164 0.988190 -0.184436
H25   H     H_    0.660944 0.312194 0.843906 0.194057
H26   H     H_    0.173887 0.246530 0.122221 0.141801
H27   H     H_    0.321646 0.743762 0.868243 0.137689
H28   H     H_    0.856009 0.830155 0.156727 0.173098
H29   H     H_    0.778024 0.313789 0.094118 0.146697
H30   H     H_    0.209270 0.271663 0.948073 0.170789
H31   H     H_    0.305456 0.765836 0.058073 0.170134
H32   H     H_    0.741078 0.837638 0.907187 0.161040
C81   C     C_2   0.915401 0.455188 0.389284 -0.144685
C82   C     C_2   0.899453 0.451038 0.473797 -0.114880
C83   C     C_2   0.416419 0.955198 0.389665 -0.188530
C84   C     C_2   0.398661 0.951365 0.472693 -0.130181
C85   C     C_2   0.966495 0.497146 0.391693 -0.088120
C86   C     C_2   0.893902 0.497192 0.518524 -0.037536
C87   C     C_2   0.476801 0.993375 0.400531 -0.074490
C88   C     C_2   0.397772 0.997901 0.519800 -0.099417
H33   H     H_    0.895103 0.420782 0.333548 0.142572
H34   H     H_    0.912489 0.410964 0.512313 0.148862
H35   H     H_    0.386039 0.924574 0.325131 0.151236
H36   H     H_    0.405187 0.910891 0.507293 0.154014
H37   H     H_    0.990499 0.530806 0.449654 0.173934
H38   H     H_    0.874546 0.535724 0.473626 0.205222
H39   H     H_    0.511025 0.021975 0.468447 0.202480
H40   H     H_    0.385883 0.036855 0.478528 0.188224
N33   N     N_R   0.548475 0.390177 0.564796 0.281243
O1    O     O_R   0.532297 0.351918 0.495462 -0.216633
O2    O     O_R   0.580189 0.376115 0.663905 -0.442415
N34   N     N_R   0.429022 0.447475 0.311196 0.246655
O3    O     O_R   0.432905 0.394420 0.301573 -0.305406
O4    O     O_R   0.389364 0.478381 0.224526 -0.407530
N35   N     N_R   0.058136 0.961125 0.711174 0.254967
O5    O     O_R   0.108917 0.916624 0.751662 -0.355191
O6    O     O_R   0.036804 0.988387 0.768539 -0.361092
N36   N     N_R   0.942370 0.888607 0.488884 0.288305
O7    O     O_R   0.954784 0.862458 0.571815 -0.233838
O8    O     O_R   0.915527 0.861342 0.400900 -0.364249
C89   C     C_3   0.444907 0.615199 0.455595 -0.415467
C90   C     C_3   0.530234 0.652581 0.502672 -0.208303
C91   C     C_3   0.502333 0.713486 0.481864 -0.726197
H41   H     H_    0.454656 0.722045 0.393303 0.292312
H42   H     H_    0.466865 0.725240 0.521019 0.247394
H43   H     H_    0.566102 0.739260 0.517027 0.265458
H44   H     H_    0.577157 0.646533 0.591844 0.229018
H45   H     H_    0.568026 0.642178 0.465730 0.269060
H46   H     H_    0.399757 0.619769 0.365654 0.230157
H47   H     H_    0.406055 0.629154 0.488750 0.240164
C92   C     C_3   0.567117 0.554243 0.710959 -0.426315
C93   C     C_3   0.490385 0.578289 0.719261 -0.261237
C94   C     C_3   0.531152 0.596232 0.835828 -0.758792
H48   H     H_    0.555714 0.559632 0.890424 0.248063
H49   H     H_    0.590897 0.624817 0.865898 0.303180
H50   H     H_    0.476656 0.617981 0.838450 0.242812
H51   H     H_    0.458109 0.614812 0.665133 0.229354
H52   H     H_    0.434867 0.547089 0.694087 0.211045
H53   H     H_    0.605931 0.521569 0.773888 0.196872
H54   H     H_    0.617732 0.587239 0.728125 0.194849
C95   C     C_3   0.923535 0.033438 0.287357 -0.428261
C96   C     C_3   0.002079 0.047863 0.274551 -0.236341
C97   C     C_3   0.965103 0.049377 0.154518 -0.790652
H55   H     H_    0.941555 0.007582 0.118153 0.241621
H56   H     H_    0.905286 0.078599 0.108726 0.298581
H57   H     H_    0.021570 0.062911 0.146721 0.248940
H58   H     H_    0.031472 0.088956 0.311013 0.226741
H59   H     H_    0.059556 0.016872 0.316688 0.207948
H60   H     H_    0.883308 0.997529 0.234718 0.189607
H61   H     H_    0.874582 0.068907 0.259483 0.185359
C98   C     C_3   0.039105 0.114107 0.518158 -0.363953
C99   C     C_3   0.951393 0.150565 0.462721 -0.257886
C100  C     C_3   0.976362 0.211417 0.468219 -0.733000
H62   H     H_    0.024774 0.224796 0.554390 0.284288
H63   H     H_    0.010140 0.218385 0.425343 0.257360
H64   H     H_    0.911558 0.236877 0.428182 0.253776
H65   H     H_    0.902452 0.138877 0.375950 0.213267
H66   H     H_    0.916106 0.145384 0.504175 0.265059
H67   H     H_    0.084157 0.125427 0.605639 0.240832
H68   H     H_    0.075711 0.122455 0.479471 0.244256
C101  C     C_3   0.217116 0.646801 0.815264 -0.434908
C102  C     C_3   0.281955 0.634257 0.779932 -0.288759
C103  C     C_3   0.232677 0.598374 0.677714 -0.731120
H69   H     H_    0.211874 0.558181 0.693307 0.235033
H70   H     H_    0.169264 0.619784 0.609265 0.299845
H71   H     H_    0.281007 0.590258 0.653846 0.260898
H72   H     H_    0.304434 0.672971 0.761922 0.221224
H73   H     H_    0.345164 0.611994 0.846837 0.218453
H74   H     H_    0.193549 0.606020 0.824540 0.189586
H75   H     H_    0.155235 0.670896 0.750650 0.243667
C104  C     C_3   0.981268 0.777308 0.106174 -0.426223
C105  C     C_3   0.004476 0.828165 0.064973 -0.241249
C106  C     C_3   0.108154 0.829137 0.109287 -0.813064
H76   H     H_    0.152558 0.830238 0.199768 0.261933
H77   H     H_    0.126554 0.792038 0.081751 0.266026
H78   H     H_    0.122918 0.866529 0.078851 0.255214
H79   H     H_    0.961612 0.827604 0.974428 0.226237
H80   H     H_    0.987803 0.866560 0.091160 0.206644
H81   H     H_    0.021105 0.779135 0.196377 0.232285
H82   H     H_    0.005583 0.740542 0.085125 0.207488
C107  C     C_3   0.547303 0.250398 0.907084 -0.391081
C108  C     C_3   0.503834 0.307960 0.891592 -0.270347
C109  C     C_3   0.404936 0.303671 0.863404 -0.765109
H83   H     H_    0.358984 0.280013 0.786742 0.287310
H84   H     H_    0.406549 0.282772 0.930239 0.258063
H85   H     H_    0.374985 0.345713 0.851989 0.242434
H86   H     H_    0.548007 0.332258 0.967852 0.214920
H87   H     H_    0.499960 0.330202 0.824413 0.231303
H88   H     H_    0.503515 0.227625 0.829044 0.247896
H89   H     H_    0.544739 0.228535 0.970332 0.206970
C110  C     C_3   0.273963 0.147578 0.173853 -0.428903
C111  C     C_3   0.200682 0.133335 0.195792 -0.245573
C112  C     C_3   0.242287 0.095776 0.294947 -0.784470
H90   H     H_    0.265994 0.056188 0.280938 0.244668
H91   H     H_    0.302499 0.116555 0.367935 0.309607
H92   H     H_    0.188618 0.086715 0.310231 0.254087
H93   H     H_    0.174556 0.171344 0.211305 0.223546
H94   H     H_    0.140236 0.112057 0.123634 0.221689
H95   H     H_    0.301316 0.107760 0.166137 0.193749
H96   H     H_    0.332864 0.170821 0.243889 0.252907
N37   N     N_R   0.361285 0.667706 0.116795 0.233654
O9    O     O_R   0.360800 0.688675 0.196007 -0.463559
O10   O     O_R   0.441191 0.660981 0.130062 -0.338926
N38   N     N_R   0.722835 0.730529 0.955593 0.233592
O11   O     O_R   0.662604 0.719022 0.852946 -0.437164
O12   O     O_R   0.694429 0.733896 0.018520 -0.347154
N39   N     N_R   0.803405 0.208042 0.021882 0.241582
O13   O     O_R   0.868935 0.184363 0.112617 -0.429459
O14   O     O_R   0.822635 0.224760 0.954644 -0.343469
N40   N     N_R   0.142745 0.176393 0.875556 0.229347
O15   O     O_R   0.149308 0.197326 0.800516 -0.432706
O16   O     O_R   0.060280 0.172317 0.856585 -0.336649
N41   N     N_R   0.003504 0.600696 0.306613 0.208072
O17   O     O_R   0.932731 0.617049 0.306944 -0.362415
O18   O     O_R   0.079802 0.629814 0.358271 -0.325180
N42   N     N_R   0.930664 0.601725 0.657409 0.245581
O19   O     O_R   0.942096 0.617698 0.583284 -0.362413
O20   O     O_R   0.913044 0.638791 0.705791 -0.334706
N43   N     N_R   0.534758 0.098365 0.333333 0.233321
O21   O     O_R   0.503456 0.112076 0.390431 -0.380283
O22   O     O_R   0.578968 0.135213 0.316694 -0.298355
N44   N     N_R   0.434375 0.101591 0.657422 0.235850
O23   O     O_R   0.455229 0.117497 0.591288 -0.372136
O24   O     O_R   0.409091 0.138655 0.698003 -0.359974
N45   N     N_R   0.748576 0.403939 0.651794 0.255059
O25   O     O_R   0.702859 0.401371 0.546316 -0.327154
O26   O     O_R   0.812232 0.366683 0.710670 -0.396415
N46   N     N_R   0.256514 0.402469 0.346976 0.233138
O27   O     O_R   0.332634 0.384498 0.435907 -0.354646
O28   O     O_R   0.179513 0.374442 0.304910 -0.434325
N47   N     N_R   0.230876 0.901015 0.659312 0.227527
O29   O     O_R   0.149452 0.877482 0.598201 -0.348439
O30   O     O_R   0.304849 0.874225 0.682428 -0.451857
N48   N     N_R   0.735764 0.904320 0.346832 0.264701
O31   O     O_R   0.762467 0.903318 0.447491 -0.319460
O32   O     O_R   0.681682 0.865025 0.281858 -0.377416
N49   N     N_R   0.740640 0.589362 0.632415 0.248019
O33   O     O_R   0.742506 0.640429 0.659147 -0.402553
O34   O     O_R   0.727962 0.578878 0.539912 -0.370644
N50   N     N_R   0.240942 0.594398 0.354095 0.236258
O35   O     O_R   0.199057 0.638414 0.296042 -0.398392
O36   O     O_R   0.262359 0.591467 0.452496 -0.407751
N51   N     N_R   0.242308 0.092799 0.639848 0.243476
O37   O     O_R   0.251941 0.142827 0.676342 -0.373783
O38   O     O_R   0.230466 0.085087 0.546967 -0.414610
N52   N     N_R   0.748873 0.092709 0.361389 0.243285
O39   O     O_R   0.724242 0.140357 0.312957 -0.393479
O40   O     O_R   0.765326 0.088555 0.457263 -0.345384

loop_
_geom_bond_atom_site_label_1
_geom_bond_atom_site_label_2
_geom_bond_distance
_ccdc_geom_bond_type
C46   C57   1.463781 S    
C71   N39   1.440131 S    
C9    C41   1.375093 A    
C23   N23   1.340473 A    
N49   O34   1.301648 A    
C11   C43   1.388539 A    
C103  H69   1.110928 S    
C66   C76   1.470146 S    
C103  H71   1.109843 S    
C111  H94   1.111918 S    
N35   O6    1.300513 A    
C12   N44   1.436013 S    
C98   H68   1.104798 S    
C97   H56   1.109698 S    
N44   O23   1.300495 A    
C52   N36   1.457740 S    
N4    Ni4   1.852508 S    
N4    N32   1.395805 A    
C90   C91   1.526307 S    
N12   N20   1.364530 A    
N47   O29   1.298510 A    
N34   O4    1.300719 A    
C93   H52   1.110939 S    
C4    N4    1.345630 A    
C79   H31   1.082296 S    
N27   Ni8   1.843393 S    
C66   C70   1.367358 D    
C17   N17   1.332772 A    
C100  H63   1.111021 S    
C9    N9    1.348141 A    
C55   C59   1.541992 S    
C96   C97   1.526468 S    
C11   N11   1.353604 A    
C92   C93   1.531122 S    
C12   N12   1.350161 A    
C107  H88   1.109602 S    
N51   O38   1.302437 A    
C67   C107  1.528935 S    
C89   C90   1.526446 S    
N2    N30   1.395805 A    
C81   H33   1.086557 S    
C91   H41   1.107826 S    
C110  H96   1.111355 S    
C89   H47   1.102442 S    
N51   O37   1.300443 A    
C8    H8    1.078646 S    
N7    Ni7   1.874016 S    
N52   O39   1.296535 A    
C5    N5    1.334436 A    
N16   Ni7   1.830316 S    
C65   C69   1.356695 D    
C13   N45   1.437286 S    
N40   O16   1.301609 A    
C22   N50   1.431620 S    
C59   C63   1.547767 S    
N50   O35   1.300122 A    
C112  H91   1.110217 S    
C51   C60   1.536033 S    
C35   C72   1.483912 S    
C36   C71   1.451603 S    
N26   Ni5   1.842513 S    
C82   C86   1.336550 D    
C12   C44   1.382103 A    
N45   O26   1.300368 A    
C102  H72   1.109449 S    
C87   H39   1.084737 S    
N9    Ni2   1.850173 S    
C13   C45   1.358422 A    
C88   H40   1.080458 S    
C3    N3    1.334372 A    
C7    C39   1.388092 A    
C25   H13   1.075218 S    
C99   C100  1.526011 S    
N19   Ni7   1.851424 S    
C94   H48   1.110777 S    
C27   C39   1.376402 A    
C83   C84   1.454036 S    
C17   H9    1.077648 S    
C31   H19   1.061776 S    
N13   N21   1.364432 A    
C20   H12   1.078669 S    
C111  C112  1.523801 S    
N16   N24   1.364530 A    
C51   C52   1.522573 S    
C31   N31   1.354211 A    
N36   O7    1.300072 A    
N9    N17   1.364432 A    
C69   N37   1.444542 S    
C26   N26   1.332576 A    
C43   C87   1.436806 S    
C28   H16   1.078661 S    
N47   O30   1.299883 A    
C64   C98   1.534213 S    
C18   H10   1.080007 S    
N37   O9    1.300132 A    
C107  C108  1.537434 S    
C75   C79   1.350395 D    
C6    C38   1.390323 A    
N38   O11   1.300731 A    
C14   N46   1.434252 S    
C101  H75   1.111611 S    
C106  H76   1.110934 S    
C50   C54   1.540168 S    
C33   C70   1.456066 S    
C20   N20   1.330985 A    
N43   O22   1.297101 A    
N33   O2    1.299686 A    
C95   H60   1.111964 S    
C49   N33   1.460036 S    
C39   C79   1.460311 S    
N15   Ni8   1.825623 S    
C26   H14   1.078396 S    
C83   C87   1.341647 D    
C84   C88   1.336081 D    
C92   H54   1.107558 S    
C91   H43   1.110432 S    
C85   H37   1.085984 S    
C53   C62   1.550303 S    
C83   H35   1.086399 S    
C108  H87   1.111907 S    
C55   C64   1.549912 S    
C56   H24   1.110123 S    
N5    N25   1.395804 A    
C104  H82   1.107910 S    
N46   O28   1.300709 A    
C57   C61   1.550674 S    
C101  C102  1.534721 S    
C20   C44   1.367432 A    
C63   C95   1.536433 S    
C19   C43   1.366347 A    
C65   C75   1.491762 S    
C68   C72   1.351772 D    
C94   H50   1.107992 S    
C90   H45   1.110421 S    
C29   C33   1.369752 A    
C18   N18   1.328212 A    
C53   H21   1.110265 S    
C31   C35   1.397068 A    
C10   N10   1.347532 A    
C55   H23   1.108229 S    
C96   H58   1.109620 S    
C105  H79   1.112079 S    
C52   C56   1.540996 S    
N8    N28   1.395804 A    
C109  H85   1.110376 S    
C29   H17   1.073697 S    
C82   H34   1.083830 S    
C32   H20   1.068736 S    
N11   N19   1.364432 A    
C112  H92   1.109853 S    
N39   O13   1.300697 A    
C103  H70   1.111042 S    
C4    C36   1.381867 A    
C98   H67   1.108992 S    
N44   O24   1.297744 A    
C5    H5    1.074770 S    
N23   Ni3   1.875303 S    
N11   Ni4   1.850173 S    
C6    N6    1.341620 A    
N14   Ni5   1.830316 S    
C80   H32   1.088155 S    
C19   H11   1.079503 S    
C74   H26   1.084811 S    
N22   Ni2   1.870574 S    
N2    Ni2   1.852508 S    
C16   N48   1.436635 S    
N41   O18   1.298262 A    
C106  H78   1.110463 S    
C53   C57   1.541095 S    
N42   O19   1.300446 A    
C23   C47   1.371661 A    
N24   Ni4   1.870574 S    
N6    N26   1.395804 A    
C68   C110  1.517182 S    
C47   C60   1.465667 S    
C50   N34   1.462171 S    
C10   C42   1.386523 A    
C32   N32   1.331896 A    
C110  C111  1.536284 S    
C100  H62   1.110992 S    
C7    H7    1.080555 S    
C1    H1    1.064426 S    
C73   H25   1.083323 S    
C3    H3    1.068953 S    
N48   O31   1.301620 A    
C99   H65   1.107114 S    
C68   C74   1.483619 S    
C109  H83   1.111065 S    
N49   O33   1.294838 A    
C29   N29   1.334664 A    
C9    N41   1.427107 S    
C110  H95   1.110647 S    
N14   N22   1.364530 A    
C89   H46   1.109196 S    
C17   C41   1.367584 A    
C56   C63   1.551299 S    
N52   O40   1.301314 A    
N43   O21   1.300348 A    
N8    Ni8   1.869192 S    
C60   C64   1.553834 S    
N10   N18   1.364530 A    
C42   C86   1.452251 S    
C30   N30   1.349239 A    
N50   O36   1.302191 A    
C111  H93   1.109672 S    
C97   H57   1.109491 S    
C61   C89   1.537440 S    
N33   O1    1.298740 A    
N7    N27   1.395804 A    
C1    N1    1.342845 A    
C52   C59   1.530332 S    
C74   C78   1.348220 D    
C21   N21   1.349052 A    
N17   Ni5   1.851424 S    
N3    N31   1.395804 A    
C13   N13   1.329597 A    
C24   N24   1.346140 A    
C15   N15   1.334401 A    
N45   O25   1.301593 A    
C67   C73   1.455924 S    
C51   C55   1.539179 S    
C34   C69   1.492107 S    
C98   C99   1.529588 S    
C102  H73   1.111264 S    
N15   N23   1.364432 A    
C108  C109  1.527226 S    
N12   Ni3   1.849166 S    
C16   C48   1.359497 A    
C93   H51   1.108557 S    
C38   C78   1.451563 S    
C8    C40   1.377545 A    
C61   C62   1.545143 S    
C28   C40   1.388148 A    
C63   C64   1.543683 S    
N21   Ni1   1.875303 S    
C86   H38   1.083765 S    
C100  H64   1.110529 S    
C73   C77   1.326384 D    
C70   N38   1.438192 S    
C56   C60   1.543422 S    
C18   C42   1.372465 A    
C107  H89   1.112107 S    
C76   C80   1.334226 D    
N36   O8    1.300666 A    
N25   Ni6   1.843393 S    
C48   C59   1.459504 S    
C78   H30   1.083147 S    
C50   C57   1.536747 S    
C24   N52   1.433637 S    
C49   C50   1.527403 S    
N46   O27   1.299036 A    
C10   N42   1.436633 S    
N39   O14   1.301529 A    
C19   N19   1.325968 A    
C112  H90   1.110917 S    
N10   Ni1   1.849166 S    
C105  C106  1.527211 S    
C14   C46   1.384126 A    
C81   C85   1.340712 D    
C62   C92   1.535813 S    
N38   O12   1.301321 A    
C30   H18   1.066412 S    
C101  H74   1.110013 S    
N18   Ni6   1.852495 S    
N40   O15   1.301662 A    
N5    Ni5   1.874016 S    
C97   H55   1.111009 S    
C95   C96   1.533835 S    
C6    H6    1.081584 S    
C21   N49   1.433180 S    
C4    H4    1.071063 S    
C76   H28   1.084776 S    
C77   H29   1.088803 S    
C75   H27   1.084045 S    
C51   N35   1.461432 S    
C92   H53   1.111879 S    
C67   C71   1.371397 D    
C91   H42   1.111047 S    
C49   C58   1.533463 S    
C104  H81   1.111587 S    
C23   N51   1.430488 S    
N35   O5    1.299733 A    
C109  H84   1.111165 S    
C32   C36   1.366762 A    
C49   C53   1.541944 S    
C7    N7    1.345674 A    
C8    N8    1.338845 A    
C96   H59   1.110728 S    
C105  H80   1.111805 S    
C2    H2    1.074398 S    
C15   C47   1.380435 A    
C25   C37   1.387343 A    
N29   Ni2   1.887767 S    
C1    C33   1.375686 A    
C27   H15   1.075315 S    
N31   Ni4   1.887767 S    
C3    C35   1.366710 A    
C16   N16   1.331308 A    
C65   C101  1.521066 S    
N37   O10   1.301567 A    
C54   C61   1.549811 S    
C11   N43   1.437343 S    
C21   C45   1.377465 A    
N6    Ni6   1.869192 S    
C58   C62   1.546218 S    
C45   C58   1.460069 S    
N28   Ni7   1.842513 S    
C94   H49   1.109632 S    
N41   O17   1.300947 A    
C30   C34   1.399440 A    
C41   C85   1.435913 S    
C106  H77   1.111269 S    
C84   H36   1.083707 S    
C54   H22   1.109025 S    
C44   C88   1.449251 S    
N42   O20   1.299494 A    
C24   C48   1.379389 A    
C2    N2    1.337787 A    
C95   H61   1.107597 S    
N34   O3    1.298574 A    
C22   N22   1.331425 A    
C25   N25   1.339417 A    
C5    C37   1.370310 A    
C14   N14   1.336314 A    
C27   N27   1.337038 A    
N3    Ni3   1.851344 S    
C15   N47   1.433347 S    
C108  H86   1.111942 S    
C93   C94   1.525971 S    
N13   Ni6   1.825623 S    
N48   O32   1.300016 A    
C99   H66   1.109366 S    
C66   C104  1.521706 S    
C37   C77   1.446358 S    
C26   C38   1.378041 A    
N30   Ni1   1.892611 S    
C2    C34   1.381598 A    
C90   H44   1.104756 S    
C28   N28   1.344008 A    
C102  C103  1.527667 S    
C40   C80   1.457654 S    
C54   C58   1.543593 S    
N20   Ni8   1.852495 S    
N1    Ni1   1.851344 S    
C104  C105  1.535322 S    
N32   Ni3   1.892611 S    
C22   C46   1.367055 A    
C72   N40   1.447190 S    
C81   C82   1.454259 S    
N1    N29   1.395804 A    
