data_mof_unit_37972.cif
_audit_creation_date              2013-03-05T16:19:40-0500
_audit_creation_method            fapswitch 2.2
_symmetry_space_group_name_H-M    P1
_symmetry_Int_Tables_number       1
_space_group_crystal_system       triclinic
_cell_length_a                    10.654752
_cell_length_b                    9.768457
_cell_length_c                    27.683541
_cell_angle_alpha                 90.636884
_cell_angle_beta                  88.498266
_cell_angle_gamma                 90.162749
_cell_volume                      2880.1394738

loop_
_atom_site_label
_atom_site_type_symbol
_atom_site_description
_atom_site_fract_x
_atom_site_fract_y
_atom_site_fract_z
_atom_type_partial_charge
O1    O     O_R   0.314910 0.616040 0.499990 -0.634163
O2    O     O_R   0.314910 0.383960 0.499990 -0.644812
C1    C     C_R   0.258014 0.499702 0.500697 0.885475
O3    O     O_R   0.500140 0.616020 0.428740 -0.605808
O4    O     O_R   0.500140 0.383980 0.428740 -0.596232
C2    C     C_R   0.497428 0.499873 0.406190 0.946297
Zn1   Zn    Zn3+2 0.500150 0.654960 0.499980 0.965267
Zn2   Zn    Zn3+2 0.500150 0.345040 0.499980 0.939002
O5    O     O_R   0.685320 0.616040 0.499970 -0.607288
O6    O     O_R   0.685320 0.383960 0.499970 -0.631580
O7    O     O_R   0.500090 0.616050 0.571230 -0.578563
O8    O     O_R   0.500090 0.383950 0.571230 -0.653218
C3    C     C_R   0.742368 0.500054 0.500733 0.980483
C4    C     C_R   0.501576 0.500876 0.593962 0.897681
C5    C     C_R   0.353421 0.504978 0.178997 0.588634
O9    O     O_2   0.249202 0.464438 0.203721 -0.515770
N1    N     N_R   0.459739 0.537555 0.203185 -0.338018
C6    C     C_R   0.566981 0.579334 0.179495 0.529944
C7    C     C_R   0.535599 0.420646 0.273923 -0.184026
C8    C     C_R   0.546628 0.411314 0.323580 -0.140425
C9    C     C_R   0.405003 0.603629 0.334730 -0.286019
C10   C     C_R   0.394638 0.614960 0.284605 0.534255
C11   C     C_R   0.461219 0.522981 0.254386 0.253080
C12   C     C_R   0.464126 0.549095 0.103171 -0.055575
C13   C     C_R   0.353165 0.511653 0.128512 -0.044471
C14   C     C_R   0.245752 0.478574 0.103018 -0.121294
C15   C     C_R   0.571673 0.584401 0.129069 -0.029416
C16   C     C_R   0.482034 0.502941 0.354146 -0.112407
H1    H     H_    0.354132 0.673956 0.358572 0.210133
H2    H     H_    0.159638 0.448200 0.121691 0.193980
C17   C     C_R   0.503676 0.503148 0.646822 -0.084461
C18   C     C_R   0.361404 0.524327 0.975232 0.059087
C19   C     C_R   0.590020 0.564253 0.976093 -0.042641
C20   C     C_R   0.478726 0.540732 0.950310 0.073902
C21   C     C_R   0.251564 0.512758 0.947977 -0.210402
C22   C     C_R   0.257766 0.507817 0.897958 -0.116628
C23   C     C_R   0.373513 0.514187 0.873268 -0.008607
C24   C     C_R   0.484747 0.532039 0.899151 -0.098345
C25   C     C_R   0.601601 0.540248 0.873846 -0.146607
C26   C     C_R   0.603799 0.520090 0.823389 0.522944
N2    N     N_R   0.494123 0.507696 0.799246 -0.345762
C27   C     C_R   0.380258 0.505167 0.822894 0.515861
C28   C     C_R   0.460796 0.387615 0.722491 -0.087612
C29   C     C_R   0.463274 0.386799 0.672304 -0.318478
C30   C     C_R   0.544655 0.620641 0.672196 0.427778
C31   C     C_R   0.540828 0.620155 0.722751 -0.223983
C32   C     C_R   0.498726 0.504591 0.747679 0.272086
O10   O     O_2   0.273961 0.494589 0.797595 -0.547551
C33   C     C_R   0.357627 0.519548 0.026377 0.044625
C34   C     C_R   0.468107 0.549502 0.052013 0.083819
C35   C     C_R   0.583018 0.578309 0.027065 0.071155
C36   C     C_R   0.247565 0.482723 0.052918 -0.211378
H3    H     H_    0.431835 0.295733 0.653422 0.173913
H4    H     H_    0.428775 0.297807 0.741867 0.156771
H5    H     H_    0.170920 0.497794 0.878695 0.212564
H6    H     H_    0.158595 0.509995 0.964213 0.151541
H7    H     H_    0.162002 0.451582 0.036012 0.145337
O11   O     O_2   0.668944 0.614852 0.204796 -0.538841
C37   C     C_R   0.681539 0.623018 0.104249 -0.124868
H8    H     H_    0.609436 0.336599 0.337709 0.196333
H9    H     H_    0.587758 0.350802 0.250360 0.175201
H10   H     H_    0.764464 0.654058 0.123435 0.196938
C38   C     C_R   0.705402 0.571559 0.950045 -0.225198
C39   C     C_R   0.711883 0.564241 0.899963 0.476801
O12   O     O_2   0.713853 0.509686 0.798404 -0.522618
C40   C     C_R   0.687347 0.620233 0.054184 -0.215486
H11   H     H_    0.794027 0.582691 0.967543 0.165639
H12   H     H_    0.570422 0.709616 0.743001 0.135454
H13   H     H_    0.774683 0.654168 0.037835 0.145607
C41   C     C_3   0.069321 0.595810 0.540668 -0.513393
C42   C     C_3   0.070707 0.352781 0.510610 -0.418593
H14   H     H_    0.097107 0.704037 0.534668 0.174537
H15   H     H_    0.111551 0.274709 0.485210 0.220274
H16   H     H_    0.108446 0.566653 0.576013 0.212290
H17   H     H_    0.095798 0.322063 0.547768 0.189301
C43   C     C_3   0.925759 0.584957 0.543989 -0.523288
C44   C     C_3   0.928731 0.351401 0.506173 -0.425866
H18   H     H_    0.897133 0.533238 0.578218 0.217361
H19   H     H_    0.885879 0.303038 0.538946 0.179774
H20   H     H_    0.883460 0.688822 0.546201 0.199816
H21   H     H_    0.904166 0.286757 0.474628 0.275979
C45   C     C_3   0.077392 0.542735 0.448187 0.671409
C46   C     C_3   0.121896 0.499193 0.499763 -0.042696
C47   C     C_3   0.879145 0.500212 0.500192 -0.025812
C48   C     C_3   0.930904 0.560353 0.450946 0.791003
C49   C     C_3   0.382664 0.079185 0.478939 -0.220003
C50   C     C_3   0.378245 0.918405 0.482931 -0.231998
H22   H     H_    0.371739 0.109834 0.440870 0.216839
H23   H     H_    0.349196 0.870429 0.448573 0.214173
H24   H     H_    0.299754 0.122252 0.498914 0.142193
H25   H     H_    0.301964 0.889947 0.509232 0.132189
C51   C     C_3   0.610771 0.079856 0.471245 -0.148406
C52   C     C_3   0.604229 0.917454 0.467566 -0.168594
C53   C     C_3   0.508082 0.082601 0.548691 -0.286820
C54   C     C_3   0.517271 0.920740 0.548227 -0.253458
N3    N     N_3   0.499750 0.138610 0.498940 -0.081620
N4    N     N_3   0.499750 0.861390 0.498940 -0.094363
H26   H     H_    0.591053 0.126763 0.566882 0.163699
H27   H     H_    0.609847 0.889111 0.562011 0.185470
H28   H     H_    0.424659 0.115065 0.570955 0.161495
H29   H     H_    0.445281 0.878523 0.573831 0.192193
H30   H     H_    0.696139 0.103935 0.492289 0.109988
H31   H     H_    0.694071 0.879203 0.481982 0.140076
O13   O     O_3   0.589677 0.733083 0.647251 -0.788420
H32   H     H_    0.614353 0.805404 0.670604 0.326919
O14   O     O_3   0.827942 0.583748 0.878049 -0.722058
H33   H     H_    0.817557 0.654707 0.853158 0.362301
O15   O     O_3   0.323437 0.716048 0.264286 -0.718797
H34   H     H_    0.283544 0.772089 0.290507 0.357184
O16   O     O_3   0.136307 0.663692 0.431073 -0.769303
H35   H     H_    0.136837 0.733565 0.457164 0.307963
O17   O     O_3   0.107608 0.436905 0.414718 -0.724227
H36   H     H_    0.199741 0.439218 0.408348 0.345127
O18   O     O_3   0.896368 0.699227 0.446527 -0.718174
H37   H     H_    0.934320 0.754742 0.472426 0.300290
O19   O     O_3   0.875847 0.486905 0.412751 -0.722042
H38   H     H_    0.897839 0.535397 0.382319 0.390893
C55   C     C_2   0.637728 0.147087 0.423032 0.963712
O20   O     O_2   0.560012 0.144820 0.391366 -0.609652
O21   O     O_R   0.756245 0.203784 0.413678 -0.794249
H39   H     H_    0.767815 0.237236 0.379365 0.360110
C56   C     C_2   0.603116 0.862572 0.415737 1.008727
O22   O     O_2   0.512909 0.880466 0.390174 -0.618934
O23   O     O_R   0.708088 0.793863 0.396598 -0.726514
H40   H     H_    0.696721 0.761838 0.362015 0.354955

loop_
_geom_bond_atom_site_label_1
_geom_bond_atom_site_label_2
_geom_bond_distance
_ccdc_geom_bond_type
C42   H17   1.114168 S    
C50   H25   1.113634 S    
N2    C27   1.363676 A    
C21   C22   1.384859 A    
Zn2   N3    2.016383 S    
C12   C15   1.407597 A    
C4    C17   1.464024 S    
C43   C47   1.552066 S    
O18   H37   0.988428 S    
C30   C31   1.399102 A    
O15   H34   0.991778 S    
Zn1   O7    2.012871 S    
C25   C39   1.413346 A    
C3    C47   1.457009 S    
N1    C11   1.426607 S    
C45   O16   1.416771 S    
C22   C23   1.395823 A    
C43   H18   1.113918 S    
C37   C40   1.385704 A    
O4    C2    1.299618 A    
O7    C4    1.295535 A    
C49   H22   1.107928 S    
C5    C13   1.399919 A    
C40   H13   1.077092 S    
O14   H33   0.991255 S    
C53   H26   1.112470 S    
C5    O9    1.349843 S    
C51   N3    1.504334 S    
O19   H38   0.993438 S    
Zn1   O5    2.010290 S    
C23   C27   1.396299 A    
C51   C55   1.514455 S    
C55   O20   1.221535 D    
O13   H32   0.991900 S    
O5    C3    1.287912 A    
O16   H35   0.988359 S    
C29   H3    1.083478 S    
C6    O11   1.350394 S    
C2    C16   1.454976 S    
C7    C8    1.386813 A    
C41   H16   1.113815 S    
C53   H28   1.113130 S    
C8    H8    1.075321 S    
C19   C38   1.410887 A    
O1    Zn1   2.008903 S    
C9    C10   1.400553 A    
C52   H31   1.113816 S    
O3    Zn1   2.004371 S    
O17   H36   0.993050 S    
C19   C20   1.416883 A    
C42   C46   1.558754 S    
C44   H19   1.114199 S    
C12   C34   1.415788 A    
C38   H11   1.077201 S    
C17   C29   1.404930 A    
C18   C21   1.412570 A    
C12   C13   1.408349 A    
O3    C2    1.289500 A    
C49   H24   1.111071 S    
C25   C26   1.408087 A    
C42   H15   1.113275 S    
C49   C50   1.576169 S    
C8    C16   1.395327 A    
C44   C47   1.560111 S    
C34   C35   1.418899 A    
C13   C14   1.395508 A    
C9    H1    1.083809 S    
C45   C46   1.579413 S    
O1    C1    1.286601 A    
C35   C40   1.414683 A    
C45   O17   1.412734 S    
C7    C11   1.399600 A    
C28   C29   1.388858 A    
C31   H12   1.083596 S    
C23   C24   1.410334 A    
C30   O13   1.382012 S    
C14   C36   1.387609 A    
C28   H4    1.083020 S    
C44   H21   1.108445 S    
Zn2   O8    2.004574 S    
C33   C36   1.415204 A    
N1    C6    1.366136 A    
N2    C32   1.427119 S    
C27   O10   1.350266 S    
C47   C48   1.576204 S    
C53   N3    1.492496 S    
C41   C46   1.559758 S    
C49   N3    1.491581 S    
C26   N2    1.365742 A    
C9    C16   1.403357 A    
O8    C4    1.298196 A    
C14   H2    1.083563 S    
C26   O12   1.349193 S    
C50   H23   1.106718 S    
C1    C46   1.451203 S    
C56   O23   1.395498 S    
C52   N4    1.499981 S    
C42   C44   1.520911 S    
O21   H39   1.012340 S    
C5    N1    1.365966 A    
C31   C32   1.396447 A    
C48   O18   1.414072 S    
C37   H10   1.083604 S    
Zn1   N4    2.017047 S    
C21   H6    1.077379 S    
C20   C24   1.417641 A    
C48   O19   1.410746 S    
O2    Zn2   2.011023 S    
C6    C15   1.396980 A    
C43   H20   1.111779 S    
O6    C3    1.285387 A    
O4    Zn2   2.012674 S    
C54   N4    1.492590 S    
C39   O14   1.376720 S    
C51   H30   1.116049 S    
C19   C35   1.416267 A    
C45   C48   1.570512 S    
O2    C1    1.284121 A    
C22   H5    1.083692 S    
C15   C37   1.394923 A    
C41   C43   1.533404 S    
C24   C25   1.415022 A    
C7    H9    1.083087 S    
C10   O15   1.380582 S    
C51   C52   1.589994 S    
C54   H27   1.112694 S    
C53   C54   1.584328 S    
C55   O21   1.396585 S    
C18   C33   1.416662 A    
C36   H7    1.077179 S    
C38   C39   1.387418 A    
Zn2   O6    2.008171 S    
C33   C34   1.418507 A    
C17   C30   1.413031 A    
C10   C11   1.402208 A    
C41   H14   1.110174 S    
C56   O22   1.222484 D    
C28   C32   1.396299 A    
C52   C56   1.526443 S    
C54   H29   1.112217 S    
C18   C20   1.421401 A    
O23   H40   1.014071 S    
C50   N4    1.490721 S    
