data_mof_unit_9125.cif
_audit_creation_date              2012-12-11T15:10:48-0500
_audit_creation_method            fapswitch 2.2
_symmetry_space_group_name_H-M    P1
_symmetry_Int_Tables_number       1
_space_group_crystal_system       triclinic
_cell_length_a                    21.19548
_cell_length_b                    7.237627
_cell_length_c                    18.260507
_cell_angle_alpha                 90.011239
_cell_angle_beta                  93.248358
_cell_angle_gamma                 90.008439
_cell_volume                      2796.75180449

loop_
_atom_site_label
_atom_site_type_symbol
_atom_type_description
_atom_site_fract_x
_atom_site_fract_y
_atom_site_fract_z
_atom_type_partial_charge
O1    O     O_R   0.448880 0.506250 0.415280 -0.523121
O2    O     O_R   0.551120 0.006250 0.584720 -0.523585
O3    O     O_R   0.434830 0.174000 0.557310 -0.528838
O4    O     O_R   0.565170 0.674000 0.442690 -0.528614
C1    C     C_R   0.417126 0.344552 0.579838 0.774837
C2    C     C_R   0.582870 0.844549 0.420158 0.775216
O5    O     O_R   0.441680 0.176440 0.414130 -0.538828
O6    O     O_R   0.558320 0.676440 0.585870 -0.538524
O7    O     O_R   0.558020 0.007570 0.440520 -0.515725
O8    O     O_R   0.441980 0.507570 0.559480 -0.515358
C3    C     C_R   0.427987 0.344859 0.388472 0.805087
C4    C     C_R   0.572003 0.844915 0.611531 0.805316
O9    O     O_3   0.538160 0.339670 0.508820 -0.371196
O10   O     O_3   0.461840 0.839670 0.491180 -0.370994
V1    V     V_3+5 0.492920 0.064260 0.498360 1.482220
V2    V     V_3+5 0.507080 0.564260 0.501640 1.483113
C5    C     C_R   0.874808 0.001835 0.690038 -0.121352
C6    C     C_R   0.125395 0.504586 0.309796 -0.121427
H1    H     H_    0.961637 0.037657 0.754002 0.130185
H2    H     H_    0.038589 0.540419 0.245811 0.130250
H3    H     H_    0.797242 0.992105 0.572507 0.154378
H4    H     H_    0.203033 0.496247 0.427273 0.154389
H5    H     H_    0.896337 0.040058 0.639760 0.130525
H6    H     H_    0.103969 0.544158 0.359983 0.130529
C7    C     C_R   0.886973 0.944102 0.820275 -0.126437
C8    C     C_R   0.113035 0.444402 0.179733 -0.126497
C9    C     C_R   0.581721 0.823926 0.745369 -0.181027
C10   C     C_R   0.418149 0.321782 0.254695 -0.180861
C11   C     C_R   0.614708 0.834594 0.813899 0.165985
C12   C     C_R   0.385124 0.331462 0.186170 0.165989
C13   C     C_R   0.679886 0.867951 0.816933 -0.133900
C14   C     C_R   0.320003 0.365671 0.183097 -0.134015
C15   C     C_R   0.714070 0.885611 0.752967 0.006727
C16   C     C_R   0.285901 0.385087 0.247041 0.006737
C17   C     C_R   0.678791 0.885211 0.683431 -0.053250
C18   C     C_R   0.321237 0.385677 0.316542 -0.053270
C19   C     C_R   0.781616 0.912707 0.755884 -0.028764
C20   C     C_R   0.218393 0.412918 0.244113 -0.028754
C21   C     C_R   0.810300 0.958448 0.689693 -0.021604
C22   C     C_R   0.189833 0.460359 0.310201 -0.021576
C23   C     C_R   0.774843 0.960500 0.622956 -0.220385
C24   C     C_R   0.225344 0.463332 0.376894 -0.220451
C25   C     C_R   0.710743 0.920523 0.619182 0.572820
C26   C     C_R   0.289387 0.422649 0.380719 0.572795
C27   C     C_R   0.822525 0.895934 0.820949 0.557828
C28   C     C_R   0.177403 0.395350 0.179139 0.557924
C29   C     C_R   0.912264 0.999306 0.754937 -0.263859
C30   C     C_R   0.087890 0.501278 0.244942 -0.263618
C31   C     C_R   0.612306 0.852099 0.680491 -0.120526
C32   C     C_R   0.387670 0.351752 0.319515 -0.120592
H7    H     H_    0.531369 0.797965 0.741497 0.110459
H8    H     H_    0.468455 0.295150 0.258595 0.110494
H9    H     H_    0.701894 0.887374 0.870814 0.196427
H10   H     H_    0.297983 0.384263 0.129175 0.196409
C33   C     C_1   0.864534 0.938900 0.132095 -0.183145
C34   C     C_1   0.135465 0.438895 0.867904 -0.183288
C35   C     C_1   0.821667 0.924845 0.175838 0.006299
C36   C     C_1   0.178331 0.424841 0.824160 0.006241
C37   C     C_1   0.771084 0.905730 0.227934 0.004108
C38   C     C_1   0.228914 0.405729 0.772062 0.004069
C39   C     C_1   0.728499 0.889100 0.271911 0.003202
C40   C     C_1   0.271498 0.389101 0.728085 0.003177
C41   C     C_1   0.677936 0.869973 0.324028 0.005275
C42   C     C_1   0.322060 0.369977 0.675967 0.005269
C43   C     C_1   0.635097 0.855911 0.367800 -0.154966
C44   C     C_1   0.364899 0.355917 0.632194 -0.155225
O11   O     O_R   0.058070 0.289240 0.940580 -0.519850
O12   O     O_R   0.941930 0.789240 0.059420 -0.519896
O13   O     O_R   0.058330 0.616740 0.085880 -0.540810
O14   O     O_R   0.941670 0.116740 0.914120 -0.540748
C45   C     C_R   0.071946 0.448882 0.111655 0.764004
C46   C     C_R   0.928053 0.948830 0.888351 0.764224
O15   O     O_R   0.065180 0.619040 0.942700 -0.527583
O16   O     O_R   0.934820 0.119040 0.057300 -0.527567
O17   O     O_R   0.948870 0.787780 0.915270 -0.520982
O18   O     O_R   0.051130 0.287780 0.084730 -0.520725
C47   C     C_R   0.083189 0.450308 0.920204 0.723070
C48   C     C_R   0.916811 0.950310 0.079795 0.723260
O19   O     O_3   0.961870 0.453310 0.991210 -0.366969
O20   O     O_3   0.038130 0.953310 0.008790 -0.366856
V3    V     V_3+5 0.007070 0.728770 0.001630 1.475196
V4    V     V_3+5 0.992930 0.228770 0.998370 1.475412
F1    F     F_    0.802636 0.825473 0.884421 -0.724503
F2    F     F_    0.197139 0.323518 0.115841 -0.724443
C49   C     C_3   0.583042 0.814038 0.886085 -0.350787
C50   C     C_3   0.511948 0.775977 0.880008 -0.760911
H11   H     H_    0.486389 0.892114 0.851796 0.225124
H12   H     H_    0.501912 0.644648 0.850069 0.226119
H13   H     H_    0.494281 0.762536 0.935872 0.222966
H14   H     H_    0.606294 0.698834 0.917541 0.190985
H15   H     H_    0.591084 0.942723 0.918548 0.179866
C51   C     C_3   0.416690 0.308924 0.114020 -0.350903
C52   C     C_3   0.487672 0.269309 0.120148 -0.761060
H16   H     H_    0.513566 0.385401 0.147990 0.225149
H17   H     H_    0.497370 0.138403 0.150472 0.226132
H18   H     H_    0.505254 0.254274 0.064311 0.223022
H19   H     H_    0.393123 0.193725 0.082857 0.191006
H20   H     H_    0.408971 0.437195 0.081251 0.179933
F3    F     F_    0.680392 0.921775 0.551776 -0.715921
F4    F     F_    0.319789 0.424874 0.448092 -0.715656

loop_
_geom_bond_atom_site_label_1
_geom_bond_atom_site_label_2
_ccdc_geom_bond_type
C20   C22   A    
C41   C43   T    
C52   H16   S    
C9    C11   A    
C10   H8    S    
O11   C47   A    
O2    C4    A    
C2    O7    A    
C4    C31   S    
C49   H15   S    
C51   H20   S    
C21   C23   A    
C49   C50   S    
O5    C3    A    
C5    H5    S    
C6    H6    S    
O12   V3    S    
C25   F3    S    
C45   O18   A    
O20   V3    S    
C50   H12   S    
C35   C37   S    
C36   C38   S    
C38   C40   T    
C5    C21   A    
O15   V3    S    
O13   C45   A    
C6    C22   A    
C40   C42   S    
C10   C32   A    
C2    C43   S    
O1    C3    A    
C17   C31   A    
C13   C15   A    
C17   C25   A    
C7    C29   A    
C11   C49   S    
C8    C30   A    
C22   C24   A    
C52   H17   S    
C8    C45   S    
C23   C25   A    
C27   F1    S    
C24   C26   A    
O16   V4    S    
C46   O17   A    
C14   H10   S    
C9    H7    S    
C51   H19   S    
O12   C48   A    
C19   C21   A    
C37   C39   T    
O4    C2    A    
O18   V4    S    
C7    C46   S    
C33   C48   S    
C50   H11   S    
O17   V3    S    
C15   C19   A    
C34   C47   S    
C42   C44   T    
O4    V2    S    
O6    C4    A    
C39   C41   S    
O1    V2    S    
C13   H9    S    
O2    V1    S    
H2    C30   S    
H3    C23   S    
C12   C51   S    
C52   H18   S    
C33   C35   T    
C28   F2    S    
C18   C26   A    
C19   C27   A    
C7    C27   A    
C18   C32   A    
C16   C20   A    
C5    C29   A    
C1    C44   S    
O3    C1    A    
C50   H13   S    
C6    C30   A    
O19   V4    S    
C49   H14   S    
C10   C12   A    
O7    V1    S    
C1    O8    A    
C11   C13   A    
C3    C32   S    
O8    V2    S    
C12   C14   A    
C26   F4    S    
H4    C24   S    
O5    V1    S    
C51   C52   S    
C15   C17   A    
C16   C18   A    
C34   C36   T    
H1    C29   S    
O14   V4    S    
C20   C28   A    
O13   V3    S    
C8    C28   A    
O11   V4    S    
O6    V2    S    
O16   C48   A    
O9    V2    S    
O15   C47   A    
O10   V1    S    
O3    V1    S    
O14   C46   A    
C9    C31   A    
C14   C16   A    
