data_mof_unit_33215.cif
_audit_creation_date              2012-12-11T15:20:36-0500
_audit_creation_method            fapswitch 2.2
_symmetry_space_group_name_H-M    P1
_symmetry_Int_Tables_number       1
_space_group_crystal_system       triclinic
_cell_length_a                    12.979559
_cell_length_b                    13.022856
_cell_length_c                    15.299339
_cell_angle_alpha                 116.948779
_cell_angle_beta                  63.440983
_cell_angle_gamma                 97.282036
_cell_volume                      2052.62554174

loop_
_atom_site_label
_atom_site_type_symbol
_atom_type_description
_atom_site_fract_x
_atom_site_fract_y
_atom_site_fract_z
_atom_type_partial_charge
C1    C     C_R   0.012566 0.835298 0.039608 -0.170393
C2    C     C_R   0.320968 0.532979 0.775880 -0.117707
C3    C     C_R   0.259548 0.418916 0.050205 -0.049363
C4    C     C_R   0.701668 0.403059 0.207488 -0.122006
C5    C     C_R   0.982350 0.300789 0.697841 -0.144271
C6    C     C_R   0.363022 0.441006 0.981507 -0.053233
C7    C     C_R   0.921534 0.205855 0.698437 0.101567
C8    C     C_R   0.328622 0.455910 0.673532 0.092296
C9    C     C_R   0.034781 0.143164 0.015561 0.032038
C10   C     C_R   0.935572 0.044645 0.423433 -0.151290
C11   C     C_R   0.924417 0.140032 0.518699 -0.214687
C12   C     C_R   0.707320 0.425018 0.302480 0.103077
C13   C     C_R   0.883413 0.128904 0.615596 -0.074102
C14   C     C_R   0.826898 0.030965 0.621230 0.772816
C15   C     C_R   0.839195 0.935223 0.525420 -0.316178
C16   C     C_R   0.755959 0.518003 0.892235 -0.166016
C17   C     C_R   0.905807 0.938373 0.425241 0.044663
C18   C     C_R   0.639346 0.415570 0.479581 0.750632
C19   C     C_R   0.542277 0.425810 0.573480 -0.313103
C20   C     C_R   0.434266 0.407891 0.572075 0.051587
C21   C     C_R   0.428144 0.355803 0.472236 -0.153272
C22   C     C_R   0.524363 0.345943 0.378799 -0.213802
C23   C     C_R   0.663292 0.456683 0.924633 0.187289
C24   C     C_R   0.626963 0.388734 0.384882 -0.062946
C25   C     C_2   0.476201 0.389807 0.943943 0.732763
C26   C     C_2   0.569750 0.434239 0.893688 -0.377635
C27   C     C_2   0.852636 0.963357 0.069299 0.686389
C28   C     C_R   0.942237 0.720476 0.316173 -0.128010
C29   C     C_2   0.841417 0.050281 0.164672 -0.204461
C30   C     C_R   0.676013 0.422260 0.992010 -0.076374
C31   C     C_R   0.033298 0.821322 0.222619 -0.127232
C32   C     C_R   0.802475 0.486551 0.303191 -0.115413
C33   C     C_R   0.906758 0.747944 0.949335 -0.032919
C34   C     C_R   0.955994 0.831248 0.325158 0.096450
C35   C     C_R   0.925543 0.854711 0.017608 -0.088693
C36   C     C_R   0.339583 0.526721 0.962202 -0.188292
C37   C     C_R   0.903059 0.200326 0.792503 -0.098337
C38   C     C_R   0.217279 0.440507 0.683706 -0.124727
C39   C     C_R   0.064548 0.250154 0.074353 -0.105417
C40   C     C_R   0.970079 0.166130 0.973354 -0.071758
F1    F     F_    0.768741 0.022501 0.716173 -0.699253
F2    F     F_    0.741505 0.440142 0.485099 -0.732749
F3    F     F_    0.482462 0.310589 0.976666 -0.708191
F4    F     F_    0.787001 0.971886 0.023837 -0.686069
H1    H     H_    0.103773 0.265380 0.127658 0.102476
H2    H     H_    0.891828 0.694331 0.379631 0.107888
H3    H     H_    0.628726 0.363122 0.023790 0.182812
H4    H     H_    0.075458 0.889864 0.203453 0.090827
H5    H     H_    0.841501 0.507064 0.357539 0.178629
H6    H     H_    0.844199 0.730636 0.916991 0.137397
H7    H     H_    0.399668 0.577319 0.926740 0.108601
H8    H     H_    0.054408 0.901896 0.081938 0.101149
H9    H     H_    0.847730 0.146487 0.827329 0.192153
H10   H     H_    0.189700 0.388576 0.621077 0.096980
H11   H     H_    0.927045 0.104159 0.928147 0.154339
H12   H     H_    0.391266 0.574121 0.793147 0.099034
H13   H     H_    0.977758 0.052490 0.348044 0.122380
H14   H     H_    0.550785 0.455999 0.648293 0.151806
H15   H     H_    0.512870 0.316696 0.305750 0.155544
H16   H     H_    0.566151 0.482966 0.853322 0.108336
H17   H     H_    0.778995 0.545638 0.829469 0.121465
H18   H     H_    0.249242 0.363633 0.088101 0.132067
H19   H     H_    0.998149 0.341219 0.645612 0.099465
H20   H     H_    0.960005 0.217287 0.512356 0.151040
H21   H     H_    0.648506 0.344992 0.172534 0.114471
H22   H     H_    0.804948 0.856821 0.530092 0.163300
H23   H     H_    0.347549 0.333369 0.466668 0.127181
H24   H     H_    0.887974 0.047180 0.207414 0.077293
N1    N     N_R   0.037310 0.720000 0.995790 -0.030415
N2    N     N_R   0.824890 0.517960 0.936420 -0.050989
N3    N     N_R   0.003210 0.648190 0.211380 -0.046311
N4    N     N_R   0.774330 0.457010 0.995840 -0.063178
N5    N     N_R   0.053760 0.709140 0.151960 -0.039657
N6    N     N_R   0.853860 0.498840 0.211410 -0.056095
N7    N     N_R   0.974240 0.667310 0.936390 -0.052372
N8    N     N_R   0.225670 0.542990 0.004160 -0.029957
N9    N     N_R   0.946240 0.290860 0.848040 -0.058636
N10   N     N_R   0.146140 0.501160 0.788590 -0.044135
N11   N     N_R   0.025760 0.332690 0.063610 -0.048208
N12   N     N_R   0.962690 0.280000 0.004210 -0.051544
N13   N     N_R   0.209210 0.553840 0.847990 -0.040210
N14   N     N_R   0.175110 0.482040 0.063580 -0.051993
N15   N     N_R   0.996790 0.351810 0.788620 -0.042793
N16   N     N_R   0.790790 0.446160 0.152010 -0.047500
Ni1   Ni    Ni4+2 0.130310 0.630310 0.999970 0.235277
Ni2   Ni    Ni4+2 0.869690 0.369690 0.000030 0.235758
Ni3   Ni    Ni4+2 0.985640 0.509470 0.863740 0.218986
Ni4   Ni    Ni4+2 0.014360 0.490530 0.136260 0.223671

loop_
_geom_bond_atom_site_label_1
_geom_bond_atom_site_label_2
_ccdc_geom_bond_type
N10   Ni3   S    
N15   Ni3   S    
C12   C32   A    
C27   C29   D    
C19   C20   A    
C3    C6    A    
C25   F3    S    
C28   H2    S    
C8    C20   S    
C18   C24   A    
N16   Ni2   S    
C18   F2    S    
C32   N6    A    
C4    H21   S    
C5    N15   A    
C31   N5    A    
C6    C25   S    
N9    N15   A    
C10   C17   A    
C9    C39   A    
C5    H19   S    
C18   C19   A    
C23   C26   S    
N12   Ni2   S    
C36   N8    A    
C27   F4    S    
C33   N7    A    
C4    N16   A    
C40   N12   A    
C4    C12   A    
C39   H1    S    
C37   H9    S    
C28   C34   A    
C13   C14   A    
C21   H23   S    
C8    C38   A    
N2    Ni3   S    
N11   Ni4   S    
C19   H14   S    
C23   C30   A    
C30   H3    S    
C10   H13   S    
C16   N2    A    
C11   H20   S    
N8    N14   A    
C22   H15   S    
N3    N5    A    
C38   N10   A    
C27   C35   S    
C33   H6    S    
C15   H22   S    
C37   N9    A    
C9    C40   A    
C1    N1    A    
N3    Ni4   S    
C39   N11   A    
C29   H24   S    
C30   N4    A    
C38   H10   S    
C40   H11   S    
C3    N14   A    
C7    C37   A    
C31   C34   A    
N5    Ni1   S    
C36   H7    S    
C14   F1    S    
N7    Ni3   S    
N9    Ni2   S    
C16   C23   A    
C31   H4    S    
C22   C24   A    
C28   N3    A    
C16   H17   S    
N1    Ni1   S    
C1    C35   A    
C5    C7    A    
C3    H18   S    
C15   C17   A    
C2    C8    A    
N6    N16   A    
N4    Ni2   S    
C12   C24   S    
C25   C26   D    
C2    H12   S    
C11   C13   A    
N10   N13   A    
N14   Ni4   S    
C33   C35   A    
C6    C36   A    
N1    N7    A    
C1    H8    S    
C32   H5    S    
C10   C11   A    
N11   N12   A    
C7    C13   S    
C20   C21   A    
C17   C34   S    
C14   C15   A    
C2    N13   A    
N2    N4    A    
N6    Ni4   S    
C21   C22   A    
C26   H16   S    
N8    Ni1   S    
N13   Ni1   S    
