data_mof_unit_55304.cif
_audit_creation_date              2012-12-10T20:40:02-0500
_audit_creation_method            fapswitch 2.2
_symmetry_space_group_name_H-M    P1
_symmetry_Int_Tables_number       1
_space_group_crystal_system       triclinic
_cell_length_a                    23.310324
_cell_length_b                    10.771718
_cell_length_c                    9.889289
_cell_angle_alpha                 88.916707
_cell_angle_beta                  90.415459
_cell_angle_gamma                 91.081959
_cell_volume                      2482.17820394

loop_
_atom_site_label
_atom_site_type_symbol
_atom_type_description
_atom_site_fract_x
_atom_site_fract_y
_atom_site_fract_z
_atom_type_partial_charge
C1    C     C_R   0.498272 0.260243 0.501089 0.896720
C2    C     C_R   0.122859 0.625760 0.558037 0.523867
C3    C     C_R   0.245090 0.624845 0.419546 0.246769
C4    C     C_R   0.389594 0.500289 0.499248 0.886863
C5    C     C_R   0.304376 0.613397 0.427827 -0.283614
C6    C     C_R   0.328035 0.511456 0.495381 -0.070494
C7    C     C_R   0.293054 0.419780 0.554851 -0.283293
C8    C     C_R   0.233485 0.430009 0.549764 0.127393
C9    C     C_R   0.209545 0.533215 0.480645 0.274647
C10   C     C_R   0.765617 0.474516 0.596574 -0.104743
C11   C     C_R   0.706232 0.460381 0.600147 -0.233733
C12   C     C_R   0.967592 0.407713 0.289871 -0.164153
C13   C     C_R   0.672695 0.514582 0.497867 -0.026798
C14   C     C_R   0.698754 0.582475 0.391741 -0.224320
C15   C     C_R   0.757973 0.596326 0.388211 -0.096799
C16   C     C_R   0.500322 0.740268 0.497758 0.865247
C17   C     C_R   0.791357 0.542154 0.490338 0.318707
C18   C     C_R   0.487090 0.059199 0.619922 0.119681
C19   C     C_R   0.490758 0.128778 0.500677 -0.138179
C20   C     C_R   0.487925 0.070019 0.376159 -0.257667
C21   C     C_R   0.492727 0.942529 0.368371 0.082174
C22   C     C_R   0.494905 0.872497 0.492124 -0.141717
C23   C     C_R   0.027160 0.407832 0.287487 -0.171411
C24   C     C_R   0.488515 0.932298 0.614994 0.119881
C25   C     C_3   0.525406 0.923052 0.738817 -0.479874
C26   C     C_3   0.524318 0.063072 0.743681 -0.480578
C27   C     C_R   0.453528 0.456172 0.071371 0.178077
C28   C     C_R   0.610612 0.501836 0.500009 0.863310
C29   C     C_R   0.543353 0.554276 0.073007 -0.147855
C30   C     C_R   0.543623 0.556087 0.929258 0.234945
C31   C     C_R   0.452781 0.458407 0.929045 0.098105
C32   C     C_3   0.425974 0.331278 0.925903 -0.014056
C33   C     C_3   0.428924 0.327954 0.079526 -0.484812
C34   C     C_R   0.059049 0.481805 0.377161 0.006662
C35   C     C_R   0.881845 0.627655 0.566133 0.518635
C36   C     C_R   0.879160 0.478696 0.389925 0.500982
C37   C     C_R   0.938922 0.481641 0.381895 -0.003782
C38   C     C_R   0.970517 0.559103 0.469810 -0.025185
C39   C     C_R   0.941804 0.633943 0.561597 -0.044060
C40   C     C_3   0.506276 0.894605 0.228477 -0.370413
C41   C     C_3   0.571347 0.877244 0.214308 -0.334683
C42   C     C_3   0.589351 0.878706 0.066484 -0.895329
C43   C     C_3   0.646455 0.586808 0.891227 -0.765544
C44   C     C_3   0.341062 0.211223 0.859773 -0.802902
C45   C     C_R   0.030847 0.559708 0.467469 -0.062182
C46   C     C_3   0.077042 0.919379 0.663955 -0.687704
C47   C     C_3   0.208614 0.712974 0.211226 -0.749331
C48   C     C_3   0.196862 0.331465 0.620528 -0.427671
C49   C     C_3   0.181934 0.370708 0.764057 -0.335913
C50   C     C_3   0.147818 0.268735 0.838675 -0.863711
C51   C     C_R   0.062754 0.636107 0.556696 -0.060558
C52   C     C_R   0.033345 0.716369 0.643669 0.218780
C53   C     C_R   0.973330 0.712725 0.646574 -0.231622
C54   C     C_R   0.118684 0.477413 0.381051 0.474920
H1    H     H_    0.944156 0.348242 0.220798 0.190530
H2    H     H_    0.577963 0.597791 0.128993 0.164788
H3    H     H_    0.048091 0.348216 0.216745 0.186296
H4    H     H_    0.453058 0.263769 0.874241 0.159699
H5    H     H_    0.386517 0.324771 0.130437 0.222990
H6    H     H_    0.460291 0.260026 0.119003 0.171280
H7    H     H_    0.951497 0.772861 0.715292 0.190690
H8    H     H_    0.332043 0.683933 0.381445 0.146098
H9    H     H_    0.312189 0.339464 0.603072 0.146795
H10   H     H_    0.791731 0.431130 0.674459 0.142783
H11   H     H_    0.562288 0.812506 0.009109 0.273911
H12   H     H_    0.686650 0.404950 0.680275 0.152993
H13   H     H_    0.584419 0.973171 0.021391 0.269073
H14   H     H_    0.634964 0.852011 0.058727 0.262226
H15   H     H_    0.595339 0.953470 0.265537 0.230014
H16   H     H_    0.584114 0.788275 0.263120 0.224494
H17   H     H_    0.481236 0.809830 0.202604 0.216285
H18   H     H_    0.492205 0.962940 0.149692 0.182037
H19   H     H_    0.580199 0.659836 0.767756 0.274826
H20   H     H_    0.676435 0.636072 0.820850 0.252086
H21   H     H_    0.650394 0.485115 0.879174 0.245956
H22   H     H_    0.658984 0.611609 0.995875 0.233205
H23   H     H_    0.673308 0.625344 0.312138 0.141066
H24   H     H_    0.359517 0.393729 0.799183 0.258342
H25   H     H_    0.294709 0.220847 0.836559 0.243988
H26   H     H_    0.345383 0.153619 0.953562 0.258022
H27   H     H_    0.361822 0.164029 0.774474 0.232381
H28   H     H_    0.044189 0.811913 0.821593 0.218206
H29   H     H_    0.037073 0.969646 0.638356 0.214268
H30   H     H_    0.102010 0.905833 0.570242 0.260971
H31   H     H_    0.103424 0.976947 0.733639 0.232600
H32   H     H_    0.244276 0.811251 0.369080 0.228596
H33   H     H_    0.188092 0.797455 0.168700 0.239563
H34   H     H_    0.778068 0.647997 0.305742 0.140053
H35   H     H_    0.178572 0.633134 0.197175 0.274257
H36   H     H_    0.248847 0.696912 0.154996 0.238345
H37   H     H_    0.107093 0.247928 0.783856 0.259011
H38   H     H_    0.173344 0.182877 0.847664 0.260470
H39   H     H_    0.137409 0.299963 0.941879 0.273239
H40   H     H_    0.221964 0.391249 0.821907 0.240883
H41   H     H_    0.155975 0.455989 0.759896 0.250316
H42   H     H_    0.157007 0.311937 0.562187 0.221420
H43   H     H_    0.220379 0.242568 0.626222 0.203815
H44   H     H_    0.488865 0.124326 0.283265 0.169471
H45   H     H_    0.502177 0.876408 0.823967 0.208216
H46   H     H_    0.568767 0.886770 0.718204 0.203864
H47   H     H_    0.501629 0.095097 0.834210 0.190386
H48   H     H_    0.566881 0.108334 0.724978 0.209579
N1    N     N_R   0.852201 0.550090 0.481882 -0.359218
N2    N     N_R   0.148825 0.546060 0.472820 -0.342124
N3    N     N_R   0.499610 0.499140 0.142800 -0.129326
N4    N     N_R   0.499610 0.499180 0.857150 -0.154374
N5    N     N_2   0.588258 0.624129 0.862544 -0.318187
N6    N     N_2   0.367049 0.332721 0.878210 -0.277106
N7    N     N_2   0.063292 0.801107 0.728856 -0.253496
N8    N     N_2   0.221090 0.730232 0.353153 -0.304109
O1    O     O_R   0.500010 0.316790 0.614690 -0.621950
O2    O     O_R   0.583850 0.500060 0.614640 -0.621379
O3    O     O_R   0.583840 0.500020 0.385300 -0.621522
O4    O     O_2   0.853279 0.698045 0.653781 -0.562110
O5    O     O_2   0.848092 0.403992 0.307971 -0.558250
O6    O     O_2   0.146613 0.403432 0.295728 -0.585010
O7    O     O_2   0.155386 0.691566 0.645566 -0.548467
O8    O     O_R   0.500000 0.316760 0.385350 -0.619498
O9    O     O_R   0.416160 0.499980 0.614700 -0.625279
O10   O     O_R   0.416150 0.499940 0.385360 -0.608819
O11   O     O_R   0.500000 0.683240 0.614650 -0.632689
O12   O     O_R   0.499990 0.683210 0.385310 -0.630662
Zn1   Zn    Zn3+2 0.500000 0.500020 0.653130 0.933834
Zn2   Zn    Zn3+2 0.500000 0.499980 0.346870 0.937684

loop_
_geom_bond_atom_site_label_1
_geom_bond_atom_site_label_2
_ccdc_geom_bond_type
C40   H17   S    
C30   N5    S    
C41   C42   S    
C19   C20   A    
C18   C26   S    
C32   H4    S    
C7    C8    A    
C39   C53   A    
C27   C33   S    
C48   H43   S    
O3    Zn2   S    
C12   C23   A    
C29   C30   A    
C36   N1    A    
C18   C24   A    
C54   N2    A    
C36   C37   A    
H32   N8    S    
C35   N1    A    
C28   O3    A    
C26   H47   S    
C38   C39   A    
H19   N5    S    
C45   C51   A    
C10   C17   A    
C35   O4    S    
H24   N6    S    
C18   C19   A    
C14   H23   S    
C12   C37   A    
C16   O12   A    
C38   C45   A    
C15   H34   S    
C53   H7    S    
C25   H45   S    
C8    C9    A    
C54   O6    S    
N4    Zn1   S    
C42   H11   S    
C13   C28   S    
C49   H40   S    
C40   H18   S    
C11   H12   S    
C46   H31   S    
C43   H20   S    
C33   H5    S    
C13   C14   A    
C30   N4    A    
C42   H14   S    
C47   H35   S    
C29   N3    A    
C2    O7    S    
C44   N6    S    
C43   H21   S    
C1    C19   S    
C27   C31   A    
C51   C52   A    
H28   N7    S    
C44   H26   S    
C24   C25   S    
O2    Zn1   S    
C4    C6    S    
C44   H27   S    
C10   C11   A    
C43   N5    S    
C25   C26   S    
O1    Zn1   S    
C28   O2    A    
N3    Zn2   S    
C47   H33   S    
C35   C39   A    
C16   O11   A    
C8    C48   S    
C37   C38   A    
C3    C9    A    
C25   H46   S    
C31   C32   S    
C2    N2    A    
C23   C34   A    
C4    O9    A    
C34   C45   A    
O8    Zn2   S    
C49   H41   S    
C7    H9    S    
C46   H30   S    
C50   H38   S    
C48   C49   S    
C34   C54   A    
C33   H6    S    
C42   H13   S    
C31   N4    A    
C22   C24   A    
O12   Zn2   S    
C52   C53   A    
C41   H15   S    
C43   H22   S    
C23   H3    S    
C40   C41   S    
C16   C22   S    
C48   H42   S    
C44   H25   S    
C10   H10   S    
C3    C5    A    
C50   H39   S    
C15   C17   A    
C6    C7    A    
C29   H2    S    
O9    Zn1   S    
C47   N8    S    
C32   C33   S    
C17   N1    S    
C1    O1    A    
C11   C13   A    
C5    C6    A    
C21   C40   S    
C52   N7    S    
C9    N2    S    
C47   H36   S    
C5    H8    S    
C1    O8    A    
O11   Zn1   S    
C12   H1    S    
C2    C51   A    
C46   H29   S    
C50   H37   S    
C20   H44   S    
C20   C21   A    
C49   C50   S    
C32   N6    S    
C46   N7    S    
C27   N3    A    
C14   C15   A    
C4    O10   A    
C3    N8    S    
C21   C22   A    
C36   O5    S    
C26   H48   S    
O10   Zn2   S    
C41   H16   S    
