data_mof_unit_13884.cif
_audit_creation_date              2012-10-26T18:30:18-0400
_audit_creation_method            fapswitch 2.2
_symmetry_space_group_name_H-M    P1
_symmetry_Int_Tables_number       1
_space_group_crystal_system       triclinic
_cell_length_a                    10.623618
_cell_length_b                    12.974077
_cell_length_c                    11.676181
_cell_angle_alpha                 99.8592
_cell_angle_beta                  93.521584
_cell_angle_gamma                 90.612186
_cell_volume                      1582.21763489

loop_
_atom_site_label
_atom_site_type_symbol
_atom_type_description
_atom_site_fract_x
_atom_site_fract_y
_atom_site_fract_z
_atom_type_partial_charge
C1    C     C_R   0.498794 0.299106 0.478616 0.553460
C2    C     C_R   0.608528 0.588217 0.855662 0.038376
C3    C     C_R   0.552044 0.542069 0.156800 0.041929
C4    C     C_R   0.447956 0.457930 0.843199 0.041944
C5    C     C_R   0.543673 0.535401 0.034045 0.005954
C6    C     C_R   0.456328 0.464598 0.965955 0.005955
C7    C     C_R   0.259366 0.499649 0.500476 0.558446
C8    C     C_R   0.740635 0.500347 0.499523 0.558477
C9    C     C_3   0.047406 0.481036 0.604142 -0.131236
C10   C     C_3   0.952600 0.518962 0.395850 -0.131216
C11   C     C_3   0.958596 0.406954 0.516977 -0.006059
C12   C     C_R   0.501195 0.700895 0.521385 0.553439
C13   C     C_3   0.041406 0.593053 0.483025 -0.006018
C14   C     C_3   0.877164 0.499996 0.498884 0.031722
C15   C     C_3   0.122840 0.500002 0.501112 0.031755
C16   C     C_3   0.964142 0.575155 0.585915 -0.138386
C17   C     C_3   0.035857 0.424830 0.414082 -0.138386
C18   C     C_R   0.499613 0.814246 0.533719 0.009948
C19   C     C_R   0.500358 0.185756 0.466285 0.009946
C20   C     C_R   0.525363 0.015967 0.347915 -0.149471
C21   C     C_R   0.474593 0.984034 0.652090 -0.149440
C22   C     C_R   0.520182 0.124051 0.358182 -0.135782
C23   C     C_R   0.484328 0.138919 0.563914 -0.131963
C24   C     C_R   0.479773 0.875949 0.641821 -0.135732
C25   C     C_R   0.907897 0.303806 0.539317 0.030606
C26   C     C_R   0.921586 0.211046 0.459433 -0.098041
C27   C     C_R   0.874277 0.115889 0.481676 -0.113597
C28   C     C_R   0.813107 0.112585 0.583554 -0.099567
C29   C     C_R   0.798616 0.204514 0.663182 -0.110690
C30   C     C_R   0.845962 0.299771 0.641372 -0.079573
C31   C     C_R   0.092055 0.696290 0.460834 0.030570
C32   C     C_R   0.078011 0.789003 0.540708 -0.098003
C33   C     C_R   0.125272 0.884242 0.518663 -0.113662
C34   C     C_R   0.515643 0.861085 0.436093 -0.132011
C35   C     C_R   0.186755 0.887689 0.416988 -0.099495
C36   C     C_R   0.201585 0.795819 0.337353 -0.110649
C37   C     C_R   0.154276 0.700471 0.358963 -0.079669
C38   C     C_R   0.489469 0.030963 0.554401 0.039307
C39   C     C_R   0.510496 0.969041 0.445606 0.039319
C40   C     C_R   0.379860 0.402503 0.022239 -0.181928
C41   C     C_R   0.620142 0.597496 0.977760 -0.181933
C42   C     C_R   0.391473 0.411782 0.144338 0.038376
Cu1   Cu    Cu3+1 0.509400 0.507730 0.615930 0.923432
Cu2   Cu    Cu3+1 0.490600 0.492270 0.384070 0.923361
H1    H     H_    0.088666 0.464945 0.688832 0.111953
H2    H     H_    0.458640 0.030741 0.735973 0.098255
H3    H     H_    0.381065 0.403660 0.789973 0.110469
H4    H     H_    0.618935 0.596340 0.210027 0.110478
H5    H     H_    0.667891 0.636399 0.813214 0.119820
H6    H     H_    0.332110 0.363600 0.186786 0.119834
H7    H     H_    0.311614 0.347204 0.972377 0.080047
H8    H     H_    0.688387 0.652794 0.027623 0.080048
H9    H     H_    0.968436 0.211805 0.379945 0.094760
H10   H     H_    0.885089 0.044646 0.419920 0.110112
H11   H     H_    0.776606 0.038861 0.600592 0.118344
H12   H     H_    0.911340 0.535050 0.311163 0.111979
H13   H     H_    0.750646 0.201956 0.741816 0.103951
H14   H     H_    0.834685 0.370299 0.704160 0.122733
H15   H     H_    0.030907 0.788158 0.620048 0.094736
H16   H     H_    0.114182 0.955443 0.580426 0.110063
H17   H     H_    0.223216 0.961485 0.400115 0.118378
H18   H     H_    0.249792 0.798490 0.258862 0.103981
H19   H     H_    0.165804 0.629994 0.296156 0.122883
H20   H     H_    0.930334 0.634946 0.656395 0.098390
H21   H     H_    0.069639 0.364981 0.343639 0.098408
H22   H     H_    0.531504 0.813654 0.352495 0.113050
H23   H     H_    0.468466 0.186351 0.647511 0.113082
H24   H     H_    0.466785 0.840663 0.718003 0.128796
H25   H     H_    0.533162 0.159336 0.281998 0.128794
H26   H     H_    0.541307 0.969260 0.264030 0.098248
N1    N     N_R   0.523540 0.519360 0.790140 -0.229693
N2    N     N_R   0.476460 0.480640 0.209860 -0.229708
O1    O     O_R   0.506670 0.354460 0.582000 -0.509192
O2    O     O_R   0.493330 0.645540 0.418000 -0.509245
O3    O     O_R   0.490800 0.341410 0.386200 -0.509284
O4    O     O_R   0.509200 0.658590 0.613800 -0.509278
O5    O     O_R   0.324790 0.506500 0.597880 -0.505621
O6    O     O_R   0.675210 0.493500 0.402120 -0.505625
O7    O     O_R   0.308910 0.493440 0.402080 -0.513911
O8    O     O_R   0.691090 0.506560 0.597920 -0.513853

loop_
_geom_bond_atom_site_label_1
_geom_bond_atom_site_label_2
_ccdc_geom_bond_type
Cu1   O1    S    
C9    H1    S    
C12   O2    A    
C35   C36   A    
C34   H22   S    
C27   H10   S    
C26   C27   A    
C18   C24   A    
C36   C37   A    
C9    C16   S    
C38   C39   A    
C11   C14   S    
C11   C25   S    
C2    C41   A    
C3    H4    S    
Cu1   O4    S    
C23   H23   S    
C11   C17   S    
C21   C38   A    
C8    C14   S    
C10   H12   S    
C22   H25   S    
C7    O5    A    
C40   C42   A    
C8    O6    A    
C20   H26   S    
C36   H18   S    
C37   H19   S    
C28   H11   S    
C1    C19   S    
C34   C39   A    
C1    O3    A    
C19   C22   A    
C4    C6    A    
C10   C14   S    
C20   C39   A    
C25   C26   A    
C31   C37   A    
Cu2   O3    S    
C19   C23   A    
Cu1   Cu2   S    
C29   C30   A    
C2    H5    S    
C9    C11   S    
C31   C32   A    
C13   C15   S    
C42   N2    A    
C35   H17   S    
Cu2   O2    S    
C18   C34   A    
C42   H6    S    
C29   H13   S    
C33   H16   S    
C12   O4    A    
C6    C40   A    
C21   C24   A    
C2    N1    A    
C23   C38   A    
C26   H9    S    
Cu1   O8    S    
C7    O7    A    
C21   H2    S    
C25   C30   A    
C15   C17   S    
C5    C41   A    
C28   C29   A    
Cu1   N1    S    
C41   H8    S    
C13   C31   S    
Cu2   O7    S    
C20   C22   A    
C3    C5    A    
C10   C13   S    
Cu1   O5    S    
C40   H7    S    
C16   H20   S    
C17   H21   S    
C1    O1    A    
C32   C33   A    
Cu2   O6    S    
C3    N2    A    
C9    C15   S    
C5    C6    A    
C30   H14   S    
C7    C15   S    
C33   C35   A    
Cu2   N2    S    
C14   C16   S    
C24   H24   S    
C13   C16   S    
C12   C18   S    
C27   C28   A    
C8    O8    A    
C10   C17   S    
C32   H15   S    
C4    N1    A    
C4    H3    S    
