data_mof_unit_59956.cif
_audit_creation_date              2012-12-10T17:22:13-0500
_audit_creation_method            fapswitch 2.2
_symmetry_space_group_name_H-M    P1
_symmetry_Int_Tables_number       1
_space_group_crystal_system       triclinic
_cell_length_a                    15.870223
_cell_length_b                    10.7571
_cell_length_c                    9.654644
_cell_angle_alpha                 89.814025
_cell_angle_beta                  92.247027
_cell_angle_gamma                 91.264986
_cell_volume                      1646.54400175

loop_
_atom_site_label
_atom_site_type_symbol
_atom_type_description
_atom_site_fract_x
_atom_site_fract_y
_atom_site_fract_z
_atom_type_partial_charge
C1    C     C_R   0.500011 0.263007 0.500159 0.748384
C2    C     C_3   0.956279 0.491093 0.650250 -0.416330
C3    C     C_3   0.916564 0.495975 0.500865 0.137301
C4    C     C_3   0.948907 0.616699 0.426669 -0.198054
C5    C     C_3   0.047938 0.618961 0.425437 -0.238324
C6    C     C_1   0.824293 0.496103 0.505106 -0.006763
C7    C     C_1   0.175578 0.497394 0.492281 -0.053152
C8    C     C_1   0.251050 0.498292 0.493227 -0.109682
C9    C     C_R   0.351368 0.126299 0.579319 -0.175424
C10   C     C_R   0.279320 0.060088 0.617072 -0.128905
C11   C     C_R   0.278094 0.930223 0.616842 0.208270
C12   C     C_R   0.340556 0.499379 0.497779 0.782206
C13   C     C_R   0.349474 0.866878 0.579022 -0.133751
C14   C     C_R   0.423221 0.932503 0.540868 0.040305
C15   C     C_R   0.424417 0.063663 0.541026 0.088080
C16   C     C_R   0.497998 0.128719 0.500117 -0.151522
C17   C     C_R   0.569102 0.064915 0.456470 -0.019235
C18   C     C_R   0.566209 0.935663 0.455600 -0.153148
C19   C     C_R   0.495224 0.870468 0.499009 -0.115365
C20   C     C_R   0.617646 0.653424 0.143281 -0.123120
C21   C     C_R   0.682386 0.709263 0.069979 -0.292143
C22   C     C_R   0.699987 0.665047 0.938725 -0.079927
C23   C     C_R   0.498681 0.736881 0.499697 0.784100
C24   C     C_R   0.650113 0.565712 0.883564 0.058282
C25   C     C_R   0.568067 0.548769 0.932775 0.170956
C26   C     C_R   0.560730 0.567404 0.077644 0.172101
C27   C     C_R   0.438068 0.439929 0.068340 0.048317
C28   C     C_R   0.436312 0.447080 0.920573 0.017979
C29   C     C_R   0.659430 0.499636 0.502083 0.812272
C30   C     C_3   0.053883 0.487623 0.646924 -0.184976
C31   C     C_3   0.044652 0.382533 0.409933 -0.163139
C32   C     C_3   0.945691 0.381952 0.415078 -0.221807
C33   C     C_1   0.748889 0.497454 0.505811 -0.099037
C34   C     C_3   0.082967 0.496704 0.493509 0.058543
Cu1   Cu    Cu3+1 0.499990 0.499990 0.640660 1.002029
Cu2   Cu    Cu3+1 0.500010 0.500010 0.359340 0.942063
H1    H     H_    0.932347 0.408602 0.707119 0.229649
H2    H     H_    0.935523 0.571925 0.710653 0.173562
H3    H     H_    0.921147 0.613518 0.319076 0.209455
H4    H     H_    0.348708 0.226649 0.579205 0.139831
H5    H     H_    0.224088 0.109920 0.645725 0.149036
H6    H     H_    0.346136 0.766338 0.578291 0.146976
H7    H     H_    0.620324 0.884500 0.423769 0.183693
H8    H     H_    0.073874 0.396845 0.691087 0.180609
H9    H     H_    0.613214 0.682798 0.248070 0.205243
H10   H     H_    0.722396 0.780294 0.119710 0.196762
H11   H     H_    0.385548 0.401947 0.860376 0.180569
H12   H     H_    0.060420 0.396411 0.299381 0.199103
H13   H     H_    0.921505 0.396467 0.306377 0.113139
H14   H     H_    0.072958 0.698673 0.488667 0.100093
N1    N     N_R   0.500800 0.501210 0.147910 -0.234456
N2    N     N_R   0.500820 0.501290 0.852040 -0.203173
O1    O     O_R   0.499990 0.319640 0.618810 -0.542419
O2    O     O_R   0.500000 0.319660 0.381240 -0.614156
O3    O     O_R   0.379430 0.499990 0.618840 -0.580502
O4    O     O_R   0.379440 0.500020 0.381260 -0.592959
O5    O     O_R   0.500000 0.680340 0.618760 -0.562012
O6    O     O_R   0.500010 0.680360 0.381190 -0.595842
O7    O     O_R   0.620560 0.499980 0.618740 -0.553127
O8    O     O_R   0.620570 0.500010 0.381160 -0.599588
C35   C     C_2   0.093752 0.587280 0.740257 0.431876
H15   H     H_    0.076380 0.683675 0.727428 0.066173
O9    O     O_2   0.145001 0.559931 0.832357 -0.486474
C36   C     C_2   0.647533 0.131568 0.415021 0.424764
H16   H     H_    0.653886 0.231756 0.423625 0.057176
O10   O     O_2   0.706668 0.074909 0.370897 -0.527890
N3    N     N_3   0.204152 0.861456 0.653755 -0.600897
H17   H     H_    0.189703 0.886852 0.754386 0.240206
H18   H     H_    0.154293 0.888572 0.587193 0.215278
C37   C     C_2   0.370585 0.364568 0.132010 0.410577
H19   H     H_    0.379726 0.322428 0.232498 0.130663
O11   O     O_2   0.302891 0.345906 0.070132 -0.530251
C38   C     C_2   0.774926 0.714787 0.868951 0.355208
H20   H     H_    0.819689 0.776169 0.924336 0.110616
O12   O     O_2   0.786232 0.690735 0.747782 -0.574140
C39   C     C_2   0.697579 0.451409 0.852930 0.413553
H21   H     H_    0.764678 0.457202 0.835160 0.084845
O13   O     O_2   0.662416 0.349168 0.849147 -0.524134
C40   C     C_2   0.084385 0.260472 0.453545 0.389558
H22   H     H_    0.078667 0.224701 0.557896 0.106287
O14   O     O_2   0.123657 0.200944 0.371150 -0.526697
C41   C     C_2   0.905397 0.258541 0.456835 0.388310
H23   H     H_    0.868179 0.205308 0.380194 0.134301
O15   O     O_2   0.914416 0.216975 0.574128 -0.538180
C42   C     C_2   0.082347 0.642860 0.282504 0.411349
H24   H     H_    0.148934 0.665568 0.274105 0.100982
O16   O     O_2   0.037716 0.637365 0.176620 -0.528613
C43   C     C_2   0.917861 0.734774 0.490871 0.440213
H25   H     H_    0.939507 0.762140 0.594514 0.084807
O17   O     O_2   0.868783 0.801120 0.426071 -0.496340

loop_
_geom_bond_atom_site_label_1
_geom_bond_atom_site_label_2
_ccdc_geom_bond_type
C23   O6    A    
C28   H11   S    
Cu1   O1    S    
C11   C13   A    
C38   H20   S    
Cu1   Cu2   S    
C3    C6    S    
C7    C8    T    
C42   H24   S    
C21   C22   A    
C39   O13   D    
Cu2   O6    S    
C17   C36   S    
C15   C16   A    
C29   C33   S    
Cu1   O7    S    
C18   C19   A    
C35   O9    D    
C1    O1    A    
C29   O7    A    
C11   N3    S    
C16   C17   A    
C29   O8    A    
C37   H19   S    
C9    C10   A    
C20   H9    S    
C5    C42   S    
C13   C14   A    
C10   H5    S    
C38   O12   D    
C30   H8    S    
C35   H15   S    
C13   H6    S    
C27   N1    A    
C42   O16   D    
C30   C34   S    
Cu1   O3    S    
N3    H17   S    
C24   C25   A    
C40   O14   D    
C24   C39   S    
C25   C26   A    
C9    H4    S    
N3    H18   S    
C36   O10   D    
C19   C23   S    
C1    O2    A    
Cu2   O4    S    
C2    H2    S    
C31   C32   S    
C4    H3    S    
C8    C12   S    
C5    C34   S    
C20   C21   A    
C17   C18   A    
C31   C34   S    
C1    C16   S    
C39   H21   S    
Cu2   N1    S    
C12   O4    A    
C27   C37   S    
C43   O17   D    
C41   O15   D    
C31   H12   S    
C7    C34   S    
C22   C24   A    
C5    H14   S    
C3    C4    S    
Cu1   N2    S    
C21   H10   S    
C23   O5    A    
C14   C19   A    
C4    C5    S    
Cu2   O8    S    
C31   C40   S    
C4    C43   S    
C32   C41   S    
C6    C33   T    
C2    C30   S    
Cu1   O5    S    
C36   H16   S    
C2    C3    S    
C9    C15   A    
C25   N2    A    
C26   N1    A    
C28   N2    A    
C2    H1    S    
C20   C26   A    
C3    C32   S    
C32   H13   S    
C12   O3    A    
Cu2   O2    S    
C10   C11   A    
C40   H22   S    
C43   H25   S    
C41   H23   S    
C30   C35   S    
C27   C28   A    
C14   C15   A    
C37   O11   D    
C22   C38   S    
C18   H7    S    
