data_mof_unit_9487.cif
_audit_creation_date              2012-12-10T17:48:53-0500
_audit_creation_method            fapswitch 2.2
_symmetry_space_group_name_H-M    P1
_symmetry_Int_Tables_number       1
_space_group_crystal_system       triclinic
_cell_length_a                    10.737644
_cell_length_b                    14.726864
_cell_length_c                    14.731461
_cell_angle_alpha                 65.002207
_cell_angle_beta                  103.830068
_cell_angle_gamma                 103.184551
_cell_volume                      2028.60093897

loop_
_atom_site_label
_atom_site_type_symbol
_atom_type_description
_atom_site_fract_x
_atom_site_fract_y
_atom_site_fract_z
_atom_type_partial_charge
C1    C     C_R   0.479800 0.119613 0.312133 0.903080
C2    C     C_3   0.878358 0.001230 0.499833 -0.289795
C3    C     C_3   0.922107 0.899777 0.579646 -0.605816
C4    C     C_3   0.966508 0.089812 0.526809 1.153157
C5    C     C_R   0.478752 0.187016 0.204581 -0.255902
C6    C     C_R   0.539561 0.812932 0.795705 -0.146825
C7    C     C_R   0.484243 0.217736 0.030446 0.556350
C8    C     C_R   0.473747 0.150234 0.129840 0.581194
C9    C     C_R   0.492139 0.291344 0.178220 -0.301129
C10   C     C_R   0.509733 0.361114 0.080008 0.020733
C11   C     C_R   0.502710 0.322755 0.005015 -0.075876
C12   C     C_R   0.259912 0.000249 0.499799 0.865354
C13   C     C_R   0.532672 0.467658 0.054274 0.137392
C14   C     C_R   0.534859 0.534454 0.951097 0.108996
C15   C     C_R   0.530242 0.493223 0.879021 -0.222153
C16   C     C_R   0.515211 0.389571 0.905821 -0.110349
C17   C     C_R   0.556731 0.509641 0.128470 -0.225428
C18   C     C_R   0.574859 0.613502 0.101747 -0.154012
C19   C     C_R   0.566776 0.679639 0.000165 0.007441
C20   C     C_R   0.544287 0.640539 0.923710 0.015405
C21   C     C_R   0.579968 0.784633 0.973748 0.629848
C22   C     C_R   0.567497 0.850797 0.872055 -0.201146
C23   C     C_R   0.522645 0.880353 0.687810 0.823144
C24   C     C_R   0.527523 0.708755 0.821938 -0.244609
C25   C     C_R   0.716737 0.286540 0.667290 -0.333632
C26   C     C_R   0.684103 0.204872 0.637941 0.778262
C27   C     C_R   0.517072 0.284426 0.508946 0.627471
C28   C     C_R   0.550836 0.373291 0.531397 -0.116648
C29   C     C_R   0.649855 0.370146 0.615409 -0.013457
C30   C     C_R   0.489363 0.463191 0.476810 0.125456
C31   C     C_R   0.519719 0.543008 0.513848 0.076811
C32   C     C_R   0.615217 0.532990 0.600620 -0.210531
C33   C     C_R   0.680444 0.449433 0.648709 -0.093487
C34   C     C_R   0.740082 0.000130 0.500036 0.921612
C35   C     C_R   0.402633 0.478282 0.384604 -0.163812
C36   C     C_R   0.337841 0.562128 0.336114 -0.189305
C37   C     C_R   0.361008 0.637317 0.374328 0.142249
C38   C     C_R   0.454599 0.630816 0.461926 -0.017401
C39   C     C_R   0.293936 0.720962 0.323307 -0.246170
C40   C     C_R   0.322005 0.799346 0.357341 0.207094
C41   C     C_R   0.479849 0.714208 0.491849 0.023814
C42   C     C_3   0.040902 0.014893 0.392760 0.426241
C43   C     C_3   0.896627 0.012801 0.393731 0.351165
C44   C     C_3   0.066211 0.899651 0.580736 0.511579
C45   C     C_3   0.108736 0.089286 0.525637 -0.623470
C46   C     C_3   0.121793 0.000398 0.499589 -0.276729
Cu1   Cu    Cu3+1 0.465900 0.918260 0.475680 1.036931
Cu2   Cu    Cu3+1 0.534100 0.081740 0.524320 1.097461
H1    H     H_    0.500821 0.682185 0.761243 0.171589
H2    H     H_    0.542426 0.539155 0.801379 0.134853
H3    H     H_    0.754633 0.446137 0.714091 0.154798
H4    H     H_    0.793543 0.284089 0.730900 0.200720
H5    H     H_    0.385707 0.428821 0.344967 0.213308
H6    H     H_    0.221807 0.726546 0.256355 0.164894
H7    H     H_    0.861556 0.835236 0.562001 0.238568
H8    H     H_    0.147837 0.162701 0.468888 0.254264
N1    N     N_R   0.585360 0.204570 0.560800 -0.280748
N2    N     N_R   0.414550 0.795430 0.439160 -0.197570
O1    O     O_R   0.455060 0.022100 0.338110 -0.545727
O2    O     O_R   0.512640 0.160150 0.379180 -0.548748
O3    O     O_R   0.288900 0.930980 0.479450 -0.495995
O4    O     O_R   0.346480 0.069030 0.520520 -0.564306
O5    O     O_R   0.487360 0.839850 0.620820 -0.606360
O6    O     O_R   0.544940 0.977900 0.661890 -0.550803
O7    O     O_R   0.653520 0.930970 0.479480 -0.618591
O8    O     O_R   0.711100 0.069020 0.520550 -0.472532
F1    F     F_    0.052027 0.939953 0.362783 -0.606282
F2    F     F_    0.954427 0.079089 0.622708 -0.607356
H9    H     H_    0.121845 0.891726 0.657237 0.095307
H10   H     H_    0.907933 0.888140 0.656439 0.206856
H11   H     H_    0.512765 0.361868 0.847851 0.202718
H12   H     H_    0.577540 0.931345 0.853163 0.218013
H13   H     H_    0.593393 0.641843 0.161417 0.209525
F3    F     F_    0.478610 0.180336 0.959336 -0.607404
F4    F     F_    0.460884 0.049391 0.152743 -0.585571
H14   H     H_    0.487164 0.316290 0.235994 0.209206
H15   H     H_    0.078584 0.088905 0.336129 0.135533
H16   H     H_    0.566412 0.464513 0.208759 0.154933
F5    F     F_    0.603682 0.823247 0.046223 -0.620313
H17   H     H_    0.552803 0.717831 0.554987 0.118485
H18   H     H_    0.272394 0.864994 0.316690 0.180352
H19   H     H_    0.270564 0.569184 0.266433 0.163727
F6    F     F_    0.748856 0.124107 0.688981 -0.582030
F7    F     F_    0.410950 0.272127 0.441875 -0.680462
F8    F     F_    0.853337 0.100369 0.318666 -0.622564
H20   H     H_    0.643447 0.589343 0.632998 0.123754
H21   H     H_    0.837666 0.947775 0.376151 0.187504
F9    F     F_    0.078028 0.816653 0.563450 -0.588766
H22   H     H_    0.167286 0.082393 0.601097 0.228167
F10   F     F_    0.930675 0.182523 0.457579 -0.595504

loop_
_geom_bond_atom_site_label_1
_geom_bond_atom_site_label_2
_ccdc_geom_bond_type
C26   F6    S    
C35   H5    S    
C19   C20   A    
C34   O8    A    
C41   H17   S    
Cu2   N1    S    
C45   C46   S    
C7    C11   A    
C28   C29   A    
C30   C35   A    
C1    C5    S    
C36   C37   A    
C19   C21   A    
C41   N2    A    
C1    O1    A    
Cu1   O5    S    
C30   C31   A    
Cu2   O6    S    
C39   H6    S    
C15   C16   A    
C6    C22   A    
C29   C33   A    
C18   C19   A    
C42   C46   S    
C15   H2    S    
C20   C24   A    
C3    H7    S    
Cu1   Cu2   S    
C45   H8    S    
C36   H19   S    
C9    H14   S    
C13   C14   A    
C45   H22   S    
C9    C10   A    
C2    C34   S    
C23   O5    A    
C6    C24   A    
C21   C22   A    
C16   H11   S    
C34   O7    A    
C22   H12   S    
C44   C46   S    
Cu2   O2    S    
C7    F3    S    
C4    F10   S    
C4    C45   S    
C25   C29   A    
C3    C44   S    
C40   N2    A    
C43   F8    S    
C14   C20   A    
C7    C8    A    
C3    H10   S    
C38   C41   A    
C12   C46   S    
C27   N1    A    
C1    O2    A    
C39   C40   A    
C4    F2    S    
C25   C26   A    
C8    F4    S    
C35   C36   A    
C2    C4    S    
C5    C9    A    
C37   C38   A    
C12   O4    A    
C11   C16   A    
Cu2   O4    S    
C31   C32   A    
C2    C43   S    
C32   H20   S    
C21   F5    S    
C17   C18   A    
C44   H9    S    
C23   O6    A    
C18   H13   S    
C42   F1    S    
C42   C43   S    
C24   H1    S    
C27   F7    S    
C40   H18   S    
C10   C13   A    
Cu1   O3    S    
C5    C8    A    
C33   H3    S    
C31   C38   A    
C13   C17   A    
C43   H21   S    
C32   C33   A    
C28   C30   A    
C2    C3    S    
C25   H4    S    
C37   C39   A    
Cu1   N2    S    
C12   O3    A    
C6    C23   S    
C17   H16   S    
C26   N1    A    
C10   C11   A    
Cu1   O1    S    
C42   H15   S    
C27   C28   A    
C14   C15   A    
Cu2   O8    S    
C44   F9    S    
Cu1   O7    S    
