data_mof_unit_57315.cif
_audit_creation_date              2012-12-10T17:58:19-0500
_audit_creation_method            fapswitch 2.2
_symmetry_space_group_name_H-M    P1
_symmetry_Int_Tables_number       1
_space_group_crystal_system       triclinic
_cell_length_a                    9.578092
_cell_length_b                    10.844345
_cell_length_c                    15.614928
_cell_angle_alpha                 85.703666
_cell_angle_beta                  73.751202
_cell_angle_gamma                 90.313138
_cell_volume                      1552.14079443

loop_
_atom_site_label
_atom_site_type_symbol
_atom_type_description
_atom_site_fract_x
_atom_site_fract_y
_atom_site_fract_z
_atom_type_partial_charge
C1    C     C_R   0.003717 0.263147 0.491189 0.815399
C2    C     C_R   0.996866 0.736561 0.508340 0.814285
C3    C     C_R   0.597178 0.484299 0.099739 -0.155901
C4    C     C_R   0.470533 0.645783 0.920843 -0.217161
C5    C     C_R   0.743258 0.470627 0.053658 -0.215783
C6    C     C_R   0.332561 0.679375 0.967291 -0.213985
C7    C     C_R   0.874088 0.060804 0.496053 -0.092477
C8    C     C_R   0.125306 0.937562 0.506399 -0.068748
C9    C     C_R   0.864985 0.934425 0.523542 0.194737
C10   C     C_R   0.136995 0.062626 0.475664 0.214878
C11   C     C_R   0.994490 0.870696 0.517393 -0.181997
C12   C     C_R   0.006648 0.128141 0.482851 -0.209953
C13   C     C_R   0.550215 0.412453 0.551612 -0.025825
C14   C     C_R   0.449355 0.585632 0.446653 0.004203
C15   C     C_R   0.401190 0.411867 0.551522 0.315809
C16   C     C_R   0.597448 0.590450 0.449454 0.354210
C17   C     C_R   0.917484 0.503853 0.672383 0.818949
C18   C     C_R   0.082754 0.500201 0.327442 0.781626
C19   C     C_R   0.873663 0.512261 0.771517 -0.202239
C20   C     C_R   0.132071 0.518224 0.227880 -0.182881
C21   C     C_R   0.939577 0.490852 0.912354 0.217264
C22   C     C_R   0.118015 0.645571 0.094821 0.228299
C23   C     C_R   0.980070 0.520053 0.818883 -0.130239
C24   C     C_R   0.049693 0.586494 0.179623 -0.111634
C25   C     C_R   0.724985 0.510626 0.821472 0.174404
C26   C     C_R   0.273874 0.483968 0.181845 0.207599
C27   C     C_R   0.689446 0.527251 0.913955 -0.010598
C28   C     C_R   0.347227 0.547490 0.098230 0.009381
C29   C     C_R   0.791587 0.494188 0.960423 0.053812
C30   C     C_R   0.266475 0.626839 0.054345 0.053546
C31   C     C_R   0.551156 0.565915 0.962149 0.092330
C32   C     C_R   0.497302 0.530480 0.054523 0.077796
Cu1   Cu    Cu3+1 0.140660 0.500020 0.500000 0.982350
Cu2   Cu    Cu3+1 0.859340 0.499980 0.500000 0.981284
H1    H     H_    0.817703 0.440361 0.091215 0.191038
H2    H     H_    0.274765 0.740923 0.932144 0.191531
H3    H     H_    0.566852 0.467141 0.171621 0.202555
H4    H     H_    0.515535 0.685186 0.852796 0.153553
N1    N     N_R   0.352080 0.500030 0.499980 -0.218519
N2    N     N_R   0.647920 0.499970 0.500020 -0.234392
O1    O     O_R   0.118740 0.319660 0.500000 -0.572467
O2    O     O_R   0.881260 0.680340 0.500000 -0.554633
O3    O     O_R   0.881170 0.319630 0.500010 -0.562313
O4    O     O_R   0.118830 0.680370 0.499990 -0.580955
O5    O     O_R   0.055570 0.500030 0.629830 -0.546897
O6    O     O_R   0.944430 0.499970 0.370170 -0.594814
O7    O     O_R   0.818000 0.500000 0.629840 -0.565414
O8    O     O_R   0.182000 0.500000 0.370160 -0.590717
N3    N     N_2   0.330094 0.371302 0.210721 -0.439548
H5    H     H_    0.296191 0.344973 0.278056 0.264008
C33   C     C_3   0.321034 0.268479 0.158246 -0.720060
H6    H     H_    0.380406 0.189294 0.178762 0.231488
H7    H     H_    0.371747 0.293314 0.085813 0.238630
H8    H     H_    0.205421 0.239686 0.169177 0.224326
N4    N     N_2   0.613446 0.476149 0.782383 -0.397188
H9    H     H_    0.580781 0.543621 0.742590 0.260922
C34   C     C_3   0.502352 0.385765 0.832924 -0.647841
H10   H     H_    0.483048 0.316669 0.789075 0.231664
H11   H     H_    0.398111 0.431836 0.860730 0.222055
H12   H     H_    0.535461 0.334227 0.888018 0.226705
C35   C     C_1   0.893069 0.585210 0.210542 0.252567
N5    N     N_1   0.767315 0.582691 0.232356 -0.309325
C36   C     C_1   0.126388 0.567075 0.774745 0.264409
N6    N     N_1   0.242634 0.606742 0.740028 -0.298918
N7    N     N_2   0.046739 0.464454 0.958218 -0.436310
H13   H     H_    0.142078 0.515629 0.933188 0.268070
C37   C     C_3   0.074113 0.334220 0.970076 -0.727616
H14   H     H_    0.122462 0.297156 0.904054 0.227774
H15   H     H_    0.971770 0.281637 0.005325 0.240576
H16   H     H_    0.151641 0.321314 0.011002 0.232060
N8    N     N_2   0.037368 0.722935 0.048924 -0.438548
H17   H     H_    0.936417 0.687784 0.050501 0.274778
C38   C     C_3   0.033331 0.850574 0.070242 -0.701574
H18   H     H_    0.973141 0.857690 0.141671 0.231022
H19   H     H_    0.977256 0.905791 0.027662 0.230481
H20   H     H_    0.145511 0.889684 0.057099 0.235930
C39   C     C_1   0.753884 0.114905 0.468526 0.264281
N9    N     N_1   0.658282 0.156604 0.445308 -0.306710
C40   C     C_1   0.239949 0.884579 0.540117 0.306783
N10   N     N_1   0.329895 0.842450 0.568685 -0.306203
N11   N     N_2   0.726326 0.872589 0.561592 -0.385934
H21   H     H_    0.638305 0.916825 0.549272 0.267327
C41   C     C_3   0.696084 0.830138 0.655340 -0.619566
H22   H     H_    0.781340 0.767524 0.666994 0.209646
H23   H     H_    0.689553 0.910462 0.696379 0.217000
H24   H     H_    0.590332 0.777998 0.677312 0.224184
N12   N     N_2   0.278333 0.117023 0.430560 -0.424227
H25   H     H_    0.281914 0.208980 0.409398 0.273386
C42   C     C_3   0.364529 0.051264 0.357112 -0.679738
H26   H     H_    0.302713 0.038564 0.307727 0.223321
H27   H     H_    0.395665 0.960014 0.381065 0.246495
H28   H     H_    0.466739 0.104867 0.323083 0.234935
C43   C     C_1   0.599192 0.317862 0.605391 0.371134
N13   N     N_1   0.638478 0.240896 0.647978 -0.305999
C44   C     C_1   0.403331 0.662954 0.380866 0.368034
N14   N     N_1   0.366887 0.724594 0.327647 -0.324515
N15   N     N_2   0.306825 0.310439 0.595448 -0.372423
H29   H     H_    0.338624 0.227500 0.568773 0.261439
C45   C     C_3   0.261681 0.299964 0.692295 -0.670335
H30   H     H_    0.301604 0.212884 0.718213 0.201016
H31   H     H_    0.141148 0.297465 0.716421 0.246455
H32   H     H_    0.304587 0.378224 0.719735 0.227707
N16   N     N_2   0.696110 0.683234 0.394188 -0.399190
H33   H     H_    0.804945 0.668427 0.373979 0.308355
C46   C     C_3   0.656698 0.810906 0.383507 -0.691397
H34   H     H_    0.747514 0.872913 0.386131 0.229349
H35   H     H_    0.558579 0.832185 0.436615 0.237001
H36   H     H_    0.638613 0.830110 0.316695 0.237555

loop_
_geom_bond_atom_site_label_1
_geom_bond_atom_site_label_2
_ccdc_geom_bond_type
N12   H25   S    
C43   N13   T    
C27   C29   A    
Cu1   O5    S    
C38   H18   S    
C14   C44   S    
C44   N14   T    
Cu2   O2    S    
N4    H9    S    
N15   H29   S    
C39   N9    T    
C46   H35   S    
Cu1   N1    S    
C41   H22   S    
Cu2   N2    S    
C17   O5    A    
C34   H11   S    
C13   N2    A    
N15   C45   S    
C14   N1    A    
N12   C42   S    
C1    O3    A    
C20   C24   A    
C2    O4    A    
N7    C37   S    
C8    C40   S    
Cu2   O6    S    
C42   H27   S    
C18   C20   S    
C7    C39   S    
C21   N7    S    
C23   C36   S    
C38   H19   S    
C3    C32   A    
C1    C12   S    
C15   N15   S    
C2    C11   S    
C18   O6    A    
N11   C41   S    
N11   H21   S    
C5    C29   A    
C21   C23   A    
C7    C12   A    
C46   H36   S    
C10   N12   S    
C27   C31   A    
C37   H14   S    
C25   N4    S    
C28   C32   A    
C40   N10   T    
C4    C6    A    
C26   N3    S    
N8    C38   S    
C34   H12   S    
N3    C33   S    
C21   C29   A    
C33   H6    S    
C13   C43   S    
C33   H7    S    
C19   C23   A    
C16   N16   S    
C45   H30   S    
C45   H32   S    
Cu1   Cu2   S    
N16   C46   S    
C42   H28   S    
C9    C11   A    
C15   N1    A    
C10   C12   A    
C16   N2    A    
C24   C35   S    
C1    O1    A    
C41   H23   S    
C4    H4    S    
N3    H5    S    
N4    C34   S    
C38   H20   S    
C14   C16   A    
C22   N8    S    
C7    C9    A    
C22   C30   A    
C6    C30   A    
Cu1   O4    S    
C31   C32   A    
Cu2   O3    S    
C17   O7    A    
C3    C5    A    
C18   O8    A    
C25   C27   A    
C46   H34   S    
C26   C28   A    
C33   H8    S    
Cu1   O1    S    
C37   H16   S    
C13   C15   A    
N8    H17   S    
C34   H10   S    
C20   C26   A    
C2    O2    A    
C8    C11   A    
C5    H1    S    
C28   C30   A    
C17   C19   S    
C6    H2    S    
C22   C24   A    
C35   N5    T    
C19   C25   A    
C4    C31   A    
C36   N6    T    
C41   H24   S    
C3    H3    S    
C8    C10   A    
N7    H13   S    
N16   H33   S    
Cu1   O8    S    
Cu2   O7    S    
C37   H15   S    
C42   H26   S    
C45   H31   S    
C9    N11   S    
