data_mof_unit_17417.cif
_audit_creation_date              2012-12-11T17:43:29-0500
_audit_creation_method            fapswitch 2.2
_symmetry_space_group_name_H-M    P1
_symmetry_Int_Tables_number       1
_space_group_crystal_system       triclinic
_cell_length_a                    15.156044
_cell_length_b                    15.244128
_cell_length_c                    16.984889
_cell_angle_alpha                 108.286545
_cell_angle_beta                  106.65083
_cell_angle_gamma                 109.379868
_cell_volume                      3162.97804881

loop_
_atom_site_label
_atom_site_type_symbol
_atom_type_description
_atom_site_fract_x
_atom_site_fract_y
_atom_site_fract_z
_atom_type_partial_charge
C1    C     C_R   0.084037 0.290187 0.080850 0.156052
C2    C     C_R   0.085899 0.091314 0.026180 -0.197451
C3    C     C_R   0.002042 0.908449 0.981191 0.079450
C4    C     C_R   0.000279 0.099679 0.037143 0.080730
C5    C     C_R   0.088084 0.996816 0.997786 0.051223
C6    C     C_R   0.914387 0.011144 0.020712 0.052604
C7    C     C_R   0.721765 0.935436 0.958997 -0.258910
C8    C     C_R   0.280115 0.066574 0.052649 -0.274879
C9    C     C_R   0.640862 0.967092 0.061694 0.277263
C10   C     C_R   0.353504 0.026976 0.944878 0.281834
C11   C     C_R   0.497665 0.607138 0.295282 0.266370
C12   C     C_R   0.915520 0.714780 0.926846 0.168754
C13   C     C_R   0.505437 0.354937 0.657669 0.258293
C14   C     C_R   0.481890 0.593491 0.205908 -0.139231
C15   C     C_R   0.497168 0.353789 0.737571 -0.158042
C16   C     C_R   0.935241 0.519381 0.746959 -0.114461
C17   C     C_R   0.062729 0.536921 0.266013 -0.084292
C18   C     C_R   0.460133 0.497184 0.139028 0.101727
C19   C     C_R   0.490576 0.436293 0.797658 0.097286
C20   C     C_R   0.451485 0.414766 0.161795 -0.124289
C21   C     C_R   0.493570 0.519539 0.777464 -0.109035
C22   C     C_R   0.468009 0.429094 0.251048 -0.072810
C23   C     C_R   0.025729 0.580535 0.745903 0.073729
C24   C     C_R   0.501368 0.519979 0.697748 -0.067961
C25   C     C_R   0.491308 0.525289 0.317822 -0.106465
C26   C     C_R   0.507387 0.437751 0.637888 -0.112762
C27   C     C_R   0.558348 0.497794 0.048396 0.178369
C28   C     C_R   0.384093 0.428183 0.883602 0.169390
C29   C     C_R   0.561469 0.466459 0.963266 -0.055250
C30   C     C_R   0.379279 0.454052 0.968354 -0.063019
C31   C     C_R   0.477400 0.437513 0.881042 -0.048109
C32   C     C_R   0.465233 0.485573 0.050770 -0.054905
C33   C     C_R   0.632393 0.913273 0.973623 0.241069
C34   C     C_R   0.970391 0.519927 0.274445 0.051097
C35   C     C_R   0.367123 0.082194 0.034701 0.221778
C36   C     C_R   0.960436 0.560972 0.360001 0.116880
C37   C     C_R   0.032648 0.621655 0.679469 0.108560
C38   C     C_R   0.135418 0.690647 0.607225 -0.160457
C39   C     C_R   0.855527 0.546204 0.443656 -0.172124
C40   C     C_R   0.776580 0.204306 0.812249 -0.108781
C41   C     C_R   0.251075 0.797353 0.188374 -0.098125
C42   C     C_R   0.129771 0.677893 0.683370 -0.176990
C43   C     C_R   0.862504 0.525474 0.360710 -0.106856
C44   C     C_R   0.941431 0.592204 0.604217 -0.226335
C45   C     C_R   0.762529 0.201187 0.727012 0.062032
C46   C     C_R   0.050150 0.629071 0.443155 -0.236609
C47   C     C_R   0.946465 0.598033 0.525689 0.159522
C48   C     C_R   0.044366 0.643557 0.526007 0.171343
C49   C     C_R   0.698938 0.110153 0.639365 0.072140
C50   C     C_R   0.358034 0.889348 0.361851 0.077723
C51   C     C_R   0.415236 0.947683 0.524980 0.226555
C52   C     C_R   0.643975 0.049380 0.475837 0.245624
C53   C     C_R   0.335788 0.895534 0.436998 -0.200338
C54   C     C_R   0.722412 0.107520 0.565254 -0.199774
C55   C     C_R   0.458530 0.943500 0.373645 -0.152641
C56   C     C_R   0.284043 0.801463 0.274785 0.064615
C57   C     C_R   0.599618 0.048126 0.625214 -0.168477
C58   C     C_R   0.540470 0.996694 0.461594 0.082879
C59   C     C_R   0.518489 0.995689 0.537628 0.088350
C60   C     C_R   0.737958 0.046869 0.132269 -0.151590
C61   C     C_R   0.253673 0.952231 0.875741 -0.187895
C62   C     C_R   0.827422 0.068388 0.117408 -0.169034
C63   C     C_R   0.166906 0.936126 0.894216 -0.175492
C64   C     C_R   0.264916 0.539583 0.955724 -0.078128
C65   C     C_R   0.702308 0.416347 0.003136 -0.085168
C66   C     C_R   0.820279 0.010141 0.031410 0.059631
C67   C     C_R   0.292245 0.466899 0.973986 0.109324
C68   C     C_R   0.179304 0.995630 0.982198 0.076125
C69   C     C_R   0.785346 0.300250 0.735802 -0.082470
C70   C     C_R   0.247302 0.701305 0.264863 -0.118202
C71   C     C_R   0.247850 0.436853 0.026566 -0.110780
C72   C     C_R   0.715271 0.519885 0.933996 -0.085981
C73   C     C_R   0.107645 0.603405 0.824182 -0.101789
C74   C     C_R   0.889500 0.455374 0.187026 -0.089248
C75   C     C_R   0.913236 0.202652 0.996161 -0.160970
C76   C     C_R   0.087203 0.800779 0.012122 -0.155133
C77   C     C_R   0.997235 0.196187 0.046714 0.021803
C78   C     C_R   0.654191 0.464624 0.963612 0.092459
C79   C     C_R   0.003057 0.810322 0.966629 0.012496
C80   C     C_R   0.917906 0.917242 0.994573 -0.189263
H1    H     H_    0.715246 0.890021 0.892173 0.182992
H2    H     H_    0.503073 0.584215 0.682564 0.165344
H3    H     H_    0.125812 0.661968 0.444046 0.126391
H4    H     H_    0.865814 0.552913 0.601290 0.135567
H5    H     H_    0.791355 0.476014 0.297867 0.154096
H6    H     H_    0.201762 0.705326 0.741867 0.156787
H7    H     H_    0.211025 0.727042 0.608776 0.173717
H8    H     H_    0.779770 0.512430 0.442703 0.147055
H9    H     H_    0.856592 0.498634 0.703555 0.126039
H10   H     H_    0.139592 0.576244 0.321107 0.104789
H11   H     H_    0.584203 0.053069 0.684388 0.171363
H12   H     H_    0.290694 0.112744 0.120970 0.176756
H13   H     H_    0.472539 0.935327 0.313374 0.177314
H14   H     H_    0.800192 0.157342 0.577637 0.161310
H15   H     H_    0.256809 0.852072 0.426127 0.150809
H16   H     H_    0.744931 0.089061 0.200062 0.191396
H17   H     H_    0.242852 0.909427 0.806556 0.177915
H18   H     H_    0.902590 0.125542 0.174338 0.160508
H19   H     H_    0.089944 0.881708 0.838799 0.157119
H20   H     H_    0.759346 0.138815 0.827623 0.118657
H21   H     H_    0.275096 0.861242 0.171408 0.122571
H22   H     H_    0.291172 0.582573 0.920032 0.139197
H23   H     H_    0.504705 0.536262 0.387119 0.148799
H24   H     H_    0.669829 0.359691 0.025763 0.139219
H25   H     H_    0.776763 0.323785 0.681474 0.128121
H26   H     H_    0.272610 0.677662 0.317188 0.132411
H27   H     H_    0.254629 0.382889 0.053521 0.133830
H28   H     H_    0.697725 0.561424 0.896256 0.146550
H29   H     H_    0.187739 0.660799 0.852425 0.114406
H30   H     H_    0.807274 0.424047 0.167468 0.123880
H31   H     H_    0.832290 0.147170 0.966374 0.134367
H32   H     H_    0.168062 0.857460 0.045494 0.132213
H33   H     H_    0.855008 0.850618 0.987877 0.159881
H34   H     H_    0.513497 0.438367 0.576093 0.150231
H35   H     H_    0.149611 0.157860 0.033712 0.148749
H36   H     H_    0.491436 0.658489 0.189911 0.161415
H37   H     H_    0.494738 0.288988 0.752134 0.163692
H38   H     H_    0.435051 0.340508 0.110660 0.153633
H39   H     H_    0.488882 0.583583 0.823514 0.164559
H40   H     H_    0.462758 0.365690 0.268515 0.165929
I1    I     I_    0.211933 0.354162 0.208899 -0.483032
I2    I     I_    0.688542 0.055838 0.369284 -0.336382
I3    I     I_    0.512297 0.923657 0.093643 -0.349085
I4    I     I_    0.478917 0.060024 0.908272 -0.343869
I5    I     I_    0.784084 0.664407 0.804644 -0.518668
I6    I     I_    0.539521 0.752505 0.399232 -0.409107
I7    I     I_    0.512278 0.231901 0.564352 -0.428001
I8    I     I_    0.698206 0.579961 0.176757 -0.417081
I9    I     I_    0.248570 0.368753 0.758160 -0.366710
I10   I     I_    0.489023 0.792922 0.861426 -0.405200
I11   I     I_    0.515870 0.193059 0.145134 -0.405434
I12   I     I_    0.370362 0.945682 0.632334 -0.385755
N1    N     N_R   0.055660 0.348550 0.045620 -0.059807
N2    N     N_R   0.185200 0.638170 0.176300 -0.042147
N3    N     N_R   0.201680 0.494570 0.045620 -0.044709
N4    N     N_R   0.798320 0.505430 0.954380 -0.044698
N5    N     N_R   0.068420 0.560530 0.871650 -0.044367
N6    N     N_R   0.931580 0.439470 0.128350 -0.047047
N7    N     N_R   0.948070 0.295860 0.997670 -0.054134
N8    N     N_R   0.051930 0.704140 0.002330 -0.054517
N9    N     N_R   0.944340 0.651450 0.954380 -0.057955
N10   N     N_R   0.960830 0.507850 0.823700 -0.044846
N11   N     N_R   0.039170 0.492150 0.176300 -0.038300
N12   N     N_R   0.811290 0.303410 0.871650 -0.046835
N13   N     N_R   0.188710 0.696590 0.128350 -0.046811
N14   N     N_R   0.205200 0.552990 0.997670 -0.052771
N15   N     N_R   0.794800 0.447010 0.002330 -0.049097
N16   N     N_R   0.814800 0.361830 0.823700 -0.046813
Ni1   Ni    Ni4+2 0.119340 0.493420 0.109960 0.256730
Ni2   Ni    Ni4+2 0.880660 0.506580 0.890040 0.243439
Ni3   Ni    Ni4+2 0.872590 0.372590 0.000000 0.241237
Ni4   Ni    Ni4+2 0.127410 0.627410 0.000000 0.237629

loop_
_geom_bond_atom_site_label_1
_geom_bond_atom_site_label_2
_ccdc_geom_bond_type
C33   I10   S    
N5    N10   A    
C71   H27   S    
C27   C29   A    
C1    C77   A    
C14   C18   A    
C16   N10   A    
C76   C79   A    
N12   N16   A    
C19   C31   S    
C20   H38   S    
C22   H40   S    
C74   N6    A    
C18   C32   S    
C19   C21   A    
N16   Ni2   S    
C38   C42   A    
N12   Ni3   S    
C10   I4    S    
N6    N11   A    
C71   N3    A    
C11   C14   A    
C57   C59   A    
C53   H15   S    
C11   C25   A    
C49   C54   A    
C12   C79   A    
C49   C57   A    
C12   N9    A    
C60   C62   A    
C28   I9    S    
C64   H22   S    
C37   C42   A    
C61   C63   A    
C24   H2    S    
C63   H19   S    
C15   C19   A    
C52   I2    S    
C29   C78   S    
C72   H28   S    
C22   C25   A    
N11   Ni1   S    
C72   C78   A    
N5    Ni4   S    
C36   C46   A    
C10   C35   A    
C42   H6    S    
C65   N15   A    
N8    Ni4   S    
C18   C20   A    
C30   C67   S    
C44   C47   A    
C55   H13   S    
C3    C79   S    
C16   H9    S    
C62   H18   S    
N4    N15   A    
C9    C33   A    
C7    C33   A    
C39   H8    S    
C23   C73   A    
C5    C68   S    
C1    N1    A    
C3    C80   A    
C52   C54   A    
N9    Ni2   S    
C76   N8    A    
C40   C45   A    
C46   C48   A    
C50   C53   A    
C62   C66   A    
C45   C69   A    
C43   H5    S    
C64   C67   A    
C11   I6    S    
N1    Ni1   S    
N8    N9    A    
C4    C6    A    
C70   H26   S    
C69   H25   S    
C25   H23   S    
C39   C43   A    
C12   I5    S    
C3    C5    A    
C58   C59   A    
N3    Ni1   S    
N2    Ni1   S    
C50   C56   S    
C15   H37   S    
C51   C53   A    
C8    C35   A    
C13   I7    S    
C2    C4    A    
C26   H34   S    
C41   C56   A    
C74   H30   S    
C2    H35   S    
C6    C80   A    
C47   C48   A    
C13   C15   A    
C45   C49   S    
C76   H32   S    
N3    N14   A    
C73   H29   S    
C75   C77   A    
C27   I8    S    
C52   C58   A    
C34   C74   A    
C8    H12   S    
C60   H16   S    
C7    H1    S    
C20   C22   A    
N1    N7    A    
C16   C23   A    
C56   C70   A    
C40   N12   A    
N14   Ni4   S    
C13   C26   A    
C21   C24   A    
C2    C5    A    
C51   C59   A    
C17   C34   A    
C35   I11   S    
C39   C47   A    
N2    N13   A    
C63   C68   A    
C65   C78   A    
C57   H11   S    
C64   N14   A    
C27   C32   A    
C38   C48   A    
C28   C31   A    
C61   H17   S    
C17   H10   S    
C24   C26   A    
C44   H4    S    
C40   H20   S    
N4    Ni2   S    
C51   I12   S    
C8    C68   A    
N6    Ni3   S    
C75   H31   S    
C50   C55   A    
C38   H7    S    
C17   N11   A    
C9    C60   A    
N10   Ni2   S    
C37   C44   A    
C28   C30   A    
C4    C77   S    
C29   C31   A    
C23   C37   S    
C7    C66   A    
C30   C32   A    
C73   N5    A    
C14   H36   S    
N15   Ni3   S    
N7    Ni3   S    
C9    I3    S    
C34   C36   S    
C41   H21   S    
C67   C71   A    
C1    I1    S    
C54   H14   S    
N13   Ni4   S    
C72   N4    A    
C46   H3    S    
C10   C61   A    
C6    C66   S    
C41   N13   A    
C80   H33   S    
C21   H39   S    
C55   C58   A    
C70   N2    A    
C69   N16   A    
C36   C43   A    
C75   N7    A    
C65   H24   S    
