data_mof_unit_16296.cif
_audit_creation_date              2012-12-11T20:55:25-0500
_audit_creation_method            fapswitch 2.2
_symmetry_space_group_name_H-M    P1
_symmetry_Int_Tables_number       1
_space_group_crystal_system       triclinic
_cell_length_a                    8.311108
_cell_length_b                    19.129892
_cell_length_c                    22.83538
_cell_angle_alpha                 99.603029
_cell_angle_beta                  90.190106
_cell_angle_gamma                 91.828841
_cell_volume                      3577.77477297

loop_
_atom_site_label
_atom_site_type_symbol
_atom_type_description
_atom_site_fract_x
_atom_site_fract_y
_atom_site_fract_z
_atom_type_partial_charge
Ba1   Ba    Ba6+2 0.157290 0.533910 0.474710 1.707831
Ba2   Ba    Ba6+2 0.652900 0.466090 0.525240 1.745166
C1    C     C_3   0.362203 0.702877 0.257778 -0.251696
C2    C     C_R   0.988853 0.269634 0.477435 0.028655
C3    C     C_R   0.137547 0.188293 0.550606 -0.183959
C4    C     C_3   0.894649 0.720746 0.314792 0.676668
C5    C     C_R   0.210833 0.251865 0.539976 0.028574
C6    C     C_R   0.669998 0.812209 0.450568 -0.128036
C7    C     C_R   0.605800 0.744682 0.454437 -0.005649
C8    C     C_R   0.852431 0.801172 0.530521 -0.156514
C9    C     C_R   0.820461 0.727019 0.520100 0.057495
C10   C     C_R   0.014351 0.153571 0.512201 0.003186
C11   C     C_R   0.130188 0.293681 0.506645 -0.202817
C12   C     C_3   0.392110 0.682865 0.318517 0.316233
C13   C     C_R   0.787309 0.845749 0.492200 -0.001879
C14   C     C_R   0.690568 0.700216 0.484300 -0.242719
C15   C     C_R   0.219230 0.033587 0.547781 -0.080452
C16   C     C_3   0.971331 0.794183 0.338260 0.271626
C17   C     C_R   0.311403 0.980255 0.563706 -0.077149
C18   C     C_R   0.266589 0.910464 0.543609 -0.059869
C19   C     C_R   0.123137 0.895061 0.512407 -0.067405
C20   C     C_R   0.006823 0.946615 0.511526 0.025017
C21   C     C_R   0.060463 0.019972 0.524323 0.041361
C22   C     C_R   0.844038 0.924822 0.495720 0.025660
C23   C     C_3   0.486425 0.684284 0.615774 0.333203
C24   C     C_R   0.738531 0.980189 0.487178 0.061822
C25   C     C_R   0.792754 0.053432 0.499070 0.013430
C26   C     C_R   0.956339 0.075207 0.513270 -0.003929
C27   C     C_R   0.576585 0.966269 0.467820 -0.029017
C28   C     C_3   0.820941 0.377496 0.343170 0.292927
C29   C     C_R   0.481644 0.019181 0.452927 -0.048647
C30   C     C_R   0.528045 0.089118 0.471717 -0.064665
C31   C     C_R   0.675831 0.104969 0.500150 -0.084529
C32   C     C_R   0.639392 0.527496 0.336098 -0.307257
C33   C     C_R   0.372653 0.564012 0.947521 -0.091251
C34   C     C_3   0.499855 0.764597 0.632379 -0.306291
C35   C     C_R   0.321132 0.560161 0.887853 0.630952
C36   C     C_R   0.243042 0.437124 0.882001 0.584386
C37   C     C_R   0.293517 0.438718 0.941290 -0.005494
C38   C     C_R   0.359231 0.502362 0.974069 -0.103946
C39   C     C_R   0.436827 0.627668 0.981531 0.420480
C40   C     C_3   0.809287 0.358937 0.275842 -0.347201
C41   C     C_R   0.491616 0.628200 0.039643 -0.108869
C42   C     C_R   0.478683 0.567228 0.066336 -0.082755
C43   C     C_R   0.411930 0.504196 0.033655 -0.054230
C44   C     C_R   0.281274 0.377849 0.968360 -0.068189
C45   C     C_3   0.880215 0.284922 0.649409 0.324847
C46   C     C_R   0.333784 0.379790 0.026786 -0.070848
C47   C     C_R   0.399560 0.442751 0.060157 -0.010043
C48   C     C_R   0.453423 0.445569 0.119376 0.592015
C49   C     C_R   0.530434 0.568534 0.125342 0.602861
C50   C     C_2   0.062843 0.477702 0.774009 -0.077707
C51   C     C_3   0.016040 0.485146 0.711062 -0.066184
C52   C     C_3   0.001959 0.634952 0.660371 0.349508
C53   C     C_1   0.299569 0.516368 0.695429 -0.016053
C54   C     C_2   0.340060 0.514768 0.751199 -0.118712
C55   C     C_2   0.216144 0.494464 0.793742 0.203353
C56   C     C_3   0.877254 0.212982 0.669517 -0.369899
C57   C     C_R   0.707524 0.544857 0.236435 -0.058793
C58   C     C_R   0.745630 0.553675 0.297046 -0.035538
C59   C     C_R   0.498998 0.489444 0.314905 0.024651
C60   C     C_R   0.456002 0.484222 0.254661 -0.108748
C61   C     C_R   0.559096 0.512648 0.214611 0.184794
C62   C     C_2   0.164585 0.484949 0.672669 0.069262
C63   C     C_3   0.014561 0.660709 0.727409 0.626989
C64   C     C_3   0.320483 0.315331 0.389849 0.305615
C65   C     C_3   0.330036 0.235295 0.372246 -0.356307
C66   C     C_3   0.330342 0.734624 0.977315 0.282247
C67   C     C_3   0.389475 0.297669 0.677580 0.296769
C68   C     C_3   0.337038 0.797544 0.944437 -0.203932
C69   C     C_3   0.447023 0.282075 0.737145 -0.370993
C70   C     C_R   0.944705 0.196588 0.472991 -0.139333
Cl1   Cl    Cl    0.117610 0.745039 0.743273 -0.578271
Cl2   Cl    Cl    0.819044 0.666804 0.759460 -0.593006
Cl3   Cl    Cl    0.814050 0.719589 0.242090 -0.621682
Cl4   Cl    Cl    0.841068 0.865141 0.332151 -0.660007
Cl5   Cl    Cl    0.168650 0.431742 0.603504 -0.724428
H1    H     H_    0.326904 0.631713 0.320513 0.083445
H2    H     H_    0.239973 0.723141 0.254375 0.144771
H3    H     H_    0.258090 0.216817 0.331199 0.136165
H4    H     H_    0.281976 0.208433 0.408266 0.051007
H5    H     H_    0.457304 0.220610 0.364261 0.134483
H6    H     H_    0.523503 0.675840 0.323305 -0.015154
H7    H     H_    0.371335 0.655168 0.223367 0.113175
H8    H     H_    0.606966 0.664284 0.602653 0.000495
H9    H     H_    0.401813 0.671052 0.577518 0.046774
H10   H     H_    0.587499 0.779844 0.669485 0.172154
H11   H     H_    0.541481 0.788106 0.593604 0.019179
H12   H     H_    0.718970 0.314959 0.262931 0.144684
H13   H     H_    0.380517 0.785915 0.646122 0.155394
H14   H     H_    0.451609 0.744309 0.249301 0.182370
H15   H     H_    0.081638 0.803080 0.313005 0.102695
H16   H     H_    0.778060 0.285590 0.618075 0.096217
H17   H     H_    0.994996 0.292421 0.626522 0.011230
H18   H     H_    0.876135 0.169964 0.630392 0.073085
H19   H     H_    0.985210 0.208469 0.697267 0.124660
H20   H     H_    0.767314 0.206390 0.695790 0.147147
H21   H     H_    0.260238 0.280915 0.671874 -0.004116
H22   H     H_    0.403174 0.355867 0.678356 0.082651
H23   H     H_    0.772356 0.405425 0.256652 0.064968
H24   H     H_    0.372006 0.310054 0.773146 0.138826
H25   H     H_    0.574206 0.300760 0.745255 0.153505
H26   H     H_    0.796724 0.710168 0.345518 -0.125851
H27   H     H_    0.437202 0.224166 0.737759 0.124131
H28   H     H_    0.852977 0.175175 0.440753 0.090472
H29   H     H_    0.173898 0.169036 0.590197 0.067142
H30   H     H_    0.624369 0.837100 0.415283 0.141249
H31   H     H_    0.934195 0.822610 0.566426 0.088739
H32   H     H_    0.180369 0.345013 0.501768 0.106282
H33   H     H_    0.649063 0.645738 0.482666 0.058035
H34   H     H_    0.928194 0.342382 0.257324 0.131940
H35   H     H_    0.284526 0.082582 0.551226 0.071878
H36   H     H_    0.428493 0.993025 0.584424 0.079402
H37   H     H_    0.348009 0.868960 0.548927 0.095442
H38   H     H_    0.100735 0.842209 0.489605 0.129781
H39   H     H_    0.513015 0.917024 0.467428 0.053726
H40   H     H_    0.362094 0.006146 0.434476 0.092658
H41   H     H_    0.444321 0.130116 0.467690 0.096563
H42   H     H_    0.701342 0.157742 0.522987 0.124596
H43   H     H_    0.322363 0.331658 0.045801 0.127443
H44   H     H_    0.231515 0.328225 0.944300 0.124730
H45   H     H_    0.124301 0.626204 0.642490 -0.052831
H46   H     H_    0.544099 0.677198 0.063878 0.152436
H47   H     H_    0.794317 0.562218 0.206229 0.143978
H48   H     H_    0.463098 0.527653 0.766280 0.137854
H49   H     H_    0.970119 0.465884 0.804611 0.113434
H50   H     H_    0.343477 0.457426 0.239046 0.127331
H51   H     H_    0.672474 0.531901 0.382462 0.076229
H52   H     H_    0.006035 0.796993 0.385592 0.010787
H53   H     H_    0.700949 0.392104 0.360975 0.009068
H54   H     H_    0.907791 0.423017 0.354953 0.065418
H55   H     H_    0.343981 0.754976 0.025740 0.031199
H56   H     H_    0.928830 0.584724 0.651306 -0.023823
H57   H     H_    0.210013 0.707244 0.968510 0.059874
H58   H     H_    0.454592 0.826832 0.952941 0.128208
H59   H     H_    0.321994 0.778861 0.895934 0.190926
H60   H     H_    0.238903 0.833997 0.959979 0.068430
H61   H     H_    0.083871 0.623297 0.748756 -0.049965
H62   H     H_    0.193138 0.328880 0.397119 -0.004567
H63   H     H_    0.392893 0.331869 0.431091 0.067778
N1    N     N_R   0.259326 0.497156 0.855795 -0.433831
N2    N     N_R   0.514122 0.508657 0.152185 -0.428486
O1    O     O_2   0.108070 0.674980 0.540650 -0.464370
O2    O     O_2   0.683518 0.443191 0.697349 -0.484942
O3    O     O_3   0.868298 0.338110 0.699293 -0.597915
O4    O     O_3   0.861930 0.586170 0.535430 -0.481981
O5    O     O_3   0.451480 0.461630 0.428900 -0.489295
O6    O     O_2   0.599240 0.538720 0.642170 -0.444049
O7    O     O_3   0.430120 0.655486 0.664835 -0.587568
O8    O     O_2   0.535705 0.248969 0.517819 -0.518041
O9    O     O_3   0.481878 0.260065 0.632144 -0.610292
O10   O     O_2   0.329988 0.613008 0.864314 -0.514505
O11   O     O_2   0.186189 0.382108 0.853461 -0.599376
O12   O     O_3   0.379968 0.347716 0.343606 -0.625466
O13   O     O_2   0.448419 0.391521 0.141359 -0.592536
O14   O     O_2   0.588970 0.623604 0.152997 -0.551420
O15   O     O_3   0.366390 0.628250 0.433820 -0.478547
O16   O     O_2   0.281100 0.753772 0.477779 -0.504021
O17   O     O_3   0.927785 0.686508 0.634344 -0.601781
O18   O     O_3   0.335533 0.736129 0.362892 -0.592199
O19   O     O_2   0.211060 0.461230 0.357810 -0.462583
O20   O     O_3   0.958150 0.591500 0.402390 -0.473867
O21   O     O_2   0.072742 0.537193 0.297627 -0.489272
O22   O     O_3   0.455869 0.688858 0.957103 -0.584570
O23   O     O_3   0.016810 0.670943 0.310706 -0.621498
O24   O     O_2   0.702240 0.324970 0.459330 -0.462440
O25   O     O_3   0.948380 0.413820 0.464520 -0.465728
O26   O     O_3   0.443920 0.371740 0.566130 -0.401102
O27   O     O_3   0.872787 0.318029 0.365220 -0.632075
O28   O     O_3   0.358830 0.538360 0.571050 -0.425931
O29   O     O_3   0.852160 0.408490 0.597560 -0.426667
P1    P     P_3+3 0.933470 0.664380 0.557030 1.017596
P2    P     P_3+3 0.383600 0.440030 0.365120 0.995263
P3    P     P_3+3 0.944500 0.588830 0.325722 0.967580
P4    P     P_3+3 0.876840 0.335610 0.442930 0.996800
P5    P     P_3+3 0.853433 0.420469 0.676081 1.046898
P6    P     P_3+3 0.398733 0.717370 0.431459 0.942388
P7    P     P_3+3 0.419757 0.562943 0.645565 1.053792
P8    P     P_3+3 0.415670 0.281400 0.564864 0.953421

loop_
_geom_bond_atom_site_label_1
_geom_bond_atom_site_label_2
_ccdc_geom_bond_type
C32   C58   A    
C53   C54   D    
C45   O3    S    
O4    P1    S    
C58   P3    S    
C62   Cl5   S    
C8    H31   S    
C17   C18   A    
C69   H27   S    
C1    H2    S    
C14   H33   S    
C4    Cl3   S    
C46   H43   S    
C52   C63   S    
C25   C31   A    
Ba1   P2    S    
O24   P4    D    
C15   C21   A    
C35   N1    Am   
O28   P7    S    
C23   O7    S    
C33   C35   A    
O16   P6    D    
C22   C24   A    
O1    P1    D    
C8    C13   A    
C36   C37   A    
C51   C62   S    
C17   H36   S    
Ba2   O6    S    
C28   H54   S    
Ba1   O28   S    
C65   H5    S    
C63   Cl1   S    
C54   C55   S    
C1    H14   S    
Ba1   Ba2   S    
C2    C11   A    
C67   C69   S    
C56   H19   S    
C29   H40   S    
C11   H32   S    
C15   C17   A    
C52   O17   S    
C61   N2    S    
C64   H62   S    
C6    C7    A    
C2    P4    S    
C16   Cl4   S    
C44   H44   S    
O7    P7    S    
Ba2   O24   S    
C19   H38   S    
Ba2   O29   S    
C67   H21   S    
C64   C65   S    
C52   H45   S    
C4    O23   S    
Ba1   O19   S    
C9    P1    S    
C10   C70   A    
C19   C20   A    
C68   H59   S    
C39   C41   A    
Ba1   O4    S    
C56   H20   S    
C12   H6    S    
C3    H29   S    
C66   O22   S    
C34   H10   S    
C45   H16   S    
C38   C43   A    
C4    C16   S    
C44   C46   A    
C49   O14   D    
O17   P1    S    
C67   O9    S    
C59   P2    S    
C3    C10   A    
C8    C9    A    
C37   C38   A    
C3    C5    A    
C50   H49   S    
O23   P3    S    
C28   H53   S    
C52   H56   S    
C32   C59   A    
C34   H11   S    
C63   Cl2   S    
C12   O18   S    
C66   H55   S    
C64   O12   S    
C56   H18   S    
C28   O27   S    
C60   C61   A    
Ba1   O1    S    
C40   H23   S    
Ba2   P4    S    
O19   P2    D    
C9    C14   A    
O9    P8    S    
C29   C30   A    
O3    P5    S    
C43   C47   A    
C48   O13   D    
C53   C62   D    
O2    P5    D    
C23   H8    S    
O27   P4    S    
C5    P8    S    
C57   C58   A    
O15   P6    S    
C4    H26   S    
C70   H28   S    
C1    C12   S    
C24   C27   A    
C37   C44   A    
C63   H61   S    
C67   H22   S    
C42   C49   A    
C66   C68   S    
C46   C47   A    
C69   H25   S    
Ba2   O28   S    
Ba1   O20   S    
C65   H4    S    
C6    C13   A    
C41   C42   A    
C24   C25   A    
C68   H58   S    
C36   N1    Am   
C20   C22   A    
Ba1   O5    S    
C21   C26   A    
C35   O10   D    
C15   H35   S    
C6    H30   S    
Ba2   O26   S    
C2    C70   A    
C7    P6    S    
C42   C43   A    
O25   P4    S    
C49   N2    Am   
C34   H13   S    
C57   H47   S    
C13   C22   S    
O6    P7    D    
O12   P2    S    
C41   H46   S    
C7    C14   A    
C40   H34   S    
C65   H3    S    
C30   H41   S    
C27   H39   S    
O5    P2    S    
C32   H51   S    
C31   H42   S    
O20   P3    S    
Ba2   O4    S    
O26   P8    S    
O29   P5    S    
Ba1   P1    S    
C57   C61   A    
C55   N1    S    
C40   H12   S    
C16   H15   S    
C30   C31   A    
C66   H57   S    
C33   C38   A    
Ba2   O5    S    
C27   C29   A    
C45   C56   S    
C18   H37   S    
C60   H50   S    
Ba1   O15   S    
C23   H9    S    
C53   P7    S    
C45   H17   S    
C12   H1    S    
C69   H24   S    
C59   C60   A    
C33   C39   A    
O18   P6    S    
C50   C55   D    
C23   C34   S    
C5    C11   A    
C64   H63   S    
C18   C19   A    
C10   C26   S    
C68   H60   S    
C54   H48   S    
C47   C48   A    
C39   O22   S    
C1    H7    S    
Ba1   O25   S    
C20   C21   A    
C28   C40   S    
C16   H52   S    
C36   O11   D    
O21   P3    D    
Ba2   O25   S    
C48   N2    Am   
C51   P5    S    
C50   C51   S    
O8    P8    D    
C25   C26   A    
