data_mof_unit_13651.cif
_audit_creation_date              2012-12-10T19:05:49-0500
_audit_creation_method            fapswitch 2.2
_symmetry_space_group_name_H-M    P1
_symmetry_Int_Tables_number       1
_space_group_crystal_system       triclinic
_cell_length_a                    19.313474
_cell_length_b                    10.966274
_cell_length_c                    9.629093
_cell_angle_alpha                 90.626485
_cell_angle_beta                  90.015009
_cell_angle_gamma                 94.415109
_cell_volume                      2033.23676713

loop_
_atom_site_label
_atom_site_type_symbol
_atom_type_description
_atom_site_fract_x
_atom_site_fract_y
_atom_site_fract_z
_atom_type_partial_charge
C1    C     C_R   0.497546 0.262264 0.498230 0.756182
C2    C     C_R   0.290657 0.517269 0.500785 -0.272904
C3    C     C_R   0.927421 0.466973 0.507375 0.467956
C4    C     C_R   0.067879 0.479185 0.516384 0.419183
C5    C     C_R   0.814243 0.456056 0.631628 0.144979
C6    C     C_R   0.740808 0.443886 0.630403 0.209077
C7    C     C_R   0.705153 0.453451 0.502911 -0.326686
C8    C     C_R   0.741529 0.431262 0.379025 0.372945
C9    C     C_R   0.814071 0.443300 0.377826 0.356936
C10   C     C_R   0.850965 0.459797 0.504744 -0.203503
C11   C     C_R   0.504335 0.066078 0.616288 -0.121409
C12   C     C_R   0.367496 0.507018 0.500017 0.807742
C13   C     C_R   0.497905 0.128710 0.492768 -0.121878
C14   C     C_R   0.498004 0.059262 0.366759 0.253227
C15   C     C_R   0.498844 0.931748 0.372531 -0.225992
C16   C     C_R   0.504408 0.871086 0.499621 -0.153836
C17   C     C_R   0.514053 0.942838 0.620158 -0.020152
C18   C     C_3   0.484204 0.934807 0.764504 0.645502
C19   C     C_3   0.464189 0.067105 0.749509 -0.016885
C20   C     C_R   0.559806 0.531212 0.072078 -0.002371
C21   C     C_R   0.445775 0.444320 0.073123 0.417722
C22   C     C_R   0.444811 0.447120 0.924266 0.287339
C23   C     C_R   0.500923 0.737480 0.500671 0.790733
C24   C     C_R   0.558518 0.534768 0.926658 0.129901
C25   C     C_3   0.603475 0.650557 0.919307 0.132109
C26   C     C_3   0.614172 0.639012 0.077312 0.400384
C27   C     C_R   0.631089 0.484104 0.500262 0.854317
C28   C     C_R   0.255721 0.547692 0.624792 0.340579
C29   C     C_R   0.183553 0.525851 0.635417 0.413516
C30   C     C_R   0.144210 0.488841 0.516256 -0.154131
C31   C     C_R   0.178019 0.474357 0.389604 -0.278040
C32   C     C_R   0.250277 0.492238 0.379692 0.215837
Cu1   Cu    Cu3+1 0.500000 0.499980 0.640670 0.978062
Cu2   Cu    Cu3+1 0.500000 0.500020 0.359330 0.942918
H1    H     H_    0.491292 0.879838 0.276862 0.198771
H2    H     H_    0.487181 0.134618 0.826882 0.136028
H3    H     H_    0.573003 0.725908 0.885101 0.183846
H4    H     H_    0.147740 0.454933 0.296010 0.179860
N1    N     N_R   0.031788 0.386501 0.446888 -0.226971
N2    N     N_R   0.962703 0.380072 0.443161 -0.217712
N3    N     N_R   0.963561 0.560165 0.575506 -0.215934
N4    N     N_R   0.032557 0.566409 0.579670 -0.212983
N5    N     N_R   0.500440 0.500930 0.147930 -0.254376
N6    N     N_R   0.500440 0.500890 0.852020 -0.251535
O1    O     O_R   0.500000 0.319640 0.618810 -0.600081
O2    O     O_R   0.500010 0.319680 0.381230 -0.608105
O3    O     O_R   0.400140 0.499970 0.618830 -0.551901
O4    O     O_R   0.400150 0.500010 0.381250 -0.535937
O5    O     O_R   0.499990 0.680320 0.618770 -0.551371
O6    O     O_R   0.500000 0.680360 0.381190 -0.591836
O7    O     O_R   0.599850 0.499990 0.618750 -0.489978
O8    O     O_R   0.599860 0.500030 0.381170 -0.575883
O9    O     O_3   0.290003 0.602930 0.736849 -0.701384
H5    H     H_    0.330628 0.653252 0.701239 0.329205
N7    N     N_2   0.427226 0.841120 0.779224 -0.388366
H6    H     H_    0.385614 0.846568 0.713122 0.239664
C33   C     C_3   0.410840 0.800584 0.919080 -0.577809
H7    H     H_    0.358319 0.752351 0.921458 0.213222
H8    H     H_    0.411935 0.879373 0.992828 0.229312
H9    H     H_    0.449018 0.736638 0.953595 0.236586
O10   O     O_3   0.536228 0.924925 0.865030 -0.788538
H10   H     H_    0.575804 0.985641 0.845273 0.288945
N8    N     N_2   0.390437 0.076606 0.722958 -0.431451
H11   H     H_    0.379749 0.141995 0.651523 0.254131
C34   C     C_3   0.345470 0.075520 0.843409 -0.688888
H12   H     H_    0.297948 0.121913 0.818691 0.220865
H13   H     H_    0.372173 0.122151 0.933851 0.237427
H14   H     H_    0.327780 0.980667 0.870916 0.253716
O11   O     O_3   0.393170 0.376182 0.138213 -0.745977
H15   H     H_    0.411608 0.344857 0.224398 0.366161
N9    N     N_2   0.390080 0.382594 0.848363 -0.383167
H16   H     H_    0.404132 0.311398 0.787647 0.269234
C35   C     C_3   0.318610 0.377382 0.894624 -0.521776
H17   H     H_    0.283812 0.357734 0.804193 0.211067
H18   H     H_    0.306503 0.465612 0.941606 0.270744
H19   H     H_    0.307747 0.302514 0.969671 0.223459
O12   O     O_3   0.663407 0.637977 0.840676 -0.720565
H20   H     H_    0.683520 0.722215 0.822468 0.314344
N10   N     N_2   0.681931 0.598253 0.115320 -0.355063
H21   H     H_    0.695768 0.523661 0.058583 0.299831
C36   C     C_3   0.739715 0.688809 0.136363 -0.619318
H22   H     H_    0.787867 0.642178 0.154457 0.242121
H23   H     H_    0.730979 0.745443 0.229887 0.225745
H24   H     H_    0.747857 0.747192 0.043578 0.212933
O13   O     O_3   0.153773 0.543713 0.763761 -0.683437
H25   H     H_    0.108858 0.494054 0.768683 0.326237
N11   N     N_2   0.594287 0.741375 0.161542 -0.410462
H26   H     H_    0.602924 0.727447 0.265328 0.293698
C37   C     C_3   0.619726 0.863978 0.121523 -0.717693
H27   H     H_    0.653828 0.907678 0.203890 0.214117
H28   H     H_    0.574972 0.919348 0.109242 0.288693
H29   H     H_    0.649292 0.865725 0.022762 0.233355
N12   N     N_2   0.281128 0.495593 0.245897 -0.356848
H30   H     H_    0.254469 0.440623 0.173006 0.258744
C38   C     C_3   0.297941 0.618490 0.195992 -0.570928
H31   H     H_    0.332014 0.615144 0.103984 0.219935
H32   H     H_    0.326521 0.676313 0.276014 0.217267
H33   H     H_    0.249729 0.661274 0.167023 0.212414
N13   N     N_2   0.851805 0.455792 0.759113 -0.408987
H34   H     H_    0.837190 0.383339 0.822779 0.264535
C39   C     C_3   0.858674 0.572316 0.832101 -0.609582
H35   H     H_    0.893364 0.565692 0.923221 0.237581
H36   H     H_    0.807464 0.598469 0.869153 0.224684
H37   H     H_    0.881490 0.645410 0.763400 0.246707
N14   N     N_2   0.702982 0.411640 0.753849 -0.339515
H38   H     H_    0.726993 0.436951 0.846060 0.278378
C40   C     C_3   0.673146 0.286440 0.756722 -0.656057
H39   H     H_    0.715042 0.222533 0.760098 0.205418
H40   H     H_    0.640059 0.264911 0.664014 0.226525
H41   H     H_    0.640180 0.272812 0.850642 0.218369
O14   O     O_3   0.708186 0.390049 0.259068 -0.689861
H42   H     H_    0.664526 0.342498 0.285038 0.320542
O15   O     O_3   0.846551 0.436121 0.250410 -0.687399
H43   H     H_    0.893616 0.478304 0.256185 0.320516
N15   N     N_2   0.489141 0.111323 0.233980 -0.429147
H44   H     H_    0.444946 0.156151 0.219409 0.257138
C41   C     C_3   0.551066 0.158895 0.161646 -0.662034
H45   H     H_    0.552624 0.259940 0.155493 0.240060
H46   H     H_    0.549937 0.122310 0.053940 0.222777
H47   H     H_    0.599122 0.133044 0.213729 0.224588

loop_
_geom_bond_atom_site_label_1
_geom_bond_atom_site_label_2
_ccdc_geom_bond_type
C8    C9    A    
N7    H6    S    
N8    C34   S    
N12   H30   S    
Cu1   O1    S    
C35   H17   S    
C38   H31   S    
C12   O4    A    
C2    C12   S    
C20   N5    A    
C36   H22   S    
C38   H33   S    
C7    C8    A    
O12   H20   S    
N14   C40   S    
C11   C19   S    
C39   H35   S    
C4    N4    A    
C25   O12   S    
C28   C29   A    
C19   H2    S    
C41   H46   S    
O13   H25   S    
C30   C31   A    
C1    O2    A    
C33   H8    S    
Cu1   O5    S    
C14   N15   S    
C7    C27   S    
C2    C32   A    
C18   C19   S    
N3    N4    A    
C25   H3    S    
C21   N5    A    
C22   N6    A    
C5    N13   S    
C19   N8    S    
C26   N11   S    
N15   C41   S    
C40   H39   S    
Cu2   O2    S    
C37   H28   S    
C9    C10   A    
C29   O13   S    
C32   N12   S    
N12   C38   S    
C21   C22   A    
C35   H18   S    
O10   H10   S    
C12   O3    A    
C15   H1    S    
C36   H23   S    
C27   O7    A    
C17   C18   S    
C40   H40   S    
Cu2   O6    S    
C15   C16   A    
C20   C24   A    
C24   C25   S    
C41   H47   S    
N1    N2    A    
N10   C36   S    
C16   C17   A    
C33   H9    S    
C34   H13   S    
C25   C26   S    
O9    H5    S    
N10   H21   S    
C21   O11   S    
C29   C30   A    
N13   H34   S    
C4    N1    A    
C34   H14   S    
Cu1   Cu2   S    
C37   H29   S    
C18   N7    S    
N13   C39   S    
C3    N2    A    
C16   C23   S    
N11   C37   S    
Cu1   O3    S    
C40   H41   S    
C8    O14   S    
C1    C13   S    
C22   N9    S    
C36   H24   S    
C27   O8    A    
N9    C35   S    
O15   H43   S    
C3    N3    A    
O14   H42   S    
Cu1   N6    S    
C31   C32   A    
Cu2   N5    S    
C23   O6    A    
C11   C17   A    
C28   O9    S    
C38   H32   S    
C18   O10   S    
C6    C7    A    
Cu1   O7    S    
N14   H38   S    
Cu2   O8    S    
C26   N10   S    
C31   H4    S    
C9    O15   S    
N7    C33   S    
N9    H16   S    
C3    C10   S    
C41   H45   S    
C11   C13   A    
C1    O1    A    
C33   H7    S    
C5    C6    A    
C20   C26   S    
C24   N6    A    
C35   H19   S    
C6    N14   S    
O11   H15   S    
C23   O5    A    
N8    H11   S    
C5    C10   A    
Cu2   O4    S    
N11   H26   S    
C39   H36   S    
C34   H12   S    
C14   C15   A    
C2    C28   A    
C39   H37   S    
C37   H27   S    
C13   C14   A    
C4    C30   S    
N15   H44   S    
