data_mof_unit_34146.cif
_audit_creation_date              2012-10-26T21:13:36-0400
_audit_creation_method            fapswitch 2.2
_symmetry_space_group_name_H-M    P1
_symmetry_Int_Tables_number       1
_space_group_crystal_system       triclinic
_cell_length_a                    9.042629
_cell_length_b                    10.826016
_cell_length_c                    9.634238
_cell_angle_alpha                 90.120732
_cell_angle_beta                  89.915629
_cell_angle_gamma                 92.817081
_cell_volume                      942.007210255

loop_
_atom_site_label
_atom_site_type_symbol
_atom_type_description
_atom_site_fract_x
_atom_site_fract_y
_atom_site_fract_z
_atom_type_partial_charge
C1    C     C_R   0.492524 0.262804 0.499736 0.519466
C2    C     C_R   0.618334 0.551606 0.926044 0.134954
C3    C     C_3   0.688043 0.678732 0.909803 0.135227
C4    C     C_R   0.220926 0.498138 0.499958 0.536378
C5    C     C_3   0.668066 0.694377 0.068733 0.176602
C6    C     C_R   0.498842 0.737465 0.500628 0.582832
C7    C     C_R   0.778646 0.496092 0.499716 0.625267
C8    C     C_1   0.065466 0.495274 0.499558 -0.018782
C9    C     C_1   0.934037 0.494180 0.499042 0.033944
C10   C     C_R   0.553338 0.068582 0.606213 0.036208
C11   C     C_R   0.480353 0.129120 0.501121 0.025924
C12   C     C_R   0.396597 0.928591 0.408425 -0.147706
C13   C     C_R   0.392098 0.058238 0.405501 -0.033695
C14   C     C_3   0.295740 0.117523 0.299689 -0.377165
C15   C     C_3   0.547716 0.787659 0.096463 -0.370283
C16   C     C_3   0.718698 0.146436 0.802868 -0.356538
C17   C     C_3   0.819336 0.146832 0.553387 -0.378605
C18   C     C_3   0.265672 0.361801 0.861739 -0.323880
C19   C     C_R   0.487667 0.870556 0.503756 -0.022541
C20   C     C_R   0.555839 0.941508 0.608985 -0.019714
C21   C     C_3   0.712597 0.946390 0.660101 -0.200733
C22   C     C_3   0.709340 0.086774 0.658054 -0.017336
C23   C     C_R   0.613627 0.558734 0.072365 0.168506
C24   C     C_R   0.396070 0.433569 0.076176 0.015286
C25   C     C_R   0.393646 0.433564 0.928266 0.092838
Cu1   Cu    Cu3+1 0.499990 0.499980 0.640670 0.989626
Cu2   Cu    Cu3+1 0.500010 0.500020 0.359330 1.006257
H1    H     H_    0.615830 0.735937 0.846491 0.097670
H2    H     H_    0.434661 0.745783 0.078585 0.138684
H3    H     H_    0.555709 0.825299 0.202512 0.175241
H4    H     H_    0.564208 0.869261 0.027351 0.102559
H5    H     H_    0.701695 0.247099 0.795895 0.177866
H6    H     H_    0.633406 0.104023 0.873712 0.128739
H7    H     H_    0.829669 0.133631 0.848370 0.152037
H8    H     H_    0.804576 0.104971 0.448531 0.135705
H9    H     H_    0.802649 0.247116 0.545722 0.131868
H10   H     H_    0.934646 0.134109 0.588169 0.136391
H11   H     H_    0.179945 0.425700 0.830406 0.203830
H12   H     H_    0.332550 0.873098 0.334033 0.147017
H13   H     H_    0.300756 0.305550 0.773424 0.166241
H14   H     H_    0.211457 0.295347 0.935903 0.078967
H15   H     H_    0.968502 0.732042 0.640057 0.356894
H16   H     H_    0.723146 0.909079 0.766255 0.173171
H17   H     H_    0.790058 0.908959 0.583198 0.166881
H18   H     H_    0.310343 0.382900 0.134081 0.128971
H19   H     H_    0.224148 0.184276 0.351467 0.130033
H20   H     H_    0.365909 0.165963 0.220273 0.147793
H21   H     H_    0.222532 0.047738 0.245253 0.154288
H22   H     H_    0.775599 0.827850 0.359305 0.326133
N1    N     N_R   0.500920 0.500930 0.147930 -0.265939
N2    N     N_R   0.500930 0.500890 0.852020 -0.257513
O1    O     O_R   0.500000 0.319640 0.618810 -0.534691
O2    O     O_2   0.898884 0.855241 0.131205 -0.282259
O3    O     O_3   0.790797 0.739279 0.341632 -0.505192
O4    O     O_2   0.979812 0.770471 0.899288 -0.220546
O5    O     O_2   0.933278 0.549194 0.855685 -0.285881
O6    O     O_3   0.865490 0.707770 0.667434 -0.551059
O7    O     O_R   0.500020 0.319680 0.381230 -0.520779
O8    O     O_R   0.288380 0.499980 0.618770 -0.509891
O9    O     O_R   0.288400 0.500020 0.381190 -0.495899
O10   O     O_R   0.499980 0.680320 0.618770 -0.482285
O11   O     O_R   0.500000 0.680360 0.381190 -0.483549
O12   O     O_R   0.711600 0.499980 0.618810 -0.438968
O13   O     O_R   0.711620 0.500020 0.381230 -0.438473
O14   O     O_2   0.944410 0.634153 0.153292 -0.199466
S1    S     S_3+6 0.832090 0.730653 0.172317 0.062953
S2    S     S_3+6 0.873495 0.675200 0.837080 0.040119

loop_
_geom_bond_atom_site_label_1
_geom_bond_atom_site_label_2
_ccdc_geom_bond_type
C8    C9    T    
O4    S2    D    
Cu1   O12   S    
C25   N2    A    
C15   H4    S    
C14   H20   S    
O3    S1    S    
C17   H9    S    
Cu1   O1    S    
C16   H6    S    
C16   H5    S    
O5    S2    D    
C4    O8    A    
Cu1   O8    S    
C19   C20   A    
C5    C23   S    
Cu2   N1    S    
C4    C8    S    
C7    O12   A    
C4    O9    A    
C12   H12   S    
C2    C3    S    
C18   H11   S    
C14   H19   S    
C17   H10   S    
Cu1   N2    S    
C10   C22   S    
O2    S1    D    
C11   C13   A    
C6    O11   A    
Cu1   Cu2   S    
C18   C25   S    
O6    S2    S    
C24   H18   S    
H15   O6    S    
C21   C22   S    
C3    H1    S    
Cu2   O11   S    
Cu1   O10   S    
C6    C19   S    
C15   H2    S    
Cu2   O9    S    
C24   N1    A    
C1    O1    A    
C3    S2    S    
C7    O13   A    
C5    C15   S    
C10   C11   A    
H22   O3    S    
C21   H17   S    
C24   C25   A    
C6    O10   A    
C15   H3    S    
O14   S1    D    
Cu2   O13   S    
C18   H14   S    
C2    C23   A    
C7    C9    S    
C14   H21   S    
C18   H13   S    
C5    S1    S    
C23   N1    A    
C16   C22   S    
C1    C11   S    
C17   H8    S    
C12   C19   A    
C16   H7    S    
C20   C21   S    
C1    O7    A    
C12   C13   A    
C21   H16   S    
C17   C22   S    
C10   C20   A    
C13   C14   S    
C3    C5    S    
Cu2   O7    S    
C2    N2    A    
