data_mof_unit_31764.cif
_audit_creation_date              2012-12-10T17:45:27-0500
_audit_creation_method            fapswitch 2.2
_symmetry_space_group_name_H-M    P1
_symmetry_Int_Tables_number       1
_space_group_crystal_system       triclinic
_cell_length_a                    11.463225
_cell_length_b                    10.709752
_cell_length_c                    10.030024
_cell_angle_alpha                 92.105029
_cell_angle_beta                  91.179873
_cell_angle_gamma                 90.487063
_cell_volume                      1230.22429495

loop_
_atom_site_label
_atom_site_type_symbol
_atom_type_description
_atom_site_fract_x
_atom_site_fract_y
_atom_site_fract_z
_atom_type_partial_charge
C1    C     C_R   0.507739 0.261506 0.497259 0.860363
C2    C     C_R   0.488751 0.876194 0.511607 -0.145203
C3    C     C_R   0.285828 0.490427 0.122264 0.248317
C4    C     C_R   0.282478 0.499920 0.499046 0.878555
C5    C     C_R   0.202654 0.402392 0.076172 0.457404
C6    C     C_R   0.218727 0.341398 0.953410 -0.470902
C7    C     C_R   0.314816 0.371826 0.872662 0.542934
C8    C     C_R   0.403535 0.455666 0.927300 -0.036503
C9    C     C_R   0.397615 0.485343 0.066676 -0.126097
C10   C     C_R   0.600319 0.517309 0.073983 0.500270
C11   C     C_R   0.597993 0.527605 0.931263 0.157408
C12   C     C_R   0.689507 0.090380 0.801581 0.116413
C13   C     C_R   0.495901 0.740704 0.503417 0.852202
C14   C     C_R   0.717534 0.500038 0.501200 0.874077
C15   C     C_1   0.161812 0.499558 0.497974 -0.226054
C16   C     C_1   0.059371 0.499330 0.499632 0.000494
C17   C     C_1   0.940634 0.499312 0.502482 -0.014274
C18   C     C_1   0.838173 0.499597 0.503426 -0.198998
C19   C     C_R   0.660759 0.133570 0.676149 -0.288751
C20   C     C_3   0.238440 0.241157 0.695907 -0.310517
C21   C     C_3   0.761170 0.671964 0.900066 -0.671933
C22   C     C_3   0.879022 0.180169 0.857580 -0.870481
C23   C     C_R   0.632108 0.981987 0.845608 0.421892
C24   C     C_3   0.733817 0.963748 0.050006 -0.317210
C25   C     C_3   0.369635 0.888378 0.815549 -0.286092
C26   C     C_3   0.432180 0.866986 0.168949 -0.593145
C27   C     C_3   0.770212 0.427151 0.138832 -0.257511
C28   C     C_3   0.181019 0.678462 0.076184 -0.858607
C29   C     C_3   0.094316 0.283720 0.209650 -0.358264
C30   C     C_R   0.557561 0.913040 0.754433 0.451563
C31   C     C_R   0.545558 0.948031 0.618457 -0.136904
C32   C     C_R   0.579269 0.069539 0.592084 -0.000168
C33   C     C_R   0.520268 0.129548 0.489958 -0.087518
C34   C     C_R   0.453031 0.064205 0.394360 -0.236080
C35   C     C_R   0.441221 0.937013 0.399963 0.176190
H1    H     H_    0.406537 0.112512 0.316560 0.162765
H2    H     H_    0.782275 0.721438 0.808188 0.217205
H3    H     H_    0.719098 0.255753 0.906058 0.218082
H4    H     H_    0.889254 0.230938 0.763804 0.242276
H5    H     H_    0.918517 0.086103 0.846194 0.245097
H6    H     H_    0.926580 0.232851 0.939427 0.256771
H7    H     H_    0.809830 0.941574 0.986277 0.165173
H8    H     H_    0.733977 0.895624 0.130701 0.185640
H9    H     H_    0.743037 0.057401 0.100395 0.202800
H10   H     H_    0.333232 0.909370 0.715337 0.149808
H11   H     H_    0.373959 0.975005 0.880417 0.165491
H12   H     H_    0.151824 0.275027 0.920374 0.177431
H13   H     H_    0.307437 0.823520 0.859667 0.168151
H14   H     H_    0.330203 0.794861 0.321438 0.244231
H15   H     H_    0.377972 0.813556 0.094434 0.242785
H16   H     H_    0.517522 0.819419 0.178325 0.271716
H17   H     H_    0.445574 0.962218 0.131677 0.249786
H18   H     H_    0.814752 0.415313 0.042489 0.156353
H19   H     H_    0.717110 0.342535 0.159432 0.141495
H20   H     H_    0.840164 0.435288 0.216660 0.218343
H21   H     H_    0.191938 0.598557 0.255600 0.265430
H22   H     H_    0.169977 0.775928 0.115088 0.241332
H23   H     H_    0.696387 0.222784 0.648357 0.168923
H24   H     H_    0.092944 0.637054 0.055381 0.269274
H25   H     H_    0.228841 0.679030 0.981424 0.240161
H26   H     H_    0.011729 0.280187 0.265164 0.186090
H27   H     H_    0.167605 0.281650 0.284244 0.167218
H28   H     H_    0.096248 0.199495 0.141414 0.163039
H29   H     H_    0.160473 0.302101 0.690925 0.161471
H30   H     H_    0.219875 0.153997 0.748715 0.145294
H31   H     H_    0.259775 0.213022 0.591755 0.170130
H32   H     H_    0.755326 0.481152 0.842833 0.213768
H33   H     H_    0.843345 0.653492 0.956291 0.226084
H34   H     H_    0.704887 0.732218 0.962447 0.277118
N1    N     N_R   0.498930 0.498800 0.142780 -0.143169
N2    N     N_R   0.498900 0.498720 0.857170 -0.106967
N3    N     N_2   0.701916 0.555917 0.863813 -0.254926
N4    N     N_2   0.757010 0.169704 0.890270 -0.295659
N5    N     N_2   0.374742 0.874111 0.296163 -0.338606
N6    N     N_2   0.243960 0.607133 0.174032 -0.270979
O1    O     O_R   0.500000 0.316780 0.614690 -0.542332
O2    O     O_3   0.625807 0.953383 0.979840 -0.615381
O3    O     O_3   0.479681 0.830267 0.807968 -0.548857
O4    O     O_3   0.704060 0.537907 0.143776 -0.582906
O5    O     O_3   0.096371 0.394426 0.137943 -0.608758
O6    O     O_R   0.499990 0.316750 0.385360 -0.642903
O7    O     O_R   0.334450 0.500030 0.614670 -0.561304
O8    O     O_R   0.334440 0.500000 0.385330 -0.635806
O9    O     O_R   0.500010 0.683250 0.614640 -0.545578
O10   O     O_R   0.500000 0.683220 0.385310 -0.602082
O11   O     O_R   0.665560 0.500000 0.614670 -0.620600
O12   O     O_R   0.665550 0.499970 0.385330 -0.553309
O13   O     O_3   0.336141 0.304603 0.755142 -0.543265
Zn1   Zn    Zn3+2 0.500010 0.500020 0.653130 1.019499
Zn2   Zn    Zn3+2 0.499990 0.499980 0.346870 0.970285

loop_
_geom_bond_atom_site_label_1
_geom_bond_atom_site_label_2
_ccdc_geom_bond_type
C2    C35   A    
C29   H28   S    
C35   N5    S    
C24   H7    S    
C14   C18   S    
C27   H19   S    
C1    C33   S    
C7    C8    A    
C28   H22   S    
C29   O5    S    
C13   O9    A    
O7    Zn1   S    
C20   H31   S    
C14   O12   A    
C34   C35   A    
C27   O4    S    
C26   H15   S    
C5    C6    A    
C27   H20   S    
C22   H6    S    
C1    O6    A    
C15   C16   T    
H32   N3    S    
C2    C13   S    
C7    O13   S    
C8    C9    A    
N2    Zn1   S    
C3    N6    S    
C34   H1    S    
O1    Zn1   S    
H21   N6    S    
C12   N4    S    
N1    Zn2   S    
C19   C32   A    
C33   C34   A    
C28   H25   S    
C19   H23   S    
C29   H26   S    
C6    H12   S    
C21   N3    S    
C25   O3    S    
C23   C30   A    
C20   H30   S    
C9    N1    A    
C14   O11   A    
C11   N3    S    
C16   C17   S    
C21   H34   S    
C2    C31   A    
C20   H29   S    
C3    C9    A    
C26   H17   S    
C31   C32   A    
C12   C23   A    
O10   Zn2   S    
C22   H5    S    
C17   C18   T    
C21   H2    S    
C23   O2    S    
C5    O5    S    
C25   H13   S    
O6    Zn2   S    
C10   N1    A    
C21   H33   S    
C24   H9    S    
O9    Zn1   S    
C25   H10   S    
C28   H24   S    
O8    Zn2   S    
C29   H27   S    
C8    N2    A    
C1    O1    A    
C3    C5    A    
O11   Zn1   S    
C10   O4    S    
C27   H18   S    
C6    C7    A    
C32   C33   A    
C4    C15   S    
C26   H16   S    
C30   C31   A    
C4    O8    A    
C22   H4    S    
C20   O13   S    
C12   C19   A    
C26   N5    S    
C11   N2    A    
C10   C11   A    
C30   O3    S    
C24   O2    S    
C4    O7    A    
O12   Zn2   S    
C13   O10   A    
C24   H8    S    
H14   N5    S    
C22   N4    S    
C28   N6    S    
C25   H11   S    
H3    N4    S    
