data_mof_unit_51724.cif
_audit_creation_date              2012-10-26T20:16:41-0400
_audit_creation_method            fapswitch 2.2
_symmetry_space_group_name_H-M    P1
_symmetry_Int_Tables_number       1
_space_group_crystal_system       triclinic
_cell_length_a                    10.961317
_cell_length_b                    10.923507
_cell_length_c                    9.950324
_cell_angle_alpha                 99.274749
_cell_angle_beta                  98.832248
_cell_angle_gamma                 95.553326
_cell_volume                      1152.83838449

loop_
_atom_site_label
_atom_site_type_symbol
_atom_type_description
_atom_site_fract_x
_atom_site_fract_y
_atom_site_fract_z
_atom_type_partial_charge
C1    C     C_R   0.498221 0.261927 0.498861 0.532668
C2    C     C_R   0.770423 0.945210 0.756194 -0.090271
C3    C     C_R   0.370235 0.063647 0.256405 0.061486
C4    C     C_R   0.640499 0.933523 0.742256 0.051453
C5    C     C_R   0.429443 0.078499 0.144057 -0.071539
C6    C     C_R   0.583257 0.911379 0.854131 -0.067547
C7    C     C_R   0.358520 0.077934 0.015151 -0.155387
C8    C     C_R   0.655750 0.905088 0.980425 -0.118513
C9    C     C_R   0.228760 0.066518 0.998792 -0.121575
C10   C     C_R   0.785452 0.918831 0.994758 -0.091563
C11   C     C_R   0.445895 0.910265 0.387037 -0.147980
C12   C     C_R   0.504215 0.737999 0.501350 0.534445
C13   C     C_R   0.562037 0.089671 0.613618 -0.168581
C14   C     C_R   0.506705 0.872300 0.503791 -0.008143
C15   C     C_R   0.499631 0.127619 0.496958 -0.011990
C16   C     C_R   0.261677 0.494497 0.498274 0.531387
C17   C     C_R   0.738111 0.501656 0.501252 0.529893
C18   C     C_R   0.566632 0.963382 0.618254 -0.036539
C19   C     C_R   0.441744 0.036048 0.382214 -0.034662
C20   C     C_2   0.492122 0.525553 0.076786 0.356134
C21   C     C_2   0.477282 0.497196 0.918269 0.364349
C22   C     C_R   0.154205 0.466479 0.030425 -0.097779
C23   C     C_R   0.872419 0.499845 0.503995 -0.016536
C24   C     C_R   0.852801 0.506824 0.968587 -0.136935
C25   C     C_R   0.135702 0.503066 0.165742 -0.079149
C26   C     C_R   0.866129 0.474847 0.830713 -0.094444
C27   C     C_R   0.065957 0.421730 0.229587 0.046660
C28   C     C_R   0.935319 0.558347 0.769071 0.071641
C29   C     C_R   0.008815 0.303664 0.151661 0.298432
C30   C     C_R   0.997611 0.672153 0.850010 0.299912
C31   C     C_R   0.022600 0.272291 0.013161 -0.089733
C32   C     C_R   0.982209 0.703347 0.988478 -0.106797
C33   C     C_R   0.097169 0.351557 0.953918 -0.157323
C34   C     C_R   0.126459 0.488565 0.493544 -0.023134
C35   C     C_R   0.911614 0.620553 0.047294 -0.174338
C36   C     C_R   0.912870 0.473602 0.377093 -0.135738
C37   C     C_R   0.084661 0.505707 0.619475 -0.128189
C38   C     C_3   0.372078 0.302755 0.825457 -0.122020
C39   C     C_3   0.665104 0.659240 0.187278 -0.100379
C40   C     C_3   0.981965 0.186039 0.322133 -0.129677
C41   C     C_3   0.191913 0.774451 0.854034 -0.132515
C42   C     C_R   0.961181 0.518722 0.627798 -0.003655
C43   C     C_R   0.037805 0.466573 0.369171 -0.027687
C44   C     C_R   0.169857 0.050854 0.110722 -0.117329
C45   C     C_R   0.842475 0.936986 0.881911 -0.094294
C46   C     C_R   0.240257 0.048343 0.239005 -0.108501
Cu1   Cu    Cu3+1 0.521120 0.521140 0.639640 0.979853
Cu2   Cu    Cu3+1 0.478880 0.478860 0.360360 0.972067
H1    H     H_    0.106099 0.326045 0.846544 0.117795
H2    H     H_    0.411497 0.358680 0.099293 0.191194
H3    H     H_    0.207844 0.530273 0.983085 0.146440
H4    H     H_    0.800353 0.441290 0.015406 0.114413
H5    H     H_    0.173728 0.596307 0.220088 0.128686
H6    H     H_    0.824640 0.383923 0.772627 0.118429
H7    H     H_    0.974357 0.186032 0.950567 0.113430
H8    H     H_    0.025784 0.791210 0.051617 0.094689
H9    H     H_    0.846241 0.454158 0.281781 0.146717
H10   H     H_    0.149386 0.510625 0.714177 0.156092
H11   H     H_    0.173834 0.065760 0.898437 0.108131
H12   H     H_    0.907342 0.643167 0.156088 0.096778
H13   H     H_    0.841624 0.915100 0.093072 0.101085
H14   H     H_    0.069717 0.037014 0.097592 0.120477
H15   H     H_    0.942536 0.946803 0.891792 0.132028
H16   H     H_    0.193902 0.029586 0.323454 0.083307
H17   H     H_    0.815767 0.964059 0.671012 0.102386
H18   H     H_    0.467140 0.275068 0.851101 0.099362
H19   H     H_    0.332744 0.261284 0.716365 0.148846
H20   H     H_    0.309738 0.262230 0.887652 0.107351
H21   H     H_    0.705527 0.569580 0.178146 0.102301
H22   H     H_    0.686613 0.706255 0.297021 0.155089
H23   H     H_    0.529839 0.085808 0.155369 0.121163
H24   H     H_    0.712456 0.720663 0.128502 0.093123
H25   H     H_    0.936886 0.223986 0.409709 0.138939
H26   H     H_    0.084344 0.214029 0.351170 0.109548
H27   H     H_    0.964645 0.082643 0.307665 0.112979
H28   H     H_    0.236262 0.687491 0.841795 0.136946
H29   H     H_    0.204391 0.814311 0.965644 0.123721
H30   H     H_    0.243330 0.841301 0.803515 0.144242
H31   H     H_    0.482976 0.901364 0.843944 0.102692
H32   H     H_    0.404197 0.084652 0.927512 0.085615
H33   H     H_    0.611245 0.890907 0.067415 0.131298
H34   H     H_    0.398710 0.841284 0.298723 0.157167
H35   H     H_    0.609596 0.158791 0.701496 0.125627
H36   H     H_    0.630214 0.609570 0.905552 0.196252
N1    N     N_2   0.447120 0.447110 0.150550 -0.329248
N2    N     N_2   0.552880 0.552890 0.849450 -0.324900
O1    O     O_R   0.517830 0.337490 0.617920 -0.509481
O2    O     O_3   0.535908 0.647307 0.140207 -0.565425
O3    O     O_3   0.925909 0.224407 0.200517 -0.585157
O4    O     O_3   0.065675 0.755073 0.789322 -0.587187
O5    O     O_R   0.482170 0.662510 0.382080 -0.459551
O6    O     O_R   0.482150 0.301790 0.382070 -0.492247
O7    O     O_R   0.517850 0.698210 0.617930 -0.493870
O8    O     O_R   0.337480 0.517860 0.617920 -0.452201
O9    O     O_R   0.662520 0.482140 0.382080 -0.518513
O10   O     O_R   0.301810 0.482160 0.382070 -0.504540
O11   O     O_R   0.698190 0.517840 0.617930 -0.499940
O12   O     O_3   0.366494 0.432254 0.844927 -0.572022

loop_
_geom_bond_atom_site_label_1
_geom_bond_atom_site_label_2
_ccdc_geom_bond_type
C24   H4    S    
C1    O1    A    
Cu2   O9    S    
C27   C29   A    
C34   C37   A    
C14   C18   A    
C12   O5    A    
C38   O12   S    
C2    H17   S    
C29   O3    S    
C15   C19   A    
C11   C19   A    
C17   C23   S    
C23   C42   A    
C13   C18   A    
C24   C26   A    
C41   H29   S    
C11   C14   A    
C33   H1    S    
C40   H25   S    
C22   C25   A    
C37   C42   A    
H2    N1    S    
C16   C34   S    
C39   H22   S    
C38   H18   S    
Cu2   O5    S    
C39   H24   S    
C31   C33   A    
C3    C19   S    
C17   O9    A    
C40   O3    S    
C37   H10   S    
C30   O4    S    
C4    C18   S    
C41   O4    S    
C2    C45   A    
C39   O2    S    
C26   H6    S    
C7    H32   S    
C44   C46   A    
C11   H34   S    
C39   H21   S    
C16   O10   A    
C24   C35   A    
C8    H33   S    
C32   C35   A    
C4    C6    A    
C36   H9    S    
C41   H30   S    
C5    C7    A    
C6    C8    A    
C44   H14   S    
C45   H15   S    
C46   H16   S    
C35   H12   S    
C9    H11   S    
Cu1   O1    S    
C2    C4    A    
Cu1   N2    S    
Cu1   Cu2   S    
C20   N1    D    
C10   C45   A    
Cu1   O7    S    
C38   H19   S    
C1    C15   S    
C8    C10   A    
C38   H20   S    
C1    O6    A    
C13   C15   A    
C12   O7    A    
C10   H13   S    
C7    C9    A    
C22   C33   A    
C21   N2    D    
C9    C44   A    
Cu2   O10   S    
C16   O8    A    
C34   C43   A    
C25   H5    S    
C3    C5    A    
C25   C27   A    
C13   H35   S    
C3    C46   A    
C26   C28   A    
Cu1   O11   S    
C40   H27   S    
C28   C30   A    
C12   C14   S    
C5    H23   S    
C41   H28   S    
C30   C32   A    
C21   O12   S    
C6    H31   S    
C20   O2    S    
C28   C42   S    
Cu1   O8    S    
C40   H26   S    
C27   C43   S    
C20   C21   S    
C29   C31   A    
C23   C36   A    
Cu2   O6    S    
Cu2   N1    S    
H36   N2    S    
C36   C43   A    
C31   H7    S    
C17   O11   A    
C32   H8    S    
C22   H3    S    
