data_mof_unit_43771.cif
_audit_creation_date              2012-12-10T16:52:38-0500
_audit_creation_method            fapswitch 2.2
_symmetry_space_group_name_H-M    P1
_symmetry_Int_Tables_number       1
_space_group_crystal_system       triclinic
_cell_length_a                    7.839832
_cell_length_b                    8.569215
_cell_length_c                    13.794738
_cell_angle_alpha                 93.315848
_cell_angle_beta                  93.176784
_cell_angle_gamma                 94.246027
_cell_volume                      920.995975308

loop_
_atom_site_label
_atom_site_type_symbol
_atom_type_description
_atom_site_fract_x
_atom_site_fract_y
_atom_site_fract_z
_atom_type_partial_charge
C1    C     C_R   0.045202 0.794685 0.497621 0.965851
C2    C     C_R   0.936891 0.489115 0.317993 0.867834
C3    C     C_R   0.100645 0.547375 0.785347 -0.069119
C4    C     C_R   0.907513 0.482048 0.212979 -0.058728
C5    C     C_R   0.079828 0.714755 0.930320 -0.191218
C6    C     C_R   0.966092 0.379287 0.052812 -0.189850
C7    C     C_R   0.013890 0.657844 0.838100 -0.190024
C8    C     C_R   0.014211 0.404463 0.151411 -0.194841
C9    C     C_R   0.247735 0.490590 0.825532 -0.278088
C10   C     C_R   0.762007 0.545482 0.175177 -0.275375
C11   C     C_R   0.326905 0.559177 0.912082 0.091622
C12   C     C_R   0.954817 0.205322 0.502451 0.964570
C13   C     C_R   0.711748 0.523424 0.076558 0.087210
C14   C     C_R   0.237503 0.668156 0.967019 0.174182
C15   C     C_R   0.812193 0.432824 0.015803 0.179670
C16   C     C_R   0.492813 0.522836 0.944496 0.062494
C17   C     C_R   0.557157 0.578457 0.038938 0.062515
C18   C     C_R   0.464988 0.686976 0.092504 -0.230476
C19   C     C_R   0.598356 0.436717 0.884447 -0.236644
C20   C     C_R   0.308362 0.731629 0.056516 -0.225581
C21   C     C_R   0.755946 0.393766 0.919641 -0.222250
C22   C     C_2   0.068665 0.958457 0.496262 -0.385360
C23   C     C_2   0.931379 0.041555 0.503909 -0.387915
C24   C     C_R   0.063772 0.513877 0.681887 0.866342
H1    H     H_    0.242548 0.816307 0.098964 0.146594
H2    H     H_    0.565195 0.404639 0.808678 0.157101
H3    H     H_    0.487104 0.374434 0.427664 0.188737
H4    H     H_    0.512901 0.625523 0.572370 0.189503
H5    H     H_    0.197953 0.010048 0.488962 0.179009
H6    H     H_    0.802094 0.989964 0.511219 0.179177
H7    H     H_    0.832529 0.326861 0.871814 0.149922
H8    H     H_    0.683264 0.602727 0.225675 0.159091
H9    H     H_    0.301812 0.396682 0.785080 0.149578
H10   H     H_    0.129278 0.356583 0.180132 0.157881
H11   H     H_    0.899275 0.703448 0.806973 0.159620
H12   H     H_    0.011469 0.799442 0.971129 0.138392
H13   H     H_    0.045706 0.313429 0.006271 0.140744
H14   H     H_    0.513917 0.744704 0.160983 0.148093
N1    N     N_2   0.440860 0.456490 0.474790 -0.173915
N2    N     N_2   0.559140 0.543510 0.525210 -0.174643
O1    O     O_R   0.891570 0.738930 0.506190 -0.611942
O2    O     O_R   0.108430 0.261070 0.493810 -0.611465
O3    O     O_R   0.174650 0.711050 0.490030 -0.624258
O4    O     O_R   0.825350 0.288950 0.509970 -0.625064
O5    O     O_R   0.909850 0.521900 0.644940 -0.618963
O6    O     O_R   0.090150 0.478100 0.355060 -0.615929
O7    O     O_R   0.192930 0.494020 0.628780 -0.616995
O8    O     O_R   0.807070 0.505980 0.371220 -0.622142
Zn1   Zn    Zn3+2 0.810990 0.518620 0.510790 0.930695
Zn2   Zn    Zn3+2 0.189010 0.481380 0.489210 0.934358

loop_
_geom_bond_atom_site_label_1
_geom_bond_atom_site_label_2
_ccdc_geom_bond_type
O4    Zn1   S    
C2    C4    S    
C5    H12   S    
O3    Zn2   S    
C3    C9    A    
C22   H5    S    
O5    Zn1   S    
C9    C11   A    
C11   C16   A    
O6    Zn2   S    
C18   C20   A    
C13   C17   A    
C4    C8    A    
C17   C18   A    
C5    C14   A    
C6    H13   S    
C1    C22   S    
C12   O4    A    
C8    H10   S    
C2    O6    A    
C9    H9    S    
C21   H7    S    
C12   C23   S    
C3    C24   S    
O2    Zn2   S    
C16   C19   A    
C6    C8    A    
C24   O5    A    
O1    Zn1   S    
O8    Zn1   S    
C19   C21   A    
O7    Zn2   S    
C3    C7    A    
C13   C15   A    
C18   H14   S    
C11   C14   A    
C20   H1    S    
H4    N2    S    
C4    C10   A    
N2    Zn1   S    
C23   H6    S    
C10   H8    S    
C15   C21   A    
N1    Zn2   S    
C14   C20   A    
C1    O1    A    
N1    N2    D    
C5    C7    A    
C19   H2    S    
C22   C23   D    
C12   O2    A    
C2    O8    A    
C6    C15   A    
C24   O7    A    
C7    H11   S    
C1    O3    A    
H3    N1    S    
C16   C17   A    
C10   C13   A    
