data_mof_unit_64600.cif
_audit_creation_date              2012-12-10T17:21:07-0500
_audit_creation_method            fapswitch 2.2
_symmetry_space_group_name_H-M    P1
_symmetry_Int_Tables_number       1
_space_group_crystal_system       triclinic
_cell_length_a                    38.655932
_cell_length_b                    21.725131
_cell_length_c                    21.735048
_cell_angle_alpha                 89.999979
_cell_angle_beta                  55.863833
_cell_angle_gamma                 89.999923
_cell_volume                      15108.2931928

loop_
_atom_site_label
_atom_site_type_symbol
_atom_type_description
_atom_site_fract_x
_atom_site_fract_y
_atom_site_fract_z
_atom_type_partial_charge
C1    C     C_R   0.001291 0.499999 0.379935 0.837980
C2    C     C_R   0.998709 0.499999 0.620065 0.837979
C3    C     C_R   0.501291 0.999999 0.379935 0.837974
C4    C     C_R   0.498709 0.999999 0.620065 0.837984
C5    C     C_3   0.708491 0.499407 0.792789 0.098556
C6    C     C_3   0.291509 0.499406 0.207211 0.098557
C7    C     C_3   0.208491 0.999407 0.792789 0.098555
C8    C     C_3   0.791509 0.999406 0.207213 0.098556
C9    C     C_3   0.764432 0.536499 0.781969 -0.270565
C10   C     C_3   0.235568 0.536495 0.218028 -0.270564
C11   C     C_3   0.264432 0.036471 0.781991 -0.270567
C12   C     C_3   0.735567 0.036371 0.217931 -0.270569
C13   C     C_3   0.736409 0.556213 0.755369 0.027587
C14   C     C_3   0.263591 0.556213 0.244627 0.027588
C15   C     C_3   0.236410 0.056219 0.755402 0.027591
C16   C     C_3   0.763590 0.056238 0.244476 0.027598
C17   C     C_1   0.837366 0.499763 0.663192 0.042998
C18   C     C_1   0.162634 0.499762 0.336809 0.042997
C19   C     C_1   0.337366 0.999763 0.663191 0.043000
C20   C     C_1   0.662634 0.999761 0.336810 0.043001
C21   C     C_1   0.662618 0.499083 0.837925 0.085613
C22   C     C_1   0.337381 0.499083 0.162075 0.085612
C23   C     C_1   0.162619 0.999085 0.837925 0.085620
C24   C     C_1   0.837381 0.999086 0.162077 0.085626
C25   C     C_R   0.029710 0.538163 0.250747 0.005184
C26   C     C_R   0.970290 0.538164 0.749253 0.005184
C27   C     C_R   0.529710 0.038164 0.250747 0.005200
C28   C     C_R   0.470290 0.038163 0.749253 0.005187
C29   C     C_R   0.027524 0.536994 0.188928 -0.242973
C30   C     C_R   0.972476 0.536994 0.811072 -0.242974
C31   C     C_R   0.527524 0.036994 0.188928 -0.242988
C32   C     C_R   0.472476 0.036994 0.811072 -0.242976
C33   C     C_R   0.000242 0.496907 0.185707 -0.095106
C34   C     C_R   0.999758 0.496907 0.814293 -0.095105
C35   C     C_R   0.500242 0.996907 0.185707 -0.095105
C36   C     C_R   0.499758 0.996907 0.814293 -0.095106
C37   C     C_R   0.974412 0.456374 0.245139 -0.011621
C38   C     C_R   0.025588 0.456373 0.754861 -0.011627
C39   C     C_R   0.474412 0.956373 0.245138 -0.011629
C40   C     C_R   0.525588 0.956374 0.754861 -0.011633
C41   C     C_R   0.975641 0.458901 0.308086 -0.171070
C42   C     C_R   0.024359 0.458901 0.691914 -0.171070
C43   C     C_R   0.475641 0.958901 0.308086 -0.171070
C44   C     C_R   0.524359 0.958901 0.691914 -0.171060
C45   C     C_R   0.919890 0.500009 0.580100 0.844818
C46   C     C_R   0.080110 0.500008 0.419900 0.844817
C47   C     C_R   0.419890 0.000008 0.580100 0.844815
C48   C     C_R   0.580110 0.000008 0.419900 0.844815
C49   C     C_R   0.002594 0.499514 0.311699 -0.075872
C50   C     C_R   0.997406 0.499514 0.688301 -0.075871
C51   C     C_R   0.502594 0.999514 0.311699 -0.075871
C52   C     C_R   0.497406 0.999514 0.688301 -0.075874
C53   C     C_R   0.500000 0.380961 0.000000 0.756650
C54   C     C_R   1.000000 0.880961 0.000000 0.756677
C55   C     C_R   0.580106 0.499157 0.919958 0.854422
C56   C     C_R   0.419893 0.499157 0.080042 0.854421
C57   C     C_R   0.080106 0.999158 0.919958 0.854423
C58   C     C_R   0.919894 0.999158 0.080042 0.854425
C59   C     C_R   0.500000 0.618700 1.000000 0.901895
C60   C     C_R   0.000000 0.118700 1.000000 0.901886
C61   C     C_R   0.000000 0.380866 0.000000 0.782908
C62   C     C_R   0.500000 0.880866 1.000000 0.782915
C63   C     C_R   0.000008 0.498271 0.119039 0.768429
C64   C     C_R   0.999992 0.498271 0.880961 0.768432
C65   C     C_R   0.500008 0.998271 0.119039 0.768433
C66   C     C_R   0.499992 0.998271 0.880961 0.768436
C67   C     C_R   1.000000 0.619002 0.000000 0.785947
C68   C     C_R   0.500000 0.119002 0.000000 0.785948
C69   C     C_R   0.473275 0.281998 0.066355 -0.161014
C70   C     C_R   0.526725 0.281998 0.933644 -0.161015
C71   C     C_R   0.973275 0.781998 0.066355 -0.160993
C72   C     C_R   0.026725 0.781998 0.933645 -0.161013
C73   C     C_R   0.972754 0.717962 0.066100 -0.165544
C74   C     C_R   0.027245 0.717961 0.933900 -0.165551
C75   C     C_R   0.472755 0.217962 0.066101 -0.165555
C76   C     C_R   0.527245 0.217961 0.933899 -0.165556
C77   C     C_R   1.000000 0.685871 0.000000 -0.020617
C78   C     C_R   0.500000 0.185871 0.000000 -0.020611
C79   C     C_3   0.735805 0.462179 0.720158 -0.228724
C80   C     C_3   0.264195 0.462182 0.279845 -0.228723
C81   C     C_3   0.235805 0.962207 0.720136 -0.228725
C82   C     C_3   0.764195 0.962305 0.279948 -0.228711
C83   C     C_R   0.500000 0.314088 0.000000 -0.002968
C84   C     C_R   1.000000 0.814088 0.000000 -0.002979
C85   C     C_R   0.532077 0.718287 0.999219 -0.031353
C86   C     C_R   0.467923 0.718287 0.000781 -0.031355
C87   C     C_R   0.032073 0.218287 0.999230 -0.031352
C88   C     C_R   0.967927 0.218287 0.000767 -0.031389
C89   C     C_R   0.031464 0.282431 0.999492 -0.189479
C90   C     C_R   0.968536 0.282431 0.000507 -0.189473
C91   C     C_R   0.531468 0.782431 0.999481 -0.189475
C92   C     C_R   0.468532 0.782431 0.000519 -0.189474
C93   C     C_R   0.000000 0.314182 0.000000 -0.068439
C94   C     C_R   0.500000 0.814182 1.000000 -0.068445
C95   C     C_R   0.500000 0.685767 1.000000 -0.164535
C96   C     C_R   0.000000 0.185767 0.999999 -0.164549
C97   C     C_3   0.764051 0.519764 0.682259 -0.221480
C98   C     C_3   0.235948 0.519768 0.317740 -0.221481
C99   C     C_3   0.264052 0.019797 0.682271 -0.221483
C100  C     C_3   0.735948 0.019916 0.317688 -0.221464
C101  C     C_1   0.875042 0.499993 0.625216 -0.092601
C102  C     C_1   0.124958 0.499993 0.374784 -0.092601
C103  C     C_1   0.375042 0.999993 0.625216 -0.092598
C104  C     C_1   0.624958 0.999992 0.374785 -0.092596
C105  C     C_1   0.624950 0.498961 0.875225 -0.098545
C106  C     C_1   0.375049 0.498961 0.124775 -0.098547
C107  C     C_1   0.124951 0.998962 0.875225 -0.098543
C108  C     C_1   0.875049 0.998964 0.124775 -0.098552
C109  C     C_3   0.763815 0.442148 0.746715 -0.023804
C110  C     C_3   0.236185 0.442147 0.253289 -0.023807
C111  C     C_3   0.263815 0.942143 0.746681 -0.023805
C112  C     C_3   0.736185 0.942120 0.253447 -0.023823
C113  C     C_3   0.791522 0.499136 0.709469 0.100460
C114  C     C_3   0.208478 0.499136 0.290531 0.100461
C115  C     C_3   0.291522 0.999136 0.709468 0.100459
C116  C     C_3   0.708478 0.999134 0.290535 0.100459
C117  C     C_3   0.736318 0.479078 0.819051 -0.057295
C118  C     C_3   0.263682 0.479074 0.180950 -0.057296
C119  C     C_3   0.236318 0.979046 0.819038 -0.057293
C120  C     C_3   0.763682 0.978926 0.181008 -0.057300
Cu1   Cu    Cu3+1 0.000000 0.438200 0.500000 1.036671
Cu2   Cu    Cu3+1 0.500000 0.938200 0.500000 1.036693
Cu3   Cu    Cu3+1 0.000000 0.561810 0.500000 1.032665
Cu4   Cu    Cu3+1 0.500000 0.061810 0.500000 1.032667
Cu5   Cu    Cu3+1 0.500010 0.499870 0.938220 1.027233
Cu6   Cu    Cu3+1 0.499990 0.499870 0.061780 1.027231
Cu7   Cu    Cu3+1 0.000010 0.999870 0.938220 1.027216
Cu8   Cu    Cu3+1 0.999990 0.999870 0.061780 1.027204
Cu9   Cu    Cu3+1 0.041440 0.499890 0.958590 0.989318
Cu10  Cu    Cu3+1 0.958560 0.499890 0.041410 0.989330
Cu11  Cu    Cu3+1 0.541440 0.999890 0.958590 0.989303
Cu12  Cu    Cu3+1 0.458560 0.999890 0.041410 0.989314
H1    H     H_    0.775682 0.536944 0.625696 0.155201
H2    H     H_    0.224318 0.536951 0.374302 0.155197
H3    H     H_    0.275682 0.037004 0.625719 0.155197
H4    H     H_    0.724318 0.037221 0.374202 0.155193
H5    H     H_    0.955604 0.428784 0.354795 0.188949
H6    H     H_    0.044396 0.428783 0.645205 0.188950
H7    H     H_    0.455604 0.928783 0.354795 0.188953
H8    H     H_    0.544396 0.928784 0.645205 0.188959
H9    H     H_    0.452395 0.306498 0.117861 0.144207
H10   H     H_    0.547605 0.306497 0.882139 0.144206
H11   H     H_    0.952395 0.806498 0.117861 0.144220
H12   H     H_    0.047605 0.806497 0.882139 0.144209
H13   H     H_    0.951698 0.693461 0.117520 0.146314
H14   H     H_    0.048302 0.693461 0.882480 0.146307
H15   H     H_    0.451698 0.193461 0.117520 0.146304
H16   H     H_    0.548301 0.193461 0.882480 0.146304
H17   H     H_    0.055844 0.307905 0.998699 0.180490
H18   H     H_    0.944156 0.307906 0.001299 0.180496
H19   H     H_    0.555850 0.807905 0.998680 0.180493
H20   H     H_    0.444150 0.807905 0.001320 0.180494
H21   H     H_    0.723988 0.431492 0.694999 0.167463
H22   H     H_    0.276013 0.431497 0.305006 0.167462
H23   H     H_    0.223987 0.931542 0.694959 0.167466
H24   H     H_    0.776014 0.931721 0.305192 0.167473
H25   H     H_    0.776230 0.567130 0.807217 0.172685
H26   H     H_    0.223769 0.567124 0.192778 0.172685
H27   H     H_    0.276231 0.067081 0.807256 0.172686
H28   H     H_    0.723768 0.066899 0.192598 0.172687
H29   H     H_    0.047718 0.567043 0.142179 0.144768
H30   H     H_    0.952282 0.567043 0.857820 0.144769
H31   H     H_    0.547718 0.067043 0.142180 0.144763
H32   H     H_    0.452282 0.067043 0.857821 0.144767
O1    O     O_R   0.000010 0.447810 0.409820 -0.588330
O2    O     O_R   0.999990 0.447810 0.590180 -0.588329
O3    O     O_R   0.500010 0.947810 0.409820 -0.588332
O4    O     O_R   0.499990 0.947810 0.590180 -0.588325
O5    O     O_R   0.034990 0.499890 0.055220 -0.569470
O6    O     O_R   0.965010 0.499890 0.944780 -0.569467
O7    O     O_R   0.534990 0.999890 0.055220 -0.569474
O8    O     O_R   0.465010 0.999890 0.944780 -0.569469
O9    O     O_R   0.965000 0.499930 0.125200 -0.595985
O10   O     O_R   0.035000 0.499930 0.874800 -0.595989
O11   O     O_R   0.465000 0.999930 0.125200 -0.595987
O12   O     O_R   0.535000 0.999930 0.874800 -0.595988
O13   O     O_R   0.035030 0.590070 0.965060 -0.579320
O14   O     O_R   0.964970 0.590070 0.034940 -0.579315
O15   O     O_R   0.535030 0.090070 0.965060 -0.579322
O16   O     O_R   0.464970 0.090070 0.034940 -0.579319
O17   O     O_R   0.000010 0.552200 0.409870 -0.563785
O18   O     O_R   0.999990 0.552200 0.590130 -0.563786
O19   O     O_R   0.500010 0.052200 0.409870 -0.563781
O20   O     O_R   0.499990 0.052200 0.590130 -0.563785
O21   O     O_R   0.939540 0.447810 0.560460 -0.569385
O22   O     O_R   0.060460 0.447810 0.439540 -0.569384
O23   O     O_R   0.439540 0.947810 0.560460 -0.569381
O24   O     O_R   0.560460 0.947810 0.439540 -0.569367
O25   O     O_R   0.939550 0.552200 0.560510 -0.564604
O26   O     O_R   0.060450 0.552200 0.439490 -0.564604
O27   O     O_R   0.439550 0.052200 0.560510 -0.564606
O28   O     O_R   0.560450 0.052200 0.439490 -0.564609
O29   O     O_R   0.500010 0.409700 0.947870 -0.589593
O30   O     O_R   0.499990 0.409700 0.052130 -0.589595
O31   O     O_R   0.000010 0.909700 0.947870 -0.589588
O32   O     O_R   0.999990 0.909700 0.052130 -0.589590
O33   O     O_R   0.560470 0.499890 0.887380 -0.580276
O34   O     O_R   0.439530 0.499890 0.112620 -0.580276
O35   O     O_R   0.060470 0.999890 0.887380 -0.580287
O36   O     O_R   0.939530 0.999890 0.112620 -0.580306
O37   O     O_R   0.560460 0.499990 0.991770 -0.560367
O38   O     O_R   0.439540 0.499990 0.008230 -0.560366
O39   O     O_R   0.060460 0.999990 0.991770 -0.560364
O40   O     O_R   0.939540 0.999990 0.008230 -0.560367
O41   O     O_R   0.500010 0.590060 0.947790 -0.566337
O42   O     O_R   0.499990 0.590060 0.052210 -0.566337
O43   O     O_R   0.000010 0.090060 0.947790 -0.566335
O44   O     O_R   0.999990 0.090060 0.052210 -0.566352
O45   O     O_R   0.034970 0.409720 0.965020 -0.586859
O46   O     O_R   0.965030 0.409720 0.034980 -0.586858
O47   O     O_R   0.534970 0.909720 0.965020 -0.586862
O48   O     O_R   0.465030 0.909720 0.034980 -0.586860
C121  C     C_2   0.567544 0.687330 0.995244 0.875419
O49   O     O_2   0.582080 0.709414 0.027888 -0.567620
O50   O     O_R   0.585515 0.634548 0.951987 -0.751630
H33   H     H_    0.609903 0.618765 0.952916 0.354417
C122  C     C_2   0.432457 0.687331 0.004755 0.875419
O51   O     O_2   0.417920 0.709415 0.972112 -0.567621
O52   O     O_R   0.414486 0.634548 0.048013 -0.751630
H34   H     H_    0.390097 0.618765 0.047084 0.354418
C123  C     C_2   0.067537 0.187331 0.995266 0.875430
O53   O     O_2   0.082069 0.209414 0.027918 -0.567627
O54   O     O_R   0.085511 0.134548 0.952010 -0.751625
H35   H     H_    0.109896 0.118764 0.952948 0.354427
C124  C     C_2   0.932465 0.187332 0.004724 0.875472
O55   O     O_2   0.917933 0.209420 0.972075 -0.567608
O56   O     O_R   0.914494 0.134543 0.047969 -0.751624
H36   H     H_    0.890113 0.118757 0.047021 0.354478
C125  C     C_2   0.722510 0.621128 0.758520 0.385081
H37   H     H_    0.745680 0.657029 0.729213 0.073502
O57   O     O_2   0.685422 0.634024 0.793706 -0.512407
C126  C     C_2   0.277490 0.621129 0.241472 0.385076
H38   H     H_    0.254319 0.657030 0.270776 0.073502
O58   O     O_2   0.314577 0.634026 0.206285 -0.512409
C127  C     C_2   0.222511 0.121140 0.758591 0.385078
H39   H     H_    0.245681 0.157044 0.729307 0.073506
O59   O     O_2   0.185423 0.134037 0.793784 -0.512420
C128  C     C_2   0.777486 0.121184 0.241148 0.385084
H40   H     H_    0.754315 0.157102 0.270349 0.073525
O60   O     O_2   0.814574 0.134086 0.205936 -0.512473
C129  C     C_2   0.721982 0.456477 0.895012 0.882268
O61   O     O_2   0.747844 0.442338 0.908083 -0.559916
O62   O     O_R   0.679323 0.451692 0.950368 -0.754687
H41   H     H_    0.673688 0.435890 0.999087 0.345493
C130  C     C_2   0.278018 0.456468 0.104991 0.882268
O63   O     O_2   0.252157 0.442327 0.091921 -0.559915
O64   O     O_R   0.320677 0.451682 0.049635 -0.754687
H42   H     H_    0.326312 0.435877 0.000918 0.345494
C131  C     C_2   0.221982 0.956408 0.894985 0.882267
O65   O     O_2   0.247844 0.942246 0.908047 -0.559918
O66   O     O_R   0.179323 0.951616 0.950338 -0.754695
H43   H     H_    0.173688 0.935788 0.999047 0.345492
C132  C     C_2   0.778018 0.956152 0.105111 0.882258
O67   O     O_2   0.752156 0.941904 0.092080 -0.559921
O68   O     O_R   0.820677 0.951332 0.049767 -0.754706
H44   H     H_    0.826312 0.935408 0.001093 0.345478
C133  C     C_2   0.778206 0.377285 0.742587 0.877158
O69   O     O_2   0.752378 0.336320 0.774583 -0.574738
O70   O     O_R   0.820876 0.363918 0.702418 -0.741424
H45   H     H_    0.826547 0.318572 0.703925 0.348190
C134  C     C_2   0.221794 0.377283 0.257421 0.877160
O71   O     O_2   0.247622 0.336318 0.225428 -0.574733
O72   O     O_R   0.179124 0.363916 0.297591 -0.741423
H46   H     H_    0.173454 0.318569 0.296087 0.348191
C135  C     C_2   0.278206 0.877274 0.742514 0.877164
O73   O     O_2   0.252377 0.836306 0.774486 -0.574734
O74   O     O_R   0.320875 0.863906 0.702337 -0.741426
H47   H     H_    0.326546 0.818556 0.703817 0.348194
C136  C     C_2   0.721795 0.877228 0.257755 0.877166
O75   O     O_2   0.747624 0.836247 0.225873 -0.574735
O76   O     O_R   0.679126 0.863854 0.297962 -0.741429
H48   H     H_    0.673456 0.818487 0.296582 0.348191
C137  C     C_2   0.062006 0.578283 0.246811 0.378219
H49   H     H_    0.074437 0.616903 0.208514 0.071279
O77   O     O_2   0.076660 0.567264 0.282834 -0.535274
C138  C     C_2   0.937994 0.578283 0.753189 0.378218
H50   H     H_    0.925563 0.616903 0.791485 0.071276
O78   O     O_2   0.923340 0.567264 0.717166 -0.535274
C139  C     C_2   0.562006 0.078284 0.246811 0.378168
H51   H     H_    0.574437 0.116903 0.208515 0.071277
O79   O     O_2   0.576659 0.067264 0.282834 -0.535308
C140  C     C_2   0.437994 0.078283 0.753189 0.378208
H52   H     H_    0.425562 0.116903 0.791486 0.071280
O80   O     O_2   0.423340 0.067264 0.717165 -0.535281
C141  C     C_2   0.947689 0.409416 0.241218 0.392664
H53   H     H_    0.951180 0.399420 0.189159 0.085379
O81   O     O_2   0.921617 0.380430 0.296312 -0.522771
C142  C     C_2   0.052310 0.409416 0.758782 0.392670
H54   H     H_    0.048820 0.399420 0.810841 0.085380
O82   O     O_2   0.078383 0.380429 0.703688 -0.522764
C143  C     C_2   0.447690 0.909416 0.241217 0.392671
H55   H     H_    0.451180 0.899420 0.189159 0.085380
O83   O     O_2   0.421617 0.880429 0.296312 -0.522757
C144  C     C_2   0.552311 0.909416 0.758782 0.392678
H56   H     H_    0.548820 0.899420 0.810841 0.085378
O84   O     O_2   0.578383 0.880430 0.703688 -0.522745

loop_
_geom_bond_atom_site_label_1
_geom_bond_atom_site_label_2
_ccdc_geom_bond_type
O54   H35   S    
C110  C118  S    
C11   H27   S    
C28   C140  S    
Cu1   O2    S    
Cu11  O7    S    
C140  H52   S    
C55   C105  S    
C71   H11   S    
C48   O24   A    
C26   C50   A    
C36   C66   S    
C98   C114  S    
O76   H48   S    
C29   C33   A    
C9    C13   S    
C11   C15   S    
C12   C16   S    
C11   C115  S    
C5    C13   S    
C7    C15   S    
C58   O40   A    
C8    C16   S    
C130  O63   D    
C65   O11   A    
C53   O30   A    
C66   O12   A    
C41   C49   A    
C63   O9    A    
C56   O34   A    
C121  O50   S    
C25   C29   A    
C128  O60   D    
Cu5   O38   S    
C54   O32   A    
C79   C109  S    
C39   C143  S    
C7    C119  S    
C28   C32   A    
C37   C141  S    
C112  C120  S    
C1    O17   A    
C81   C99   S    
C4    O4    A    
Cu8   O39   S    
O50   H33   S    
C125  H37   S    
Cu7   O31   S    
C6    C80   S    
O56   H36   S    
Cu5   O29   S    
C23   C107  T    
C92   C94   A    
C46   O22   A    
C56   C106  S    
C72   C84   A    
C59   O42   A    
C131  O66   S    
C136  O76   S    
C30   H30   S    
Cu9   O45   S    
C90   C93   A    
C20   C116  S    
C72   H12   S    
Cu2   O3    S    
C79   C97   S    
C112  C136  S    
C39   C43   A    
C60   O43   A    
Cu2   O24   S    
C141  O81   D    
C91   C94   A    
C45   O21   A    
C55   O33   A    
Cu5   O41   S    
C61   O46   A    
C139  O79   D    
C13   C97   S    
Cu1   Cu3   S    
C86   C95   A    
C5    C21   S    
C76   H16   S    
Cu3   O17   S    
C73   C77   A    
Cu8   O44   S    
C133  O70   S    
Cu4   O27   S    
C40   C144  S    
C67   C77   S    
C97   H1    S    
C90   H18   S    
C38   C142  S    
C131  O65   D    
C10   C118  S    
C32   C36   A    
C143  O83   D    
C76   C78   A    
Cu4   O20   S    
C134  O71   D    
C6    C14   S    
C55   O37   A    
Cu11  O12   S    
C111  C119  S    
C129  O61   D    
C18   C102  T    
C120  C132  S    
Cu7   O43   S    
C2    C50   S    
C74   C77   A    
C19   C115  S    
C5    C79   S    
Cu7   O40   S    
C110  C114  S    
C44   C52   A    
C16   C128  S    
C57   O35   A    
C27   C51   A    
C14   C98   S    
C30   C34   A    
C111  C135  S    
C10   C14   S    
C16   C100  S    
C122  O51   D    
C73   H13   S    
C142  O82   D    
C62   C94   S    
C123  O53   D    
C79   H21   S    
C33   C63   S    
Cu12  O8    S    
C34   C64   S    
Cu3   O26   S    
C135  O74   S    
C42   C50   A    
C7    C81   S    
Cu12  O16   S    
C26   C30   A    
Cu11  O47   S    
Cu2   Cu4   S    
C112  C116  S    
Cu9   Cu10  S    
C62   O48   A    
C14   C126  S    
C67   O14   A    
Cu7   O35   S    
O74   H47   S    
Cu1   O1    S    
C68   O15   A    
C140  O80   D    
C81   H23   S    
C9    C113  S    
C85   C95   A    
C7    C23   S    
C32   H32   S    
C8    C24   S    
C37   C41   A    
C40   C44   A    
C138  H50   S    
C44   H8    S    
Cu10  O6    S    
C47   O23   A    
O68   H44   S    
C12   C116  S    
C88   C96   A    
C42   H6    S    
C53   O29   A    
C100  C116  S    
C54   C84   S    
C109  C117  S    
O66   H43   S    
C121  O49   D    
C8    C82   S    
C119  C131  S    
C99   C115  S    
C144  H56   S    
C61   C93   S    
C35   C65   S    
C69   H9    S    
O62   H41   S    
C6    C22   S    
C110  C134  S    
C25   C137  S    
Cu10  O14   S    
Cu1   O22   S    
C127  H39   S    
C24   C108  T    
C2    O2    A    
C41   H5    S    
C10   C114  S    
C59   O41   A    
C89   H17   S    
Cu6   O37   S    
C136  O75   D    
Cu10  O9    S    
C68   C78   S    
C47   C103  S    
C17   C113  S    
Cu2   O4    S    
C72   C74   A    
C15   C99   S    
O52   H34   S    
C3    C51   S    
C60   O44   A    
C75   H15   S    
Cu9   O13   S    
C89   C93   A    
C33   C37   A    
C82   C112  S    
C35   C39   A    
Cu8   O36   S    
C141  H53   S    
Cu6   O30   S    
C9    H25   S    
C57   O39   A    
C99   H3    S    
C61   O45   A    
C12   H28   S    
C70   C83   A    
C45   C101  S    
C60   C96   S    
C4    C52   S    
C130  O64   S    
C27   C31   A    
Cu5   Cu6   S    
C31   C35   A    
Cu9   O10   S    
Cu11  Cu12  S    
C87   C123  S    
Cu4   O28   S    
C71   C73   A    
C66   O8    A    
C128  H40   S    
C54   O31   A    
C80   C98   S    
C3    O3    A    
C74   H14   S    
C80   H22   S    
C53   C83   S    
C139  H51   S    
C125  O57   D    
C26   C138  S    
C43   C51   A    
Cu2   O23   S    
C132  O67   D    
Cu6   O42   S    
C126  H38   S    
C69   C75   A    
C58   C108  S    
C47   O27   A    
C25   C49   A    
C48   O28   A    
C13   C125  S    
C15   C127  S    
C87   C89   A    
Cu12  O11   S    
C21   C105  T    
C91   H19   S    
C9    C117  S    
Cu12  O48   S    
C11   C119  S    
C18   C114  S    
C85   C91   A    
C118  C130  S    
C46   C102  S    
C58   O36   A    
C65   O7    A    
Cu9   O5    S    
C137  H49   S    
C133  O69   D    
Cu3   O18   S    
C63   O5    A    
C56   O38   A    
C48   C104  S    
C2    O18   A    
C17   C101  T    
C124  O56   S    
C12   C120  S    
C19   C103  T    
C81   C111  S    
C1    C49   S    
C92   H20   S    
C62   O47   A    
C43   H7    S    
C137  O77   D    
Cu3   O25   S    
C135  O73   D    
C109  C113  S    
C82   H24   S    
C143  H55   S    
Cu5   O33   S    
C64   O6    A    
C127  O59   D    
C59   C95   S    
C46   O26   A    
C126  O58   D    
C31   H31   S    
C70   H10   S    
C29   H29   S    
C36   C40   A    
Cu4   O19   S    
C67   O13   A    
C134  O72   S    
Cu11  O15   S    
C27   C139  S    
C22   C106  T    
C68   O16   A    
C5    C117  S    
C129  O62   S    
C86   C122  S    
C69   C83   A    
C85   C121  S    
C132  O68   S    
C88   C124  S    
C1    O1    A    
C87   C96   A    
C124  O55   D    
C4    O20   A    
C45   O25   A    
C57   C107  S    
C138  O78   D    
C70   C76   A    
Cu10  O46   S    
C97   C113  S    
O70   H45   S    
C8    C120  S    
C71   C84   A    
C10   H26   S    
C34   C38   A    
C82   C100  S    
Cu8   O32   S    
C88   C90   A    
O64   H42   S    
C20   C104  T    
C122  O52   S    
C98   H2    S    
C142  H54   S    
O72   H46   S    
C123  O54   S    
C86   C92   A    
C144  O84   D    
C28   C52   A    
Cu6   O34   S    
C3    O19   A    
C109  C133  S    
C75   C78   A    
Cu1   O21   S    
C38   C42   A    
C100  H4    S    
C80   C110  S    
C111  C115  S    
C64   O10   A    
C6    C118  S    
Cu7   Cu8   S    
C117  C129  S    
