data_mof_unit_36563.cif
_audit_creation_date              2012-12-10T16:54:55-0500
_audit_creation_method            fapswitch 2.2
_symmetry_space_group_name_H-M    P1
_symmetry_Int_Tables_number       1
_space_group_crystal_system       triclinic
_cell_length_a                    7.756802
_cell_length_b                    8.526198
_cell_length_c                    15.707778
_cell_angle_alpha                 90.523635
_cell_angle_beta                  86.098839
_cell_angle_gamma                 93.381065
_cell_volume                      1034.62518568

loop_
_atom_site_label
_atom_site_type_symbol
_atom_type_description
_atom_site_fract_x
_atom_site_fract_y
_atom_site_fract_z
_atom_type_partial_charge
C1    C     C_R   0.545461 0.794314 0.504108 0.943772
C2    C     C_3   0.402429 0.677990 0.053042 -0.052250
C3    C     C_3   0.482210 0.524142 0.083326 0.266629
C4    C     C_3   0.377856 0.377460 0.051200 -0.416166
C5    C     C_3   0.397728 0.368900 0.953196 -0.452450
C6    C     C_1   0.486875 0.516168 0.174756 -0.116363
C7    C     C_1   0.503876 0.512003 0.825533 -0.092157
C8    C     C_1   0.507011 0.504975 0.750190 -0.194601
C9    C     C_2   0.567716 0.958353 0.506077 -0.414831
C10   C     C_2   0.439053 0.046646 0.536916 -0.077308
C11   C     C_R   0.502371 0.500215 0.661586 0.874614
C12   C     C_R   0.455500 0.205879 0.509919 0.929414
C13   C     C_R   0.497568 0.500662 0.338364 0.919541
C14   C     C_3   0.395534 0.672152 0.951596 0.426511
C15   C     C_3   0.679509 0.525710 0.947632 -0.465074
C16   C     C_3   0.672384 0.522050 0.045513 -0.450317
C17   C     C_1   0.492170 0.508243 0.249773 -0.195875
C18   C     C_3   0.493283 0.522254 0.917340 0.337954
H1    H     H_    0.497762 0.774440 0.069808 0.139580
H2    H     H_    0.424480 0.268330 0.077975 0.176905
H3    H     H_    0.680720 0.006134 0.467881 0.161268
H4    H     H_    0.013610 0.381880 0.436570 0.193381
H5    H     H_    0.986449 0.618140 0.563448 0.190940
H6    H     H_    0.747114 0.421779 0.922005 0.184519
H7    H     H_    0.759307 0.630207 0.923258 0.185129
H8    H     H_    0.751168 0.624670 0.069185 0.168329
H9    H     H_    0.732128 0.414262 0.066250 0.190072
H10   H     H_    0.269310 0.346090 0.926794 0.173074
H11   H     H_    0.473303 0.265747 0.933757 0.182621
H12   H     H_    0.238687 0.382435 0.072766 0.170906
N1    N     N_2   0.950340 0.457950 0.477370 -0.170788
N2    N     N_2   0.049660 0.542050 0.522630 -0.174158
O1    O     O_R   0.389240 0.738570 0.505550 -0.615149
O2    O     O_R   0.678400 0.711630 0.491050 -0.623381
O3    O     O_R   0.355360 0.513470 0.630110 -0.633566
O4    O     O_R   0.644510 0.486530 0.615610 -0.617800
O5    O     O_R   0.321600 0.288370 0.508950 -0.630612
O6    O     O_R   0.610760 0.261430 0.494450 -0.625059
O7    O     O_R   0.355490 0.513470 0.384390 -0.617548
O8    O     O_R   0.644640 0.486530 0.369890 -0.609431
Zn1   Zn    Zn3+2 0.306930 0.517990 0.509680 0.926652
Zn2   Zn    Zn3+2 0.693070 0.482010 0.490320 0.939079
C19   C     C_3   0.207503 0.662535 0.921112 -0.903327
H13   H     H_    0.127130 0.561912 0.949212 0.218871
H14   H     H_    0.139216 0.770444 0.937095 0.242136
H15   H     H_    0.208782 0.649766 0.850689 0.239947
C20   C     C_3   0.230193 0.717284 0.105052 -0.414054
C21   C     C_3   0.199210 0.894094 0.105858 -0.359848
C22   C     C_3   0.027922 0.927346 0.154416 -0.887439
H16   H     H_    0.918168 0.867357 0.122862 0.253016
H17   H     H_    0.026679 0.886139 0.221355 0.268459
H18   H     H_    0.010868 0.055781 0.155098 0.245414
H19   H     H_    0.305918 0.959592 0.137259 0.214117
H20   H     H_    0.197142 0.940389 0.040433 0.225190
H21   H     H_    0.116498 0.647839 0.082890 0.211962
H22   H     H_    0.235076 0.684312 0.172888 0.215591
C23   C     C_3   0.295728 0.994463 0.604531 -0.380816
C24   C     C_3   0.295984 0.101373 0.683951 -0.367334
C25   C     C_3   0.171445 0.035226 0.756039 -0.905222
H23   H     H_    0.037401 0.023310 0.735026 0.267618
H24   H     H_    0.210431 0.918561 0.775926 0.267656
H25   H     H_    0.173928 0.115909 0.811909 0.248946
H26   H     H_    0.428528 0.113833 0.707053 0.219391
H27   H     H_    0.255575 0.219492 0.667907 0.252234
H28   H     H_    0.168239 0.995336 0.576287 0.208226
H29   H     H_    0.312128 0.874341 0.627877 0.234220
C26   C     C_3   0.485698 0.826210 0.913261 -0.963930
H30   H     H_    0.412407 0.929603 0.933395 0.237100
H31   H     H_    0.618248 0.848531 0.934633 0.221421
H32   H     H_    0.493914 0.822975 0.842421 0.254447

loop_
_geom_bond_atom_site_label_1
_geom_bond_atom_site_label_2
_ccdc_geom_bond_type
C15   C18   S    
N2    Zn1   S    
C10   C23   S    
N1    Zn2   S    
C2    C20   S    
C5    H10   S    
C9    C10   D    
C14   C18   S    
O4    Zn2   S    
N1    N2    D    
O2    Zn2   S    
C13   C17   S    
C23   H29   S    
C14   C26   S    
C3    C6    S    
O1    Zn1   S    
H5    N2    S    
C26   H32   S    
C16   H9    S    
C11   O3    A    
C2    C3    S    
C2    H1    S    
C1    O1    A    
C7    C8    T    
O7    Zn1   S    
C21   C22   S    
C21   H20   S    
C19   H14   S    
C9    H3    S    
C23   C24   S    
C10   C12   S    
C8    C11   S    
C2    C14   S    
O8    Zn2   S    
C15   H6    S    
C20   H22   S    
C1    O2    A    
O6    Zn2   S    
C5    H11   S    
C19   H13   S    
O5    Zn1   S    
C21   H19   S    
O3    Zn1   S    
C19   H15   S    
C25   H24   S    
C13   O7    A    
H4    N1    S    
C15   C16   S    
C4    H2    S    
C12   O6    A    
C25   H23   S    
C7    C18   S    
C1    C9    S    
C3    C4    S    
C15   H7    S    
C20   H21   S    
C22   H16   S    
C12   O5    A    
C22   H17   S    
C24   H26   S    
C6    C17   T    
C14   C19   S    
C13   O8    A    
C5    C18   S    
C25   H25   S    
C24   H27   S    
C26   H31   S    
C24   C25   S    
C4    H12   S    
C3    C16   S    
C26   H30   S    
C22   H18   S    
C23   H28   S    
C4    C5    S    
C20   C21   S    
C16   H8    S    
C11   O4    A    
