data_mof_unit_51312.cif
_audit_creation_date              2012-12-10T16:54:54-0500
_audit_creation_method            fapswitch 2.2
_symmetry_space_group_name_H-M    P1
_symmetry_Int_Tables_number       1
_space_group_crystal_system       triclinic
_cell_length_a                    7.772994
_cell_length_b                    8.579054
_cell_length_c                    15.716159
_cell_angle_alpha                 90.842976
_cell_angle_beta                  85.84856
_cell_angle_gamma                 93.627681
_cell_volume                      1043.13271538

loop_
_atom_site_label
_atom_site_type_symbol
_atom_type_description
_atom_site_fract_x
_atom_site_fract_y
_atom_site_fract_z
_atom_type_partial_charge
C1    C     C_R   0.545762 0.794722 0.497813 0.960592
C2    C     C_2   0.430156 0.041804 0.503435 -0.382261
C3    C     C_R   0.502010 0.500028 0.661608 0.905915
C4    C     C_R   0.454238 0.205277 0.502188 0.960571
C5    C     C_R   0.497989 0.499967 0.338392 0.905916
C6    C     C_3   0.347373 0.587831 0.955501 -0.398193
C7    C     C_3   0.672249 0.581811 0.946883 -0.399722
C8    C     C_3   0.668190 0.582108 0.045208 -0.397167
C9    C     C_1   0.493897 0.500345 0.249603 -0.182252
C10   C     C_3   0.503418 0.499718 0.917315 0.370764
C11   C     C_3   0.343315 0.588103 0.053826 -0.398004
C12   C     C_3   0.496578 0.500195 0.082684 0.370508
C13   C     C_3   0.482379 0.330047 0.048453 -0.400886
C14   C     C_3   0.486479 0.329764 0.950123 -0.398862
C15   C     C_1   0.493558 0.500403 0.174232 -0.129301
C16   C     C_1   0.506437 0.499528 0.825766 -0.129239
C17   C     C_1   0.506099 0.499616 0.750396 -0.182257
C18   C     C_2   0.569844 0.958195 0.496566 -0.382279
H1    H     H_    0.350870 0.710715 0.078147 0.165865
H2    H     H_    0.687132 0.704189 0.923574 0.164998
H3    H     H_    0.681205 0.704647 0.069346 0.165325
H4    H     H_    0.780237 0.520921 0.065604 0.165144
H5    H     H_    0.366027 0.268433 0.929118 0.165112
H6    H     H_    0.359957 0.268877 0.074905 0.164905
H7    H     H_    0.218589 0.531212 0.080385 0.165731
H8    H     H_    0.597295 0.264187 0.923144 0.165476
H9    H     H_    0.224507 0.530885 0.934621 0.165368
H10   H     H_    0.591215 0.264565 0.068931 0.165047
H11   H     H_    0.701789 0.009219 0.490015 0.180505
H12   H     H_    0.298211 0.990781 0.509986 0.180510
H13   H     H_    0.013408 0.381932 0.436572 0.191580
H14   H     H_    0.986592 0.618067 0.563428 0.191608
H15   H     H_    0.356788 0.710342 0.932377 0.165258
H16   H     H_    0.786147 0.520413 0.919836 0.165903
N1    N     N_2   0.950340 0.457950 0.477370 -0.173526
N2    N     N_2   0.049660 0.542050 0.522630 -0.173518
O1    O     O_R   0.389240 0.738570 0.505550 -0.612979
O2    O     O_R   0.678400 0.711630 0.491050 -0.631123
O3    O     O_R   0.355360 0.513470 0.630110 -0.613562
O4    O     O_R   0.644510 0.486530 0.615610 -0.622016
O5    O     O_R   0.321600 0.288370 0.508950 -0.631141
O6    O     O_R   0.610760 0.261430 0.494450 -0.612996
O7    O     O_R   0.355490 0.513470 0.384390 -0.622009
O8    O     O_R   0.644640 0.486530 0.369890 -0.613575
Zn1   Zn    Zn3+2 0.306930 0.517990 0.509680 0.942141
Zn2   Zn    Zn3+2 0.693070 0.482010 0.490320 0.942127

loop_
_geom_bond_atom_site_label_1
_geom_bond_atom_site_label_2
_ccdc_geom_bond_type
C14   H5    S    
C6    C10   S    
C7    C10   S    
C8    H4    S    
C11   C12   S    
C6    H15   S    
C13   H10   S    
C5    C9    S    
C1    O1    A    
C8    C12   S    
C2    C18   D    
C2    C4    S    
N1    N2    D    
C12   C15   S    
C2    H12   S    
O3    Zn1   S    
C8    H3    S    
C5    O7    A    
C3    O3    A    
N2    Zn1   S    
C18   H11   S    
C10   C16   S    
C13   C14   S    
C14   H8    S    
O4    Zn2   S    
O7    Zn1   S    
C11   H1    S    
C1    C18   S    
C4    O6    A    
C1    O2    A    
H14   N2    S    
C5    O8    A    
O8    Zn2   S    
C3    O4    A    
C3    C17   S    
C10   C14   S    
C7    H16   S    
H13   N1    S    
O2    Zn2   S    
C4    O5    A    
C11   H7    S    
O1    Zn1   S    
C7    C8    S    
C12   C13   S    
C7    H2    S    
O6    Zn2   S    
C6    C11   S    
O5    Zn1   S    
C9    C15   T    
N1    Zn2   S    
C6    H9    S    
C13   H6    S    
C16   C17   T    
