data_mof_unit_6017.cif
_audit_creation_date              2012-12-11T16:05:04-0500
_audit_creation_method            fapswitch 2.2
_symmetry_space_group_name_H-M    P1
_symmetry_Int_Tables_number       1
_space_group_crystal_system       triclinic
_cell_length_a                    10.650699
_cell_length_b                    10.580282
_cell_length_c                    16.90631
_cell_angle_alpha                 98.965724
_cell_angle_beta                  98.738001
_cell_angle_gamma                 61.274098
_cell_volume                      1643.71396649

loop_
_atom_site_label
_atom_site_type_symbol
_atom_type_description
_atom_site_fract_x
_atom_site_fract_y
_atom_site_fract_z
_atom_type_partial_charge
C1    C     C_R   0.353840 0.776782 0.399077 0.547019
C2    C     C_3   0.732169 0.303470 0.236079 -0.178095
C3    C     C_3   0.781367 0.369508 0.313958 0.053431
C4    C     C_3   0.937742 0.264970 0.301391 0.254214
C5    C     C_3   0.947117 0.375327 0.256926 -0.074786
C6    C     C_3   0.787801 0.481633 0.269184 -0.143931
C7    C     C_3   0.738393 0.415780 0.190354 -0.126593
C8    C     C_3   0.896826 0.309822 0.179148 0.018065
C9    C     C_3   0.470195 0.785056 0.221838 -0.140723
C10   C     C_3   0.416836 0.691487 0.253953 -0.128352
C11   C     C_3   0.344567 0.815311 0.319318 0.066581
C12   C     C_R   0.405759 0.374120 0.357097 0.543287
C13   C     C_3   0.399207 0.907426 0.289108 -0.103159
C14   C     C_3   0.257858 0.972065 0.234182 -0.074505
C15   C     C_3   0.204277 0.878685 0.265520 -0.093912
C16   C     C_3   0.275576 0.755883 0.199465 -0.126710
C17   C     C_3   0.329023 0.848298 0.168657 0.042292
C18   C     C_3   0.457985 0.247236 0.781102 -0.104857
C19   C     C_3   0.409668 0.399548 0.757030 -0.146230
C20   C     C_3   0.361293 0.351700 0.673350 0.055072
C21   C     C_3   0.409045 0.199841 0.696818 -0.103696
C22   C     C_3   0.256730 0.253716 0.721584 -0.144433
C23   C     C_R   0.718322 0.409147 0.389622 0.538689
C24   C     C_3   0.208788 0.406294 0.696873 -0.099660
C25   C     C_3   0.257103 0.453092 0.782375 -0.103997
C26   C     C_3   0.305955 0.300696 0.805291 0.055505
C27   C     C_1   0.817774 0.341355 0.709541 -0.050892
C28   C     C_1   0.843510 0.314663 0.778065 -0.054035
C29   C     C_1   0.322323 0.843831 0.705503 -0.049173
C30   C     C_1   0.285836 0.889446 0.772296 -0.049956
C31   C     C_R   0.954441 0.286362 0.103113 0.549018
C32   C     C_R   0.321648 0.303149 0.119435 0.546505
C33   C     C_R   0.296876 0.887285 0.087268 0.545090
C34   C     C_R   0.353428 0.778220 0.625900 0.542983
C35   C     C_R   0.883750 0.299852 0.860977 0.545469
C36   C     C_R   0.283458 0.259958 0.877276 0.538235
C37   C     C_R   0.247523 0.941240 0.852645 0.538880
C38   C     C_R   0.402723 0.373777 0.601536 0.564121
C39   C     C_R   0.775022 0.378896 0.629524 0.556988
C40   C     C_1   0.373162 0.361523 0.272661 -0.068602
C41   C     C_1   0.347684 0.343748 0.201662 -0.069515
C42   C     C_3   0.891712 0.196132 0.223255 -0.125081
Cr1   Cr    Cr6+3 0.608340 0.611040 0.520430 1.021503
Cr2   Cr    Cr6+3 0.287650 0.601120 0.489350 1.032287
Cr3   Cr    Cr6+3 0.604040 0.287870 0.490280 1.018174
Cr4   Cr    Cr6+3 0.054020 0.052700 0.970850 1.017344
Cr5   Cr    Cr6+3 0.059230 0.375120 0.993390 1.017574
Cr6   Cr    Cr6+3 0.374950 0.061200 0.992340 1.022595
H1    H     H_    0.195849 0.087810 0.223028 0.125348
H2    H     H_    0.097483 0.913675 0.286181 0.123655
H3    H     H_    0.473032 0.459715 0.769414 0.112048
H4    H     H_    0.561082 0.181905 0.816045 0.145921
H5    H     H_    0.471500 0.095452 0.661208 0.144642
H6    H     H_    0.193087 0.193857 0.709120 0.101206
H7    H     H_    0.107796 0.471743 0.660411 0.147240
H8    H     H_    0.194389 0.555647 0.819297 0.146407
H9    H     H_    0.932934 0.080352 0.200748 0.120839
H10   H     H_    0.037513 0.401799 0.264136 0.130064
H11   H     H_    0.746872 0.597698 0.291194 0.128186
H12   H     H_    0.657457 0.476926 0.142436 0.140275
H13   H     H_    0.479403 0.575902 0.265105 0.090789
H14   H     H_    0.575895 0.749281 0.199462 0.118705
H15   H     H_    0.447831 0.970314 0.327855 0.148868
O1    O     O_R   0.751220 0.499230 0.435170 -0.487632
O2    O     O_R   0.297880 0.469080 0.560050 -0.484006
O3    O     O_R   0.489720 0.254590 0.564810 -0.509636
O4    O     O_R   0.725220 0.304230 0.585080 -0.505135
O5    O     O_3   0.500010 0.500010 0.500020 -0.311518
O6    O     O_R   0.171830 0.913880 0.057510 -0.522851
O7    O     O_R   0.940690 0.186050 0.054730 -0.490645
O8    O     O_R   0.920470 0.405720 0.075010 -0.509379
O9    O     O_R   0.196690 0.370460 0.084120 -0.508988
O10   O     O_R   0.412990 0.180750 0.091610 -0.499944
O11   O     O_R   0.366620 0.943130 0.065760 -0.495457
O12   O     O_R   0.477220 0.727600 0.436870 -0.520110
O13   O     O_R   0.160510 0.906330 0.879210 -0.500751
O14   O     O_R   0.930190 0.179050 0.889450 -0.504837
O15   O     O_R   0.909140 0.398170 0.896710 -0.505450
O16   O     O_R   0.186190 0.363460 0.918830 -0.498884
O17   O     O_R   0.401670 0.173200 0.913310 -0.518182
O18   O     O_R   0.356120 0.936130 0.900470 -0.497181
O19   O     O_3   0.162740 0.163010 0.985530 -0.303418
O20   O     O_R   0.258650 0.745120 0.411470 -0.525236
O21   O     O_R   0.297070 0.467240 0.395960 -0.471848
O22   O     O_R   0.488830 0.252610 0.387790 -0.503259
O23   O     O_R   0.724400 0.302390 0.420980 -0.514149
O24   O     O_R   0.752100 0.501210 0.612190 -0.498072
O25   O     O_R   0.478040 0.729440 0.600970 -0.494902
O26   O     O_R   0.259530 0.747110 0.588490 -0.511696
H16   H     H_    0.644650 0.273325 0.228754 0.124150
H17   H     H_    0.226950 0.692485 0.161223 0.128922
O27   O     O_3   0.040304 0.190003 0.362092 -0.684942
H18   H     H_    0.003949 0.130928 0.381402 0.330813

loop_
_geom_bond_atom_site_label_1
_geom_bond_atom_site_label_2
_ccdc_geom_bond_type
C18   C21   S    
C3    C23   S    
C2    C7    S    
C1    C11   S    
C25   H8    S    
Cr5   O16   S    
C3    C6    S    
Cr4   O13   S    
C18   H4    S    
C7    C8    S    
C32   O9    A    
C24   H7    S    
C12   O22   A    
Cr1   O25   S    
C8    C42   S    
C5    C6    S    
C15   H2    S    
C14   H1    S    
C15   C16   S    
Cr6   O18   S    
C12   O21   A    
C18   C19   S    
Cr5   O19   S    
C2    H16   S    
C9    C13   S    
Cr4   O6    S    
Cr4   O19   S    
C11   C15   S    
C31   O7    A    
C38   O3    A    
C28   C35   S    
C27   C39   S    
Cr1   O5    S    
C23   O23   A    
C18   C26   S    
Cr3   O4    S    
C32   C41   S    
C39   O24   A    
C9    C10   S    
C33   O6    A    
Cr2   O20   S    
C31   O8    A    
C21   C22   S    
C14   C17   S    
C37   O18   A    
Cr2   O2    S    
C17   C33   S    
Cr6   O10   S    
C42   H9    S    
Cr1   O1    S    
Cr1   O12   S    
C9    H14   S    
C1    O12   A    
Cr6   O11   S    
C24   C25   S    
C22   H6    S    
C36   O17   A    
C32   O10   A    
C16   C17   S    
C25   C26   S    
C29   C34   S    
C35   O14   A    
C30   C37   S    
C12   C40   S    
Cr3   O22   S    
C29   C30   T    
C5    C8    S    
C20   C38   S    
C13   H15   S    
C38   O2    A    
Cr3   O5    S    
C34   O25   A    
Cr5   O8    S    
C5    H10   S    
C26   C36   S    
C23   O1    A    
C37   O13   A    
C22   C24   S    
Cr2   O5    S    
C10   H13   S    
C3    C4    S    
C7    H12   S    
Cr3   O3    S    
C9    C17   S    
C40   C41   T    
C8    C31   S    
C39   O4    A    
C6    H11   S    
C4    C5    S    
Cr2   O21   S    
C36   O16   A    
Cr4   O14   S    
C6    C7    S    
C1    O20   A    
C35   O15   A    
Cr1   O24   S    
Cr6   O17   S    
C19   C20   S    
C2    C3    S    
C34   O26   A    
C10   C16   S    
C21   H5    S    
C11   C13   S    
C4    C42   S    
C2    C42   S    
O27   H18   S    
Cr6   O19   S    
Cr3   O23   S    
C19   C25   S    
Cr5   O9    S    
Cr4   O7    S    
C10   C11   S    
C19   H3    S    
C33   O11   A    
C20   C21   S    
C16   H17   S    
C22   C26   S    
C27   C28   T    
C14   C15   S    
Cr5   O15   S    
C13   C14   S    
C20   C24   S    
Cr2   O26   S    
C4    O27   S    
