data_mof_unit_24889.cif
_audit_creation_date              2012-12-10T17:50:47-0500
_audit_creation_method            fapswitch 2.2
_symmetry_space_group_name_H-M    P1
_symmetry_Int_Tables_number       1
_space_group_crystal_system       triclinic
_cell_length_a                    14.774659
_cell_length_b                    14.589978
_cell_length_c                    15.8635
_cell_angle_alpha                 76.245745
_cell_angle_beta                  103.138969
_cell_angle_gamma                 114.727884
_cell_volume                      2985.09324086

loop_
_atom_site_label
_atom_site_type_symbol
_atom_type_description
_atom_site_fract_x
_atom_site_fract_y
_atom_site_fract_z
_atom_type_partial_charge
C1    C     C_R   0.880779 0.311370 0.511756 0.791055
C2    C     C_R   0.359336 0.923504 0.493115 0.089051
C3    C     C_R   0.672603 0.000965 0.502374 0.127670
C4    C     C_R   0.325771 0.998290 0.500875 0.120555
C5    C     C_R   0.533282 0.052157 0.500380 0.075859
C6    C     C_R   0.464306 0.949162 0.496284 0.076613
C7    C     C_R   0.502835 0.874519 0.498660 -0.231297
C8    C     C_R   0.494450 0.126290 0.499342 -0.228574
C9    C     C_R   0.604559 0.900584 0.499677 -0.214113
C10   C     C_R   0.393247 0.099055 0.502170 -0.214345
C11   C     C_R   0.711531 0.668039 0.353177 -0.321491
C12   C     C_R   0.119058 0.688212 0.490090 0.784867
C13   C     C_R   0.288396 0.331666 0.646398 -0.321150
C14   C     C_R   0.790340 0.634287 0.371565 0.396113
C15   C     C_R   0.209274 0.364971 0.627931 0.387052
C16   C     C_R   0.999905 0.499863 0.660162 0.821134
C17   C     C_R   0.000070 0.500089 0.339850 0.822337
C18   C     C_R   0.717741 0.514289 0.491777 -0.026746
C19   C     C_R   0.282631 0.486385 0.508622 -0.022794
C20   C     C_R   0.629502 0.538649 0.468971 -0.033638
C21   C     C_R   0.370868 0.461996 0.531301 -0.034714
C22   C     C_R   0.630062 0.621292 0.400331 0.054551
C23   C     C_R   0.774887 0.024807 0.503362 -0.229923
C24   C     C_R   0.370172 0.379031 0.599646 0.055943
C25   C     C_R   0.541521 0.484089 0.511607 0.032574
C26   C     C_R   0.458911 0.516676 0.488720 0.032204
C27   C     C_R   0.467122 0.604119 0.425109 -0.220252
C28   C     C_R   0.533284 0.396550 0.575079 -0.220511
C29   C     C_R   0.548992 0.654977 0.378383 0.153650
C30   C     C_R   0.451287 0.345411 0.621588 0.153520
C31   C     C_3   0.980130 0.404364 0.044810 -0.158011
C32   C     C_3   0.019518 0.594768 0.955347 -0.159003
C33   C     C_3   0.909073 0.436303 0.966670 -0.157944
C34   C     C_R   0.224937 0.971721 0.508218 -0.221150
C35   C     C_3   0.090573 0.562831 0.033476 -0.157835
C36   C     C_1   0.999835 0.499699 0.750005 -0.191288
C37   C     C_1   0.999976 0.499914 0.250058 -0.191707
C38   C     C_3   0.070856 0.467585 0.994060 -0.156914
C39   C     C_3   0.928794 0.531550 0.006087 -0.156973
C40   C     C_3   0.999799 0.499525 0.917449 0.191981
C41   C     C_3   0.999850 0.499615 0.082697 0.191867
C42   C     C_1   0.999803 0.499579 0.825654 -0.077753
C43   C     C_1   0.999906 0.499753 0.174455 -0.074930
C44   C     C_R   0.813873 0.201909 0.512101 -0.085680
C45   C     C_R   0.846435 0.124698 0.506381 0.153994
C46   C     C_R   0.185701 0.796965 0.492152 -0.094253
C47   C     C_3   0.136663 0.321366 0.694200 -0.805555
C48   C     C_3   0.861823 0.676042 0.304526 -0.800943
C49   C     C_3   0.052688 0.846148 0.532318 -0.391642
C50   C     C_3   0.984924 0.879477 0.454299 -0.816195
C51   C     C_3   0.954312 0.143939 0.500883 -0.398124
C52   C     C_3   0.982029 0.197277 0.409700 -0.781624
C53   C     C_3   0.551060 0.745310 0.304695 -0.401311
C54   C     C_3   0.458569 0.773615 0.282529 -0.857072
C55   C     C_3   0.449091 0.254753 0.694972 -0.402709
C56   C     C_R   0.155036 0.870719 0.508513 0.155706
C57   C     C_3   0.541533 0.226372 0.716972 -0.857766
C58   C     C_R   0.711362 0.175961 0.513586 -0.289420
C59   C     C_R   0.286478 0.825472 0.482722 -0.284428
C60   C     C_R   0.638566 0.077339 0.505126 0.088669
Cu1   Cu    Cu3+1 0.081740 0.475690 0.522610 0.929516
Cu2   Cu    Cu3+1 0.918260 0.524310 0.477390 0.929623
H1    H     H_    0.834559 0.384366 0.937910 0.129889
H2    H     H_    0.035687 0.672937 0.917298 0.128152
H3    H     H_    0.870468 0.557805 0.012354 0.130182
H4    H     H_    0.129182 0.441330 0.987796 0.130330
H5    H     H_    0.630326 0.841025 0.499687 0.151197
H6    H     H_    0.367590 0.157702 0.505122 0.151376
H7    H     H_    0.306279 0.769216 0.466619 0.150515
H8    H     H_    0.690294 0.234889 0.522220 0.153628
H9    H     H_    0.798788 0.965068 0.499795 0.128306
H10   H     H_    0.201343 0.029257 0.517740 0.134983
H11   H     H_    0.456656 0.794281 0.501264 0.144371
H12   H     H_    0.165087 0.614768 0.062236 0.129833
H13   H     H_    0.540013 0.206537 0.497211 0.143193
H14   H     H_    0.057326 0.294779 0.664539 0.247394
H15   H     H_    0.144751 0.253169 0.739021 0.174308
H16   H     H_    0.153788 0.378506 0.736767 0.236547
H17   H     H_    0.941348 0.700058 0.333658 0.255560
H18   H     H_    0.842161 0.618464 0.261680 0.233160
H19   H     H_    0.855352 0.745297 0.260379 0.174350
H20   H     H_    0.016126 0.964037 0.435967 0.240565
H21   H     H_    0.978795 0.845161 0.397008 0.262087
H22   H     H_    0.908519 0.854521 0.471721 0.234046
H23   H     H_    0.273791 0.542291 0.452989 0.129600
H24   H     H_    0.014756 0.764421 0.559013 0.222808
H25   H     H_    0.062505 0.887285 0.586545 0.181570
H26   H     H_    0.934797 0.146909 0.360426 0.235149
H27   H     H_    0.970658 0.270303 0.390738 0.259102
H28   H     H_    0.062360 0.213639 0.409046 0.233546
H29   H     H_    0.007809 0.187010 0.552447 0.219178
H30   H     H_    0.965073 0.070519 0.514307 0.185764
H31   H     H_    0.389798 0.707690 0.263027 0.248738
H32   H     H_    0.448692 0.799563 0.338829 0.254908
H33   H     H_    0.469188 0.837605 0.226467 0.246360
H34   H     H_    0.726837 0.458890 0.547781 0.129861
H35   H     H_    0.617735 0.814239 0.321945 0.202844
H36   H     H_    0.559325 0.727274 0.243311 0.203249
H37   H     H_    0.551507 0.200814 0.660475 0.254912
H38   H     H_    0.610302 0.292127 0.736786 0.248975
H39   H     H_    0.530772 0.162083 0.772782 0.245998
H40   H     H_    0.440696 0.272420 0.756479 0.203668
H41   H     H_    0.382444 0.185934 0.677458 0.200212
H42   H     H_    0.713092 0.728905 0.298540 0.136805
H43   H     H_    0.286711 0.270410 0.700688 0.135176
H44   H     H_    0.409817 0.634406 0.411436 0.144183
H45   H     H_    0.590572 0.366254 0.588654 0.144437
H46   H     H_    0.963967 0.326205 0.082882 0.129874
N1    N     N_R   0.795440 0.560790 0.443380 -0.171900
N2    N     N_R   0.204560 0.439210 0.556620 -0.170258
O1    O     O_R   0.977900 0.338120 0.529810 -0.587800
O2    O     O_R   0.022100 0.661880 0.470190 -0.587135
O3    O     O_R   0.839850 0.379180 0.491620 -0.580401
O4    O     O_R   0.160150 0.620820 0.508380 -0.579350
O5    O     O_R   0.069010 0.479460 0.640020 -0.573750
O6    O     O_R   0.930990 0.520540 0.359980 -0.573277
O7    O     O_R   0.930960 0.520530 0.601820 -0.583753
O8    O     O_R   0.069040 0.479470 0.398180 -0.579594

loop_
_geom_bond_atom_site_label_1
_geom_bond_atom_site_label_2
_ccdc_geom_bond_type
C14   N1    A    
C21   C26   A    
C35   H12   S    
C34   C56   A    
C23   C45   A    
C22   C29   A    
C46   C59   A    
C27   C29   A    
C18   H34   S    
C31   H46   S    
C49   H25   S    
C3    C23   A    
C18   N1    A    
C15   C47   S    
C50   H22   S    
C39   C41   S    
C53   C54   S    
C25   C28   A    
C55   H40   S    
C26   C27   A    
C33   C39   S    
C48   H17   S    
C19   C21   A    
C47   H14   S    
C5    C6    A    
C11   C14   A    
C20   C25   A    
C45   C51   S    
C28   H45   S    
C58   C60   A    
C57   H37   S    
C55   H41   S    
C48   H19   S    
C32   C39   S    
Cu2   O7    S    
C51   H29   S    
C52   H28   S    
C38   H4    S    
C44   C58   A    
C54   H31   S    
Cu1   O5    S    
C31   C33   S    
C11   H42   S    
C41   C43   S    
C3    C60   A    
C40   C42   S    
C39   H3    S    
C15   N2    A    
C52   H27   S    
C2    C6    A    
C1    O3    A    
Cu1   N2    S    
C50   H21   S    
C12   O4    A    
C4    C34   A    
C33   C40   S    
C51   C52   S    
C32   C35   S    
C23   H9    S    
C52   H26   S    
C35   C38   S    
C32   H2    S    
Cu2   O3    S    
C7    H11   S    
C2    C59   A    
C58   H8    S    
C14   C48   S    
C27   H44   S    
C53   H35   S    
C25   C26   A    
C57   H38   S    
C8    H13   S    
C13   C24   A    
C12   C46   S    
C37   C43   T    
C2    C4    A    
C9    H5    S    
Cu2   O6    S    
C3    C9    A    
C51   H30   S    
C1    C44   S    
C33   H1    S    
C17   C37   S    
C54   H33   S    
C17   O8    A    
C59   H7    S    
C13   H43   S    
C20   C22   A    
C55   C57   S    
C47   H15   S    
C4    C10   A    
Cu1   O1    S    
C16   O5    A    
C34   H10   S    
C12   O2    A    
C44   C45   A    
C50   H20   S    
C19   N2    A    
C7    C9    A    
C31   C41   S    
C5    C60   A    
Cu1   O8    S    
C49   H24   S    
C19   H23   S    
C36   C42   T    
C5    C8    A    
C6    C7    A    
C10   H6    S    
C53   H36   S    
C49   C56   S    
C57   H39   S    
C30   C55   S    
C11   C22   A    
C31   C38   S    
C48   H18   S    
C13   C15   A    
C16   O7    A    
C1    O1    A    
C38   C40   S    
Cu2   N1    S    
C29   C53   S    
C28   C30   A    
C18   C20   A    
C32   C40   S    
Cu1   Cu2   S    
C35   C41   S    
C24   C30   A    
C54   H32   S    
Cu2   O2    S    
C8    C10   A    
C49   C50   S    
C21   C24   A    
C46   C56   A    
Cu1   O4    S    
C47   H16   S    
C16   C36   S    
C17   O6    A    
