data_mof_unit_9287.cif
_audit_creation_date              2012-10-26T20:51:09-0400
_audit_creation_method            fapswitch 2.2
_symmetry_space_group_name_H-M    P1
_symmetry_Int_Tables_number       1
_space_group_crystal_system       triclinic
_cell_length_a                    13.015594
_cell_length_b                    10.77642
_cell_length_c                    9.571877
_cell_angle_alpha                 90.003285
_cell_angle_beta                  96.460377
_cell_angle_gamma                 90.368838
_cell_volume                      1334.0124208

loop_
_atom_site_label
_atom_site_type_symbol
_atom_type_description
_atom_site_fract_x
_atom_site_fract_y
_atom_site_fract_z
_atom_type_partial_charge
C1    C     C_R   0.497179 0.262731 0.499819 0.523696
C2    C     C_R   0.415399 0.932807 0.411045 0.111865
C3    C     C_R   0.491706 0.870356 0.500466 0.045240
C4    C     C_R   0.300850 0.499141 0.473468 0.533877
C5    C     C_R   0.554488 0.937165 0.601258 -0.017437
C6    C     C_3   0.668627 0.931227 0.643825 0.145817
C7    C     C_3   0.668301 0.073219 0.642518 0.002104
C8    C     C_R   0.573436 0.565204 0.084529 0.229280
C9    C     C_R   0.434075 0.425739 0.063814 0.194130
C10   C     C_R   0.434217 0.426287 0.914894 -0.002647
C11   C     C_R   0.574128 0.563961 0.937495 0.132257
C12   C     C_R   0.028396 0.526057 0.559753 0.035542
C13   C     C_3   0.597776 0.699127 0.931138 -0.202060
C14   C     C_3   0.594228 0.702197 0.089281 0.264210
C15   C     C_R   0.498915 0.737296 0.499878 0.608608
C16   C     C_R   0.699489 0.500265 0.526479 0.602497
C17   C     C_R   0.812871 0.503535 0.541779 0.050500
C18   C     C_R   0.188575 0.493578 0.458251 -0.013978
C19   C     C_R   0.027782 0.425102 0.331352 -0.117743
C20   C     C_R   0.134307 0.439089 0.339598 -0.124540
C21   C     C_R   0.135809 0.537277 0.567256 -0.089637
C22   C     C_R   0.973501 0.467508 0.441188 0.005648
C23   C     C_R   0.865974 0.451687 0.435471 0.035576
C24   C     C_R   0.867155 0.565806 0.657115 0.205059
C25   C     C_R   0.976241 0.570564 0.670237 0.218702
C26   C     C_R   0.553710 0.064460 0.600540 -0.062957
C27   C     C_R   0.488597 0.129539 0.501403 -0.013111
C28   C     C_R   0.411991 0.063543 0.412968 0.212364
Cu1   Cu    Cu3+1 0.499990 0.499980 0.640670 0.969469
Cu2   Cu    Cu3+1 0.500010 0.500020 0.359330 1.054604
H1    H     H_    0.688584 0.115269 0.748238 0.121816
H2    H     H_    0.840289 0.292876 0.321274 0.234731
H3    H     H_    0.794630 0.874220 0.577876 0.344137
H4    H     H_    0.693654 0.100281 0.433991 0.271728
H5    H     H_    0.718438 0.224306 0.539418 0.235032
H6    H     H_    0.288367 0.369483 0.079703 0.205485
H7    H     H_    0.377330 0.255983 0.097529 0.236878
H8    H     H_    0.684837 0.726645 0.276404 0.295655
H9    H     H_    0.710467 0.826407 0.150033 0.222315
H10   H     H_    0.527137 0.860118 0.109260 0.314904
H11   H     H_    0.852391 0.697618 0.792017 0.323764
H12   H     H_    0.379703 0.368499 0.850102 0.125008
H13   H     H_    0.993914 0.606343 0.870646 0.338700
H14   H     H_    0.326237 0.207540 0.361908 0.340969
H15   H     H_    0.344060 0.892910 0.217358 0.284018
H16   H     H_    0.267107 0.884490 0.348104 0.249530
H17   H     H_    0.675978 0.716553 0.899693 0.151368
H18   H     H_    0.534787 0.752940 0.871583 0.147276
H19   H     H_    0.989107 0.380472 0.238590 0.120467
H20   H     H_    0.174457 0.403805 0.255123 0.142461
H21   H     H_    0.179172 0.580510 0.657917 0.189995
H22   H     H_    0.688548 0.889997 0.749763 0.091476
H23   H     H_    0.816758 0.426802 0.227769 0.244232
N1    N     N_R   0.500660 0.500930 0.148010 -0.188658
N2    N     N_R   0.500660 0.500890 0.852110 -0.256815
N3    N     N_3   0.809590 0.382200 0.323221 -0.615742
N4    N     N_3   0.725971 0.127992 0.534325 -0.589784
N5    N     N_3   0.362731 0.347456 0.125410 -0.559080
N6    N     N_3   0.693460 0.733442 0.169412 -0.619453
N7    N     N_3   0.340545 0.863390 0.320750 -0.562664
O1    O     O_R   0.500000 0.319640 0.618810 -0.517505
O2    O     O_3   0.511322 0.771929 0.128359 -0.663094
O3    O     O_3   0.811772 0.625457 0.751805 -0.712129
O4    O     O_3   0.033340 0.618323 0.788919 -0.722898
O5    O     O_3   0.333914 0.121709 0.328053 -0.713954
O6    O     O_R   0.500010 0.319680 0.381230 -0.478436
O7    O     O_R   0.348990 0.499960 0.599490 -0.521616
O8    O     O_R   0.349000 0.500000 0.361910 -0.467604
O9    O     O_R   0.499990 0.680320 0.618770 -0.522729
O10   O     O_R   0.500000 0.680360 0.381190 -0.424118
O11   O     O_R   0.651000 0.500000 0.638090 -0.453890
O12   O     O_R   0.651010 0.500040 0.400510 -0.491242
O13   O     O_3   0.720886 0.877839 0.538509 -0.687472

loop_
_geom_bond_atom_site_label_1
_geom_bond_atom_site_label_2
_ccdc_geom_bond_type
C4    O7    A    
C8    C14   S    
H15   N7    S    
C6    C7    S    
C10   N2    A    
C2    C3    A    
H4    N4    S    
C18   C21   A    
Cu2   N1    S    
C9    C10   A    
C19   H19   S    
C6    H22   S    
C18   C20   A    
H7    N5    S    
C16   O12   A    
C12   C25   A    
H5    N4    S    
C4    C18   S    
C3    C5    A    
C19   C20   A    
C28   O5    S    
C26   C27   A    
H10   O2    S    
C23   N3    S    
Cu1   O1    S    
C17   C23   A    
C13   C14   S    
C14   N6    S    
C11   C13   S    
H14   O5    S    
Cu2   O6    S    
C16   O11   A    
C7    C26   S    
C8    C11   A    
H3    O13   S    
Cu2   O10   S    
C7    N4    S    
H13   O4    S    
C1    O6    A    
C24   O3    S    
Cu1   O9    S    
C5    C6    S    
C15   O9    A    
C13   H18   S    
C2    N7    S    
C17   C24   A    
C7    H1    S    
H11   O3    S    
H6    N5    S    
Cu1   Cu2   S    
H8    N6    S    
C14   O2    S    
C12   C22   A    
C21   H21   S    
C19   C22   A    
C11   N2    A    
C24   C25   A    
C6    O13   S    
C4    O8    A    
H9    N6    S    
H23   N3    S    
C8    N1    A    
C27   C28   A    
C1    C27   S    
C15   O10   A    
C2    C28   A    
C22   C23   A    
C9    N5    S    
C10   H12   S    
C20   H20   S    
C9    N1    A    
Cu1   N2    S    
H16   N7    S    
Cu1   O7    S    
C13   H17   S    
C12   C21   A    
H2    N3    S    
Cu2   O8    S    
Cu2   O12   S    
C5    C26   A    
C16   C17   S    
C3    C15   S    
Cu1   O11   S    
C25   O4    S    
C1    O1    A    
