data_mof_unit_46501.cif
_audit_creation_date              2012-12-10T16:59:13-0500
_audit_creation_method            fapswitch 2.2
_symmetry_space_group_name_H-M    P1
_symmetry_Int_Tables_number       1
_space_group_crystal_system       triclinic
_cell_length_a                    7.677269
_cell_length_b                    8.65142
_cell_length_c                    27.373159
_cell_angle_alpha                 90.439334
_cell_angle_beta                  85.375972
_cell_angle_gamma                 93.998646
_cell_volume                      1807.77258775

loop_
_atom_site_label
_atom_site_type_symbol
_atom_type_description
_atom_site_fract_x
_atom_site_fract_y
_atom_site_fract_z
_atom_type_partial_charge
C1    C     C_R   0.543544 0.795297 0.495764 0.944676
C2    C     C_R   0.716175 0.571166 0.125485 -0.008882
C3    C     C_R   0.516454 0.516663 0.647393 -0.194384
C4    C     C_R   0.497702 0.492148 0.351819 -0.189298
C5    C     C_R   0.771312 0.579958 0.022654 0.065249
C6    C     C_R   0.647480 0.325751 0.966358 0.065704
C7    C     C_R   0.628276 0.317209 0.018302 -0.013726
C8    C     C_R   0.771293 0.595137 0.971037 -0.008362
C9    C     C_R   0.687062 0.445480 0.046208 0.078750
C10   C     C_R   0.705455 0.469025 0.943346 0.078970
C11   C     C_R   0.847024 0.697321 0.051987 -0.244712
C12   C     C_R   0.450929 0.205301 0.498633 0.969668
C13   C     C_R   0.603498 0.197517 0.936373 -0.239186
C14   C     C_R   0.817686 0.693735 0.102440 -0.150191
C15   C     C_R   0.591694 0.215455 0.886657 -0.155815
C16   C     C_R   0.502658 0.501042 0.594396 0.978295
C17   C     C_R   0.498451 0.502203 0.405477 0.921731
C18   C     C_R   0.829103 0.734750 0.946472 -0.212124
C19   C     C_R   0.543372 0.186896 0.042996 -0.208441
C20   C     C_2   0.551656 0.954712 0.481099 -0.062960
C21   C     C_2   0.414135 0.042527 0.497215 -0.075627
C22   C     C_R   0.684592 0.650664 0.821198 0.474120
C23   C     C_R   0.690953 0.487336 0.892505 -0.065572
C24   C     C_R   0.523172 0.324671 0.173518 0.507547
C25   C     C_R   0.603079 0.380594 0.815628 0.521395
C26   C     C_R   0.672576 0.575690 0.175753 0.468414
C27   C     C_R   0.402366 0.495477 0.732973 0.080451
C28   C     C_R   0.396978 0.545980 0.271209 0.063508
C29   C     C_R   0.382413 0.461788 0.682911 0.329969
C30   C     C_R   0.378836 0.565889 0.323344 0.358383
C31   C     C_R   0.674257 0.585659 0.662298 -0.230560
C32   C     C_R   0.626781 0.403352 0.328880 -0.243165
C33   C     C_R   0.704821 0.591727 0.711236 -0.073620
C34   C     C_R   0.656730 0.442096 0.097973 -0.070248
C35   C     C_R   0.646839 0.390180 0.278892 -0.145049
C36   C     C_R   0.572042 0.544184 0.746752 0.259406
C37   C     C_R   0.537024 0.462627 0.250073 0.266423
C38   C     C_3   0.903450 0.900560 0.870333 -0.303365
C39   C     C_3   0.038748 0.997122 0.898070 -0.917725
C40   C     C_3   0.430591 0.029833 0.118558 -0.310595
C41   C     C_3   0.404190 0.887421 0.085592 -0.941595
C42   C     C_3   0.269669 0.606174 0.237208 -0.324380
C43   C     C_3   0.093061 0.512678 0.242264 -0.739147
C44   C     C_3   0.246549 0.480535 0.771265 -0.365535
C45   C     C_R   0.734068 0.632664 0.869489 -0.104275
C46   C     C_3   0.219584 0.631665 0.799146 -0.874293
C47   C     C_3   0.702054 0.009533 0.443281 -0.459273
C48   C     C_3   0.720376 0.903864 0.398287 -0.710606
C49   C     C_3   0.228426 0.975696 0.519173 -0.358265
C50   C     C_3   0.075104 0.078131 0.530987 -0.747289
C51   C     C_R   0.564098 0.312607 0.122183 -0.095796
C52   C     C_R   0.819406 0.753830 0.895924 0.149188
C53   C     C_R   0.514377 0.179220 0.094219 0.162330
C54   C     C_R   0.629038 0.360170 0.864791 -0.007031
H1    H     H_    0.779021 0.627392 0.635744 0.190783
H2    H     H_    0.576647 0.081121 0.950018 0.144190
H3    H     H_    0.875901 0.833746 0.966512 0.158182
H4    H     H_    0.490334 0.091770 0.022459 0.162551
H5    H     H_    0.973879 0.058396 0.929575 0.260116
H6    H     H_    0.138088 0.922648 0.910864 0.264536
H7    H     H_    0.107279 0.086661 0.873184 0.272558
H8    H     H_    0.973793 0.866801 0.835269 0.242918
H9    H     H_    0.799783 0.976298 0.861820 0.249733
H10   H     H_    0.302125 0.905011 0.060014 0.255845
H11   H     H_    0.529065 0.862091 0.064755 0.277272
H12   H     H_    0.715645 0.343841 0.349812 0.192475
H13   H     H_    0.359088 0.784974 0.108656 0.264239
H14   H     H_    0.516085 0.995074 0.146892 0.256416
H15   H     H_    0.299660 0.052970 0.136301 0.245222
H16   H     H_    0.201799 0.894701 0.314596 0.365190
H17   H     H_    0.242328 0.152597 0.722246 0.374820
H18   H     H_    0.111641 0.387802 0.235696 0.248715
H19   H     H_    0.024770 0.526592 0.279041 0.313693
H20   H     H_    0.008886 0.552548 0.214514 0.258255
H21   H     H_    0.257001 0.731627 0.242128 0.249353
H22   H     H_    0.318165 0.597402 0.198129 0.185423
H23   H     H_    0.015780 0.386755 0.462560 0.201805
H24   H     H_    0.328126 0.662200 0.822487 0.278354
H25   H     H_    0.207939 0.727736 0.773165 0.279762
H26   H     H_    0.097036 0.617151 0.823549 0.247716
H27   H     H_    0.122591 0.452861 0.753968 0.270047
H28   H     H_    0.261514 0.386453 0.797565 0.235050
H29   H     H_    0.759362 0.787822 0.407946 0.297613
H30   H     H_    0.596329 0.892366 0.380118 0.268821
H31   H     H_    0.824240 0.955739 0.371550 0.266577
H32   H     H_    0.683839 0.124630 0.427753 0.229440
H33   H     H_    0.826662 0.015385 0.460957 0.226358
H34   H     H_    0.984428 0.614922 0.536960 0.188973
H35   H     H_    0.099123 0.159660 0.561355 0.333825
H36   H     H_    0.046704 0.141771 0.497935 0.235302
H37   H     H_    0.955818 0.003457 0.542936 0.221649
H38   H     H_    0.174225 0.894642 0.491566 0.263281
H39   H     H_    0.244011 0.914084 0.553916 0.233506
H40   H     H_    0.833991 0.630473 0.721611 0.178113
H41   H     H_    0.750768 0.324293 0.262072 0.158109
H42   H     H_    0.872189 0.789840 0.123287 0.192751
H43   H     H_    0.547181 0.115748 0.865665 0.196519
H44   H     H_    0.928691 0.794940 0.037264 0.142604
N1    N     N_R   0.618100 0.525767 0.796005 -0.330491
N2    N     N_R   0.575955 0.454944 0.198258 -0.339352
N3    N     N_2   0.950320 0.457960 0.486880 -0.143596
N4    N     N_2   0.049680 0.542040 0.513120 -0.147217
O1    O     O_R   0.389250 0.738570 0.503220 -0.642652
O2    O     O_2   0.428801 0.210490 0.198953 -0.593428
O3    O     O_2   0.723914 0.700854 0.202169 -0.562437
O4    O     O_2   0.560047 0.256617 0.787632 -0.550359
O5    O     O_2   0.069080 0.568746 0.375830 -0.291978
O6    O     O_2   0.286797 0.775526 0.393501 -0.342656
O7    O     O_3   0.121674 0.799683 0.316523 -0.553018
O8    O     O_2   0.067961 0.402952 0.647711 -0.285594
O9    O     O_2   0.292440 0.220908 0.625889 -0.332520
O10   O     O_3   0.139596 0.205852 0.713085 -0.529452
O11   O     O_R   0.610750 0.261430 0.496780 -0.646631
O12   O     O_R   0.678390 0.711630 0.494810 -0.631091
O13   O     O_R   0.321610 0.288370 0.505190 -0.612868
O14   O     O_R   0.355440 0.513440 0.575450 -0.570260
O15   O     O_R   0.644560 0.486560 0.424550 -0.624498
O16   O     O_R   0.644590 0.486500 0.567040 -0.625080
O17   O     O_R   0.355410 0.513500 0.432960 -0.551406
O18   O     O_2   0.694429 0.791583 0.800102 -0.566440
S1    S     S_3+6 0.212738 0.678793 0.353251 -0.008884
S2    S     S_3+6 0.216728 0.321732 0.665974 0.019107
Zn1   Zn    Zn3+2 0.306940 0.517990 0.505620 1.017776
Zn2   Zn    Zn3+2 0.693060 0.482010 0.494380 0.973273

loop_
_geom_bond_atom_site_label_1
_geom_bond_atom_site_label_2
_ccdc_geom_bond_type
C43   H19   S    
C51   C53   A    
C43   H18   S    
C23   C45   A    
O14   Zn1   S    
C27   C29   A    
H23   N3    S    
O6    S1    D    
O1    Zn1   S    
C33   H40   S    
C21   C49   S    
C18   C52   A    
C41   H13   S    
C22   O18   S    
C42   H21   S    
N3    N4    D    
C11   H44   S    
C35   C37   A    
O15   Zn2   S    
C38   H9    S    
C44   H28   S    
C46   H25   S    
C11   C14   A    
C38   C52   S    
C33   C36   A    
C3    C29   A    
C18   H3    S    
C27   C44   S    
C50   H36   S    
C31   C33   A    
C1    O1    A    
C17   O15   A    
C13   H2    S    
O12   Zn2   S    
C2    C34   A    
C24   C51   A    
C29   S2    S    
O9    S2    D    
C15   H43   S    
C16   O14   A    
C26   O3    S    
C14   H42   S    
C44   C46   S    
C25   O4    S    
C19   H4    S    
C39   H7    S    
N3    Zn2   S    
O13   Zn1   S    
C40   H15   S    
O7    S1    S    
C32   C35   A    
C25   C54   A    
C44   H27   S    
C46   H24   S    
C41   H11   S    
C45   C52   A    
C12   C21   S    
C8    C18   A    
C48   H30   S    
C24   O2    S    
C47   H33   S    
C15   C54   A    
O10   S2    S    
H16   O7    S    
C16   O16   A    
C50   H35   S    
C47   C48   S    
C30   S1    S    
C39   H5    S    
H17   O10   S    
C34   C51   A    
C2    C26   A    
O16   Zn2   S    
C3    C31   A    
C4    C32   A    
C4    C17   S    
C40   C41   S    
C49   C50   S    
C7    C19   A    
C13   C15   A    
C40   H14   S    
C9    C34   A    
C10   C23   A    
C1    O12   A    
O5    S1    D    
C49   H38   S    
N4    Zn1   S    
C23   C54   A    
C32   H12   S    
C12   O11   A    
C7    C9    A    
C1    C20   S    
C22   N1    A    
C24   N2    A    
C5    C9    A    
C6    C10   A    
C5    C8    A    
H34   N4    S    
C5    C11   A    
C6    C7    A    
O17   Zn1   S    
C27   C36   A    
C42   H22   S    
C48   H29   S    
C31   H1    S    
C12   O13   A    
C28   C30   A    
C47   H32   S    
O8    S2    D    
C6    C13   A    
C46   H26   S    
C25   N1    A    
C19   C53   A    
C38   C39   S    
O11   Zn2   S    
C28   C37   A    
C43   H20   S    
C39   H6    S    
C28   C42   S    
C36   N1    S    
C2    C14   A    
C20   C47   S    
C17   O17   A    
C50   H37   S    
C22   C45   A    
C20   C21   D    
C8    C10   A    
C40   C53   S    
C42   C43   S    
C48   H31   S    
C41   H10   S    
C49   H39   S    
C37   N2    S    
C4    C30   A    
C3    C16   S    
C26   N2    A    
C35   H41   S    
C38   H8    S    
