data_mof_unit_45302.cif
_audit_creation_date              2013-03-05T16:17:30-0500
_audit_creation_method            fapswitch 2.2
_symmetry_space_group_name_H-M    P1
_symmetry_Int_Tables_number       1
_space_group_crystal_system       triclinic
_cell_length_a                    30.525676
_cell_length_b                    33.545302
_cell_length_c                    8.699829
_cell_angle_alpha                 90.184807
_cell_angle_beta                  90.148015
_cell_angle_gamma                 89.902832
_cell_volume                      8908.47541959

loop_
_atom_site_label
_atom_site_type_symbol
_atom_site_description
_atom_site_fract_x
_atom_site_fract_y
_atom_site_fract_z
_atom_type_partial_charge
P1    P     P_3+3 0.909970 0.458430 0.077330 0.582422
P2    P     P_3+3 0.909970 0.541570 0.577330 0.542165
P3    P     P_3+3 0.409970 0.958430 0.077330 0.587141
P4    P     P_3+3 0.409970 0.041570 0.577330 0.545381
O1    O     O_2   0.914200 0.445720 0.903420 -0.323165
O2    O     O_2   0.914200 0.554280 0.403420 -0.382998
O3    O     O_2   0.414200 0.945720 0.903420 -0.318639
O4    O     O_2   0.414200 0.054280 0.403420 -0.386230
O5    O     O_3   0.950020 0.480960 0.143730 -0.304832
O6    O     O_3   0.950020 0.519040 0.643730 -0.291214
O7    O     O_3   0.450020 0.980960 0.143730 -0.299657
O8    O     O_3   0.450020 0.019040 0.643730 -0.287280
O9    O     O_3   0.985090 0.412220 0.642040 -0.301805
O10   O     O_3   0.985090 0.587780 0.142040 -0.308362
O11   O     O_3   0.485090 0.912220 0.642040 -0.328302
O12   O     O_3   0.485090 0.087780 0.142040 -0.314538
O13   O     O_2   0.906443 0.388012 0.714271 -0.333603
O14   O     O_2   0.907413 0.615902 0.216043 -0.373941
O15   O     O_2   0.409074 0.885155 0.723901 -0.334008
O16   O     O_2   0.408520 0.115690 0.223878 -0.383024
O17   O     O_3   0.863833 0.489330 0.126800 -0.623887
O18   O     O_3   0.862334 0.512520 0.626212 -0.618007
O19   O     O_3   0.364089 0.989627 0.126849 -0.623896
O20   O     O_3   0.362631 0.012223 0.626424 -0.615284
O21   O     O_3   0.963266 0.330968 0.682866 -0.532596
O22   O     O_3   0.966977 0.670220 0.174855 -0.510766
O23   O     O_3   0.468171 0.830648 0.683171 -0.554340
O24   O     O_3   0.467880 0.169722 0.174931 -0.509644
C1    C     C_3   0.979273 0.272276 0.534379 -0.730076
C2    C     C_3   0.974574 0.728399 0.012410 -0.741708
C3    C     C_3   0.487700 0.779468 0.503238 -0.741773
C4    C     C_3   0.477384 0.221962 0.986010 -0.789516
H1    H     H_    0.972354 0.253862 0.637393 0.240800
H2    H     H_    0.943881 0.723349 0.946732 0.252272
H3    H     H_    0.475252 0.757289 0.587305 0.255887
H4    H     H_    0.448493 0.212750 0.916852 0.265177
P5    P     P_3+3 0.089830 0.458070 0.612460 0.508545
P6    P     P_3+3 0.089830 0.541930 0.112460 0.489420
P7    P     P_3+3 0.589830 0.958070 0.612460 0.534508
P8    P     P_3+3 0.589830 0.041930 0.112460 0.554056
P9    P     P_3+3 0.054003 0.375731 0.091716 0.511214
P10   P     P_3+3 0.060932 0.616450 0.595467 0.561103
P11   P     P_3+3 0.559298 0.879536 0.070586 0.493711
P12   P     P_3+3 0.556678 0.121819 0.588133 0.564341
O25   O     O_2   0.085560 0.445380 0.786390 -0.375441
O26   O     O_2   0.085560 0.554620 0.286390 -0.287097
O27   O     O_2   0.585560 0.945380 0.786390 -0.338196
O28   O     O_2   0.585560 0.054620 0.286390 -0.326200
O29   O     O_3   0.014550 0.412170 0.047860 -0.388593
O30   O     O_3   0.014550 0.587830 0.547860 -0.375376
O31   O     O_3   0.514550 0.912170 0.047860 -0.396053
O32   O     O_3   0.514550 0.087830 0.547860 -0.385239
O33   O     O_2   0.096570 0.387146 0.006040 -0.341302
O34   O     O_2   0.101871 0.592879 0.542019 -0.319670
O35   O     O_2   0.584801 0.880660 0.917677 -0.325774
O36   O     O_2   0.598499 0.106947 0.505148 -0.285661
O37   O     O_3   0.133419 0.491741 0.593753 -0.562926
O38   O     O_3   0.135457 0.510223 0.114616 -0.602444
O39   O     O_3   0.629865 0.995345 0.621754 -0.523745
O40   O     O_3   0.628542 0.003201 0.114008 -0.534404
O41   O     O_3   0.037037 0.331575 0.003417 -0.454676
O42   O     O_3   0.059667 0.659453 0.483145 -0.420772
O43   O     O_3   0.541478 0.829797 0.071494 -0.524615
O44   O     O_3   0.542395 0.166667 0.499774 -0.451273
C5    C     C_3   0.995413 0.321604 0.060792 0.316560
C6    C     C_3   0.023388 0.682980 0.528206 0.336000
C7    C     C_3   0.495727 0.827716 0.088485 0.256887
C8    C     C_3   0.500551 0.177675 0.553600 0.322815
H5    H     H_    0.994308 0.323420 0.188516 -0.018057
H6    H     H_    0.012303 0.677860 0.648493 -0.006840
H7    H     H_    0.487223 0.834307 0.209981 0.014196
H8    H     H_    0.497904 0.174834 0.680816 -0.012415
C9    C     C_3   0.984884 0.278827 0.013591 -0.679570
C10   C     C_3   0.035390 0.727020 0.515309 -0.699592
C11   C     C_3   0.480855 0.785496 0.045524 -0.683780
C12   C     C_3   0.491861 0.221173 0.513360 -0.666952
C13   C     C_3   0.122874 0.472656 0.168296 0.257076
C14   C     C_3   0.145406 0.508972 0.734360 0.328115
C15   C     C_3   0.663915 0.012800 0.210803 0.192770
C16   C     C_3   0.669614 0.978730 0.672658 0.146464
C17   C     C_3   0.163534 0.446589 0.191757 -0.694207
C18   C     C_3   0.188303 0.531398 0.708164 -0.634591
C19   C     C_3   0.698130 0.979744 0.196773 -0.645869
C20   C     C_3   0.702664 0.012370 0.695173 -0.592665
H9    H     H_    0.153321 0.416665 0.230671 0.155459
H10   H     H_    0.213314 0.510096 0.664592 0.197475
H11   H     H_    0.706680 0.975437 0.073880 0.217593
H12   H     H_    0.708266 0.027562 0.583677 0.190033
H13   H     H_    0.184601 0.460064 0.282500 0.236563
H14   H     H_    0.183217 0.554721 0.619236 0.261902
H15   H     H_    0.684173 0.951317 0.240308 0.217943
H16   H     H_    0.689186 0.034617 0.777711 0.219790
Ba1   Ba    Ba6+2 0.999930 0.472870 0.844940 1.664746
Ba2   Ba    Ba6+2 0.999930 0.527130 0.344940 1.675753
Ba3   Ba    Ba6+2 0.499930 0.972870 0.844940 1.678146
Ba4   Ba    Ba6+2 0.499930 0.027130 0.344940 1.689745
C21   C     C_3   0.843123 0.513061 0.013699 0.204992
C22   C     C_3   0.841016 0.488974 0.513302 0.217485
C23   C     C_3   0.343122 0.013006 0.013409 0.205190
C24   C     C_3   0.340890 0.989415 0.512643 0.214173
C25   C     C_3   0.815288 0.486858 0.909343 -0.681682
C26   C     C_3   0.815544 0.515608 0.404439 -0.823493
C27   C     C_3   0.315086 0.986598 0.910330 -0.682994
C28   C     C_3   0.315853 0.016753 0.404972 -0.830538
H17   H     H_    0.837660 0.466672 0.848502 0.253823
H18   H     H_    0.839852 0.534127 0.347720 0.209521
H19   H     H_    0.337308 0.966444 0.848703 0.255249
H20   H     H_    0.340194 0.035560 0.349497 0.212614
O45   O     O_3   0.049930 0.518940 0.045960 -0.409068
O46   O     O_3   0.049930 0.481060 0.545960 -0.362407
O47   O     O_3   0.549930 0.018940 0.045960 -0.340418
O48   O     O_3   0.549930 0.981060 0.545960 -0.329277
P13   P     P_3+3 0.945950 0.624856 0.107018 0.538183
P14   P     P_3+3 0.944814 0.376462 0.609077 0.536675
P15   P     P_3+3 0.445754 0.124528 0.110157 0.528342
P16   P     P_3+3 0.446349 0.875226 0.611698 0.509950
C29   C     C_3   0.994771 0.314079 0.582706 0.250309
C30   C     C_3   0.993841 0.687954 0.061233 0.284668
C31   C     C_3   0.502715 0.817236 0.587964 0.221971
C32   C     C_3   0.497107 0.184813 0.063079 0.279258
H21   H     H_    0.948207 0.275215 0.468614 0.248772
H22   H     H_    0.997631 0.743723 0.933794 0.187972
H23   H     H_    0.460240 0.787377 0.425321 0.225984
H24   H     H_    0.501466 0.235073 0.905037 0.155126
H25   H     H_    0.723181 0.345498 0.950269 0.211056
H26   H     H_    0.706129 0.667287 0.691204 0.209502
H27   H     H_    0.228452 0.844651 0.921770 0.208823
H28   H     H_    0.220287 0.151546 0.464106 0.210440
C33   C     C_R   0.935656 0.400778 0.291727 -0.408067
C34   C     C_R   0.936749 0.599470 0.788781 -0.338808
C35   C     C_R   0.435348 0.900706 0.294474 -0.415438
C36   C     C_R   0.435973 0.099954 0.791038 -0.362250
C37   C     C_R   0.218280 0.704279 0.191920 -0.095978
C38   C     C_R   0.222514 0.299143 0.676411 -0.098854
C39   C     C_R   0.726937 0.198152 0.162989 -0.104895
C40   C     C_R   0.756922 0.811700 0.516196 -0.096049
C41   C     C_R   0.182274 0.679734 0.149010 0.531552
C42   C     C_R   0.185732 0.323396 0.638750 0.526309
C43   C     C_R   0.690787 0.173265 0.123862 0.540043
C44   C     C_R   0.724028 0.839785 0.471996 0.492669
O49   O     O_2   0.166332 0.657379 0.243938 -0.551848
O50   O     O_2   0.173562 0.348703 0.730230 -0.574735
O51   O     O_2   0.679705 0.147102 0.212677 -0.569794
O52   O     O_2   0.733335 0.874739 0.451381 -0.583759
N1    N     N_R   0.163783 0.682291 0.002929 -0.159890
N2    N     N_R   0.162363 0.317319 0.502891 -0.158036
N3    N     N_R   0.666839 0.179494 0.989589 -0.159458
N4    N     N_R   0.681027 0.828223 0.453335 -0.160416
C45   C     C_R   0.174853 0.714758 0.912166 0.533225
C46   C     C_R   0.169884 0.282069 0.422411 0.513673
C47   C     C_R   0.673718 0.214774 0.909886 0.507496
C48   C     C_R   0.668390 0.789648 0.483097 0.564007
O53   O     O_2   0.165391 0.714863 0.775901 -0.573775
O54   O     O_2   0.156628 0.278367 0.290869 -0.591505
O55   O     O_2   0.659801 0.218370 0.779175 -0.587878
O56   O     O_2   0.631104 0.779519 0.450877 -0.604106
C49   C     C_R   0.199241 0.747040 0.974770 -0.142931
C50   C     C_R   0.195261 0.250961 0.488578 -0.127533
C51   C     C_R   0.699000 0.246051 0.975833 -0.130504
C52   C     C_R   0.698365 0.761955 0.548574 -0.148593
C53   C     C_R   0.224627 0.739664 0.108166 0.050612
C54   C     C_R   0.225169 0.261292 0.606606 0.052718
C55   C     C_R   0.728937 0.236102 0.094374 0.047813
C56   C     C_R   0.743473 0.772756 0.558756 0.032049
C57   C     C_R   0.246021 0.696009 0.320411 -0.127517
C58   C     C_R   0.254718 0.310328 0.787665 -0.107902
C59   C     C_R   0.759211 0.187351 0.274442 -0.105897
C60   C     C_R   0.802288 0.821833 0.525833 -0.131616
C61   C     C_R   0.793001 0.214664 0.315128 -0.125570
C62   C     C_R   0.833333 0.793820 0.581766 -0.127857
C63   C     C_R   0.280449 0.722786 0.360005 -0.120243
C64   C     C_R   0.289490 0.283647 0.824906 -0.143829
C65   C     C_R   0.794631 0.253078 0.245449 -0.060681
C66   C     C_R   0.820179 0.754232 0.618759 -0.089233
C67   C     C_R   0.286535 0.758437 0.273956 -0.061315
C68   C     C_R   0.291769 0.245377 0.753559 -0.077417
C69   C     C_R   0.760670 0.264270 0.144182 -0.005394
C70   C     C_R   0.775059 0.744389 0.611123 0.004855
C71   C     C_R   0.256097 0.767942 0.157930 -0.001483
C72   C     C_R   0.257475 0.233572 0.654873 -0.005035
C73   C     C_R   0.200534 0.785712 0.907226 -0.077941
C74   C     C_R   0.193237 0.210554 0.437850 -0.097444
C75   C     C_R   0.696728 0.286338 0.924603 -0.079606
C76   C     C_R   0.685072 0.723697 0.602225 -0.100134
C77   C     C_R   0.725613 0.314724 0.987085 -0.043851
C78   C     C_R   0.716719 0.696337 0.651745 -0.053207
C79   C     C_R   0.228293 0.814949 0.970558 -0.036126
C80   C     C_R   0.222478 0.182441 0.500255 -0.028109
C81   C     C_R   0.758214 0.303918 0.093090 -0.103395
C82   C     C_R   0.761350 0.705888 0.655555 -0.087627
C83   C     C_R   0.256928 0.806055 0.092131 -0.100008
C84   C     C_R   0.255313 0.193790 0.604690 -0.074872
C85   C     C_R   0.788272 0.332218 0.150567 0.552113
C86   C     C_R   0.792472 0.677414 0.704554 0.582763
C87   C     C_R   0.286303 0.834706 0.150993 0.547259
C88   C     C_R   0.286069 0.166014 0.661113 0.600968
N5    N     N_R   0.826690 0.319967 0.221844 -0.171635
N6    N     N_R   0.836592 0.686046 0.700711 -0.159050
N7    N     N_R   0.322949 0.822894 0.234238 -0.171255
N8    N     N_R   0.324915 0.178944 0.727499 -0.159384
C89   C     C_R   0.830220 0.280222 0.266186 0.541171
C90   C     C_R   0.850757 0.723442 0.657133 0.610185
C91   C     C_R   0.323394 0.784171 0.292534 0.565938
C92   C     C_R   0.328172 0.218894 0.770108 0.575171
C93   C     C_2   0.099209 0.658859 0.839186 -0.148895
C94   C     C_2   0.095489 0.339146 0.345174 -0.176065
C95   C     C_2   0.598492 0.158146 0.839372 -0.152628
C96   C     C_2   0.628102 0.859557 0.267849 -0.234704
C97   C     C_3   0.065099 0.630355 0.804239 0.013868
C98   C     C_3   0.062462 0.368212 0.304787 0.058936
C99   C     C_3   0.565599 0.128852 0.800007 0.018549
C100  C     C_3   0.598608 0.891912 0.230750 0.197279
C101  C     C_1   0.096815 0.586925 0.001122 0.240414
C102  C     C_1   0.096106 0.413607 0.493589 0.297189
C103  C     C_1   0.600816 0.083687 0.984383 0.231508
C104  C     C_1   0.600825 0.913907 0.496483 0.205746
C105  C     C_2   0.132985 0.610645 0.017558 -0.125003
C106  C     C_2   0.132234 0.389548 0.507714 -0.185985
C107  C     C_2   0.637679 0.107034 0.989190 -0.193044
C108  C     C_2   0.633694 0.887341 0.532805 -0.201651
C109  C     C_2   0.132970 0.651313 0.948700 0.217352
C110  C     C_2   0.130672 0.347700 0.448525 0.172702
C111  C     C_2   0.635011 0.149210 0.935855 0.206091
C112  C     C_2   0.648147 0.857950 0.414730 0.214093
C113  C     C_R   0.884268 0.347410 0.385763 -0.123493
C114  C     C_R   0.890262 0.657613 0.871119 -0.252204
C115  C     C_R   0.381978 0.849733 0.394510 -0.104832
C116  C     C_R   0.383414 0.152314 0.888155 -0.230759
C117  C     C_R   0.923048 0.372305 0.412062 0.152213
C118  C     C_R   0.924947 0.628831 0.907633 0.150023
C119  C     C_R   0.422539 0.872481 0.416380 0.152200
C120  C     C_R   0.422544 0.127704 0.913916 0.144356
C121  C     C_R   0.908481 0.407209 0.172441 0.220660
C122  C     C_R   0.909224 0.592918 0.670183 0.189436
C123  C     C_R   0.408101 0.907314 0.175037 0.215891
C124  C     C_R   0.408612 0.093063 0.672210 0.182555
C125  C     C_R   0.875698 0.377519 0.138829 -0.294014
C126  C     C_R   0.876968 0.622806 0.633655 -0.264073
C127  C     C_R   0.374474 0.878218 0.144139 -0.296555
C128  C     C_R   0.374943 0.122007 0.640032 -0.287921
C129  C     C_R   0.862898 0.348270 0.250214 0.035772
C130  C     C_R   0.868742 0.655317 0.736657 0.186678
C131  C     C_R   0.360337 0.850308 0.259191 0.023697
C132  C     C_R   0.361844 0.151220 0.752796 0.129186
O57   O     O_2   0.780206 0.367695 0.136989 -0.574024
O58   O     O_2   0.780424 0.644603 0.748140 -0.580731
O59   O     O_2   0.279130 0.869997 0.128426 -0.575738
O60   O     O_2   0.278479 0.130445 0.649494 -0.615801
O61   O     O_2   0.864810 0.268080 0.318658 -0.577540
O62   O     O_2   0.890092 0.729290 0.647066 -0.598514
O63   O     O_2   0.356360 0.771402 0.354806 -0.557015
O64   O     O_2   0.363118 0.231770 0.816884 -0.551727
C133  C     C_2   0.064392 0.595643 0.896869 -0.306835
C134  C     C_2   0.064541 0.405296 0.384913 -0.386503
C135  C     C_2   0.569775 0.091144 0.873482 -0.286011
C136  C     C_2   0.576723 0.906944 0.364802 -0.339828
H29   H     H_    0.962113 0.421226 0.315860 0.180562
H30   H     H_    0.962837 0.578691 0.813532 0.172368
H31   H     H_    0.462363 0.920718 0.316943 0.185481
H32   H     H_    0.463215 0.080129 0.813254 0.176389
H33   H     H_    0.036779 0.575785 0.881916 0.144901
H34   H     H_    0.039356 0.427134 0.359674 0.145689
H35   H     H_    0.546512 0.068136 0.841359 0.147615
H36   H     H_    0.541243 0.908720 0.369327 0.117020
C137  C     C_2   0.038025 0.312508 0.665412 0.561215
H37   H     H_    0.051938 0.284323 0.702583 0.021379
O65   O     O_2   0.057472 0.343331 0.694991 -0.505357
C138  C     C_2   0.039399 0.692601 0.123451 0.462239
H38   H     H_    0.056246 0.721045 0.118515 -0.032945
O66   O     O_2   0.058655 0.663727 0.175069 -0.504404
C139  C     C_2   0.541730 0.807965 0.687746 0.638997
H39   H     H_    0.540450 0.784012 0.770759 0.016771
O67   O     O_2   0.575750 0.826471 0.672894 -0.585556
C140  C     C_2   0.540472 0.193729 0.137690 0.514069
H40   H     H_    0.552300 0.224099 0.148610 -0.031596
O68   O     O_2   0.562951 0.166523 0.187260 -0.507386
C141  C     C_2   0.189007 0.441116 0.046103 0.731194
H41   H     H_    0.174312 0.425736 0.948993 0.047388
O69   O     O_2   0.226559 0.453266 0.036529 -0.573818
C142  C     C_2   0.205628 0.549915 0.852694 0.536112
H42   H     H_    0.208587 0.532383 0.956699 0.093269
O70   O     O_2   0.217594 0.584618 0.853265 -0.536972
C143  C     C_2   0.739005 0.990067 0.283770 0.601460
H43   H     H_    0.755926 0.017829 0.260628 0.049759
O71   O     O_2   0.753834 0.967170 0.379457 -0.554456
C144  C     C_2   0.745543 0.996551 0.753504 0.571825
H44   H     H_    0.762642 0.973367 0.690308 0.115597
O72   O     O_2   0.761640 0.009766 0.871657 -0.570993
C145  C     C_2   0.874964 0.537270 0.929164 0.631841
H45   H     H_    0.861603 0.558224 0.848092 -0.095894
O73   O     O_2   0.913703 0.537312 0.962487 -0.550379
C146  C     C_2   0.872514 0.462869 0.432748 0.784357
H46   H     H_    0.859224 0.442546 0.348736 -0.086096
O74   O     O_2   0.910784 0.461214 0.471682 -0.561454
C147  C     C_2   0.374752 0.036936 0.927318 0.629859
H47   H     H_    0.361072 0.057854 0.846888 -0.090500
O75   O     O_2   0.413682 0.036640 0.957881 -0.547824
C148  C     C_2   0.372026 0.963194 0.431558 0.790807
H48   H     H_    0.358461 0.943091 0.347375 -0.089291
O76   O     O_2   0.410275 0.961185 0.470605 -0.559608
C149  C     C_2   0.814197 0.545244 0.085684 0.407839
H49   H     H_    0.829368 0.570589 0.142969 0.044716
O77   O     O_2   0.774243 0.544899 0.075479 -0.490204
C150  C     C_2   0.807352 0.460894 0.584630 0.399103
H50   H     H_    0.775136 0.471858 0.616259 0.100462
O78   O     O_2   0.815001 0.425511 0.606072 -0.525519
C151  C     C_2   0.314401 0.045371 0.085093 0.398681
H51   H     H_    0.329728 0.070771 0.141498 0.037800
O79   O     O_2   0.274435 0.045118 0.075357 -0.490916
C152  C     C_2   0.306943 0.961506 0.583327 0.393935
H52   H     H_    0.274646 0.972559 0.613478 0.098234
O80   O     O_2   0.314552 0.926186 0.606481 -0.527028
H53   H     H_    0.797768 0.506227 0.825926 0.178470
H54   H     H_    0.798022 0.496950 0.318108 0.216580
H55   H     H_    0.297230 0.005785 0.827175 0.176644
H56   H     H_    0.297991 0.998582 0.318028 0.218767
C153  C     C_2   0.782448 0.462410 0.997021 0.905520
H57   H     H_    0.792879 0.444749 0.094695 0.046231
O81   O     O_2   0.743895 0.462453 0.959488 -0.514498
C154  C     C_2   0.783070 0.542296 0.485334 0.702642
H58   H     H_    0.793382 0.560763 0.581394 0.022476
O82   O     O_2   0.744811 0.543058 0.444364 -0.480708
C155  C     C_2   0.282639 0.962194 0.999722 0.912841
H59   H     H_    0.293383 0.945161 0.098579 0.043728
O83   O     O_2   0.244066 0.961654 0.962519 -0.513767
C156  C     C_2   0.283937 0.043362 0.487900 0.691009
H60   H     H_    0.294297 0.059362 0.589916 0.064948
O84   O     O_2   0.246222 0.046561 0.442649 -0.476637
H61   H     H_    0.999913 0.331278 0.475086 0.004722
H62   H     H_    0.997307 0.669945 0.954362 0.017282
H63   H     H_    0.513182 0.839535 0.500305 0.053991
H64   H     H_    0.504383 0.163361 0.968934 0.024122
C157  C     C_2   0.012181 0.251492 0.433937 0.633705
H65   H     H_    0.023049 0.265312 0.328509 -0.009956
O85   O     O_2   0.027107 0.219120 0.470801 -0.531210
C158  C     C_2   0.965425 0.755206 0.147104 0.828418
H66   H     H_    0.992337 0.767008 0.214769 -0.089431
O86   O     O_2   0.927850 0.764250 0.180124 -0.563871
C159  C     C_2   0.523991 0.761430 0.409510 0.648646
H67   H     H_    0.542070 0.779696 0.329077 0.066874
O87   O     O_2   0.533785 0.726376 0.424765 -0.497532
C160  C     C_2   0.463815 0.253252 0.100245 0.840533
H68   H     H_    0.488431 0.269591 0.164657 -0.071929
O88   O     O_2   0.425136 0.260811 0.120322 -0.498528
C161  C     C_2   0.941205 0.266227 0.073795 0.631522
H69   H     H_    0.912062 0.283190 0.044627 0.005341
O89   O     O_2   0.938077 0.236593 0.154007 -0.515392
C162  C     C_2   0.996885 0.752934 0.554179 0.591137
H70   H     H_    0.966365 0.749621 0.491339 0.074832
O90   O     O_2   0.999644 0.778017 0.655621 -0.525750
C163  C     C_2   0.435747 0.776714 0.102325 0.636012
H71   H     H_    0.408732 0.796087 0.071852 -0.018262
O91   O     O_2   0.428988 0.747088 0.179694 -0.503329
C164  C     C_2   0.446376 0.233208 0.558688 0.609200
H72   H     H_    0.418368 0.216986 0.513742 0.083072
O92   O     O_2   0.440538 0.261443 0.645081 -0.520344
C165  C     C_2   0.170478 0.797842 0.780871 0.642893
H73   H     H_    0.139912 0.782236 0.761037 0.043793
O93   O     O_2   0.179169 0.826183 0.698665 -0.542739
C166  C     C_2   0.158419 0.195879 0.332078 0.667855
H74   H     H_    0.127980 0.212183 0.318328 0.062059
O94   O     O_2   0.162984 0.164714 0.260873 -0.529930
C167  C     C_2   0.662014 0.300700 0.817907 0.635657
H75   H     H_    0.631444 0.284621 0.805262 0.040164
O95   O     O_2   0.666818 0.331387 0.744704 -0.542952
C168  C     C_2   0.638381 0.711971 0.620371 0.682741
H76   H     H_    0.613546 0.733984 0.647831 0.054923
O96   O     O_2   0.627267 0.677121 0.609051 -0.519575
C169  C     C_2   0.825201 0.202883 0.435383 0.799772
H77   H     H_    0.841451 0.174132 0.428844 -0.007021
O97   O     O_2   0.832150 0.224441 0.546158 -0.544067
C170  C     C_2   0.879477 0.807092 0.601732 0.786990
H78   H     H_    0.897000 0.820145 0.505922 -0.008842
O98   O     O_2   0.897268 0.805355 0.727443 -0.504627
C171  C     C_2   0.308249 0.713841 0.496385 0.786475
H79   H     H_    0.321360 0.684068 0.512880 -0.010241
O99   O     O_2   0.314963 0.739200 0.594677 -0.544979
C172  C     C_2   0.321765 0.295612 0.944576 0.823570
H80   H     H_    0.337107 0.324741 0.940067 -0.011079
O100  O     O_2   0.329743 0.273695 0.052930 -0.501060
H81   H     H_    0.873505 0.328091 0.477585 0.188404
H82   H     H_    0.882191 0.680824 0.953094 0.170099
H83   H     H_    0.370272 0.832144 0.489887 0.197419
H84   H     H_    0.372505 0.171676 0.980250 0.211072
C173  C     C_2   0.240844 0.658221 0.408038 0.620571
H85   H     H_    0.236617 0.630210 0.347052 0.044979
O101  O     O_2   0.239995 0.658258 0.548377 -0.527032
C174  C     C_2   0.253694 0.350872 0.858191 0.584943
H86   H     H_    0.247546 0.376784 0.786874 0.044253
O102  O     O_2   0.258400 0.355517 0.996520 -0.558899
C175  C     C_2   0.759393 0.146516 0.341544 0.591530
H87   H     H_    0.754721 0.120743 0.267574 0.031063
O103  O     O_2   0.763450 0.141445 0.479788 -0.565646
C176  C     C_2   0.818153 0.861481 0.473273 0.617014
H88   H     H_    0.809908 0.871976 0.358907 0.080003
O104  O     O_2   0.839701 0.882890 0.558299 -0.543926
H89   H     H_    0.161279 0.599391 0.079426 0.158866
H90   H     H_    0.162835 0.402388 0.547745 0.133605
H91   H     H_    0.669119 0.093971 0.017547 0.119893
H92   H     H_    0.647656 0.886672 0.647649 0.146152
H93   H     H_    0.094471 0.688471 0.793279 0.143189
H94   H     H_    0.089036 0.309029 0.307148 0.157972
H95   H     H_    0.591249 0.188516 0.806220 0.151464
H96   H     H_    0.638042 0.838538 0.179350 0.163764
C177  C     C_2   0.859775 0.371596 0.980961 0.738410
H97   H     H_    0.862553 0.342332 0.928202 -0.031968
O105  O     O_2   0.840510 0.397803 0.912523 -0.552496
C178  C     C_2   0.853123 0.621454 0.485003 0.690864
H98   H     H_    0.848587 0.593970 0.425245 -0.016536
O106  O     O_2   0.839615 0.651682 0.422966 -0.575642
C179  C     C_2   0.359093 0.871507 0.985835 0.733143
H99   H     H_    0.360268 0.841688 0.937315 -0.025569
O107  O     O_2   0.341863 0.897912 0.912090 -0.548496
C180  C     C_2   0.356425 0.124275 0.483569 0.713727
H100  H     H_    0.348851 0.097734 0.419819 -0.006661
O108  O     O_2   0.350318 0.156511 0.422098 -0.581617
H101  H     H_    0.970284 0.342011 0.011535 0.099981
H102  H     H_    0.995368 0.676178 0.451085 0.126500
H103  H     H_    0.478280 0.848688 0.010633 0.137056
H104  H     H_    0.475263 0.158569 0.497855 0.117431
H105  H     H_    0.984111 0.276460 0.887039 0.199776
H106  H     H_    0.046029 0.733828 0.396672 0.193089
H107  H     H_    0.480237 0.782221 0.919021 0.197592
H108  H     H_    0.495415 0.225404 0.388041 0.187925
H109  H     H_    0.010973 0.258490 0.056263 0.235042
H110  H     H_    0.063192 0.733704 0.594046 0.236465
H111  H     H_    0.504292 0.763105 0.091441 0.243456
H112  H     H_    0.516365 0.240386 0.572517 0.227964
H113  H     H_    0.105882 0.475525 0.280298 0.113317
H114  H     H_    0.151317 0.485839 0.822408 0.058073
H115  H     H_    0.678912 0.041554 0.176743 0.068314
H116  H     H_    0.682467 0.957552 0.585020 0.102366
H117  H     H_    0.100563 0.458280 0.084346 0.138277
H118  H     H_    0.119472 0.529950 0.772762 0.073148
H119  H     H_    0.653050 0.014439 0.332469 0.143465
H120  H     H_    0.665427 0.963191 0.784551 0.119774

loop_
_geom_bond_atom_site_label_1
_geom_bond_atom_site_label_2
_geom_bond_distance
_ccdc_geom_bond_type
C23   C27   1.521451 S    
O40   C15   1.404820 S    
C37   C41   1.422785 A    
C165  H73   1.083797 S    
C179  O107  1.213739 D    
C101  C133  1.372515 A    
P9    O41   1.745150 S    
C40   C44   1.428573 A    
C73   C79   1.407296 A    
P11   O43   1.755862 S    
P13   C118  1.852892 S    
C149  H49   1.087688 S    
N6    C130  1.456246 S    
C39   C43   1.424758 A    
C17   C141  1.499044 S    
C107  H91   1.082599 S    
C40   C56   1.420554 A    
N1    C109  1.478163 S    
C139  H39   1.082928 S    
C1    H1    1.111010 S    
C128  C132  1.441218 A    
C170  H78   1.085389 S    
C65   C89   1.429400 A    
C140  H40   1.085233 S    
C121  C125  1.441827 A    
C13   H113  1.108873 S    
P3    C123  1.917300 S    
P4    Ba4   3.446881 S    
C63   C67   1.425631 A    
C48   O56   1.220064 D    
P1    C121  1.910150 S    
O2    Ba2   2.816490 S    
P2    O18   1.804316 S    
H27   C79   1.084276 S    
C23   C151  1.526939 S    
C156  H60   1.082518 S    
C47   O55   1.219175 D    
P4    O8    1.547764 S    
C22   C150  1.529267 S    
Ba1   O46   3.032681 S    
C88   O60   1.219665 D    
C180  O108  1.221739 D    
C123  C127  1.441819 A    
P9    O29   1.756639 S    
C82   C86   1.412122 A    
C105  C109  1.491745 S    
C152  O80   1.224205 D    
C155  H59   1.083869 S    
C1    C157  1.502327 S    
C99   C135  1.424468 A    
O18   C22   1.416239 S    
C2    H2    1.109127 S    
C160  H68   1.084586 S    
C38   C54   1.408009 A    
C35   C123  1.347960 D    
C157  H65   1.082171 S    
C87   O59   1.220016 D    
P12   O44   1.745794 S    
C78   C82   1.400373 A    
O17   C21   1.414812 S    
C14   C18   1.529228 S    
C116  C132  1.348113 D    
C8    H8    1.114313 S    
P6    O45   1.552287 S    
C36   C124  1.346992 D    
P10   C97   1.877803 S    
C105  H89   1.084442 S    
C178  O106  1.220863 D    
C136  H36   1.085391 S    
C102  C106  1.370999 A    
C28   H56   1.112190 S    
C56   C70   1.428339 A    
C148  H48   1.076482 S    
P5    O25   1.578993 D    
O12   P15   1.741792 S    
C84   C88   1.410015 A    
P5    C102  1.822339 S    
C19   H15   1.113034 S    
C6    H102  1.109291 S    
P7    O27   1.578993 D    
C62   C66   1.426042 A    
C133  H33   1.082565 S    
P8    O28   1.576239 D    
O28   Ba4   2.821434 S    
O20   C24   1.413893 S    
C39   C55   1.409259 A    
O37   C14   1.399367 S    
C18   C142  1.496393 S    
C20   H12   1.110932 S    
C158  H66   1.084089 S    
O39   C16   1.405546 S    
C171  H79   1.085136 S    
C32   C140  1.502934 S    
C1    H21   1.110675 S    
C31   C139  1.504588 S    
Ba2   O45   3.030692 S    
C23   C147  1.465565 S    
C146  O74   1.216728 D    
C59   C175  1.490740 S    
O21   P14   1.749251 S    
C144  O72   1.220562 D    
C26   H54   1.112631 S    
C128  C180  1.474694 S    
N2    C110  1.481778 S    
C62   C170  1.487559 S    
C162  H70   1.084653 S    
C21   C145  1.468096 S    
P3    O7    1.547967 S    
C176  H88   1.085312 S    
O41   C5    1.407569 S    
C71   C83   1.402804 A    
P1    Ba1   3.450021 S    
C86   O58   1.222821 D    
P3    Ba3   3.450021 S    
O29   Ba1   2.734562 S    
C172  H80   1.085159 S    
C177  H97   1.085605 S    
P5    O37   1.755016 S    
C61   C169  1.487588 S    
C173  O101  1.221266 D    
C57   C63   1.424524 A    
C115  C119  1.467170 S    
C58   C64   1.424624 A    
P8    O40   1.754776 S    
C22   C146  1.476194 S    
C163  H71   1.082019 S    
C24   C28   1.517256 S    
O25   Ba1   2.817454 S    
C36   H32   1.081353 S    
C6    H6    1.114581 S    
O44   C8    1.409782 S    
C64   C172  1.486284 S    
C33   H29   1.080227 S    
C11   H111  1.110954 S    
C114  C130  1.342205 D    
C9    H109  1.111654 S    
C6    C10   1.527225 S    
C10   H106  1.107441 S    
C27   H55   1.111080 S    
H25   C77   1.084237 S    
N1    C45   1.389988 Am   
C45   O53   1.219451 D    
O38   C13   1.400058 S    
C43   O51   1.220031 D    
C174  H86   1.085381 S    
N6    C90   1.382083 Am   
C125  C177  1.468718 S    
O8    Ba3   2.789238 S    
C93   C97   1.445958 A    
C53   C71   1.417169 A    
P10   O42   1.745289 S    
C54   C72   1.418024 A    
C97   C133  1.418444 A    
P12   O32   1.754021 S    
C150  O78   1.224093 D    
C9    C161  1.495895 S    
C14   H118  1.109721 S    
C141  H41   1.084977 S    
C95   C99   1.445864 A    
P4    C124  1.912463 S    
C106  H90   1.085412 S    
O14   P13   1.543533 D    
C74   C166  1.487467 S    
C166  H74   1.083927 S    
C34   H30   1.079170 S    
C157  O85   1.220461 D    
C87   N7    1.388893 Am   
Ba4   O47   3.030692 S    
O12   Ba4   2.734283 S    
O42   C6    1.414315 S    
C11   C163  1.494272 S    
C93   H93   1.081159 S    
P2    Ba2   3.446881 S    
C142  H42   1.084246 S    
O24   C32   1.417155 S    
C5    C9    1.525821 S    
C14   H114  1.106404 S    
O30   Ba2   2.727199 S    
C11   H107  1.105786 S    
C2    C30   1.538426 S    
C114  C118  1.466585 S    
C73   C165  1.487329 S    
C155  O83   1.220482 D    
C154  O82   1.220424 D    
N3    C47   1.390104 Am   
C94   C98   1.444853 A    
O26   Ba2   2.821434 S    
N8    C92   1.392963 Am   
P9    O33   1.548921 D    
C103  C135  1.373806 A    
C145  H45   1.076385 S    
P5    Ba1   3.447560 S    
C74   C80   1.406684 A    
C178  H98   1.066013 S    
C137  O65   1.219559 D    
P7    Ba3   3.447560 S    
P15   C120  1.850065 S    
P10   O30   1.759793 S    
C91   O63   1.219347 D    
P9    C98   1.888587 S    
C16   H120  1.113468 S    
P11   O35   1.543667 D    
C57   C173  1.490144 S    
C89   O61   1.219191 D    
C108  H92   1.085496 S    
C29   H61   1.112963 S    
C7    C11   1.532825 S    
C12   C164  1.498714 S    
C96   H96   1.085799 S    
C3    C159  1.502488 S    
C113  H81   1.082353 S    
C35   C119  1.477831 S    
C175  O103  1.221160 D    
C159  O87   1.220400 D    
N4    C48   1.376490 Am   
O16   P15   1.538630 D    
C127  C131  1.440233 A    
C4    H4    1.110060 S    
C77   C81   1.403006 A    
C96   C112  1.416510 A    
C125  C129  1.436572 A    
C80   C84   1.403362 A    
P12   C99   1.876775 S    
C2    C158  1.501283 S    
C147  O75   1.217097 D    
C86   N6    1.378535 Am   
O15   P16   1.536527 D    
C94   C110  1.427787 A    
C2    H22   1.110580 S    
C170  O98   1.221330 D    
C126  C178  1.482992 S    
C8    H104  1.113373 S    
C83   C87   1.409746 A    
P6    O26   1.576239 D    
C81   C85   1.410921 A    
C68   C72   1.408676 A    
C134  H34   1.083582 S    
C165  O93   1.221442 D    
C164  H72   1.085594 S    
O31   Ba3   2.734562 S    
C143  H43   1.085368 S    
C61   C65   1.426850 A    
C156  O84   1.220409 D    
C20   H16   1.113035 S    
C116  H84   1.082590 S    
O5    Ba2   2.785833 S    
C17   H9    1.106013 S    
C64   C68   1.425832 A    
Ba1   O45   2.784442 S    
C169  O97   1.221370 D    
O7    Ba4   2.785833 S    
C19   H11   1.110135 S    
C102  C134  1.376433 A    
C68   C92   1.428763 A    
C26   C154  1.508622 S    
C16   C20   1.526782 S    
P14   C117  1.841620 S    
N7    C131  1.481996 S    
C95   C111  1.425760 A    
N5    C129  1.478051 S    
C148  O76   1.216973 D    
P1    O1    1.576149 D    
C52   C56   1.426886 A    
C41   N1    1.392086 Am   
P3    O3    1.576149 D    
Ba3   O48   3.032681 S    
O11   Ba3   2.726944 S    
P4    O20   1.802925 S    
C160  O88   1.220112 D    
C34   C118  1.470774 S    
C113  C129  1.346551 D    
C66   C90   1.430675 A    
C122  C126  1.439731 A    
C153  O81   1.220496 D    
C168  H76   1.083967 S    
C20   C144  1.499450 S    
P6    O38   1.751143 S    
P2    C122  1.900259 S    
C63   C171  1.488015 S    
C58   C174  1.490557 S    
C55   C69   1.420306 A    
C167  H75   1.083788 S    
C38   C58   1.427586 A    
C51   C55   1.416457 A    
C161  O89   1.220415 D    
C66   C70   1.418227 A    
O9    P14   1.741736 S    
P4    O4    1.578906 D    
C17   H13   1.112257 S    
C60   C62   1.419686 A    
C104  C136  1.379404 A    
N7    C91   1.396025 Am   
C49   C73   1.426511 A    
P8    Ba4   3.450777 S    
C12   H108  1.105549 S    
C25   C153  1.506698 S    
C149  O77   1.222705 D    
C32   H64   1.111122 S    
C10   H110  1.111931 S    
C151  H51   1.087714 S    
O22   C30   1.418825 S    
H26   C78   1.084347 S    
P1    O5    1.547967 S    
C59   C61   1.424046 A    
C42   O50   1.219922 D    
C147  H47   1.075675 S    
O6    Ba1   2.789238 S    
C18   H10   1.111344 S    
Ba2   O46   2.787830 S    
C113  C117  1.466918 S    
O9    Ba1   2.726944 S    
O24   P15   1.751610 S    
C103  C107  1.372544 A    
C104  C108  1.377658 A    
P12   O36   1.549236 D    
C159  H67   1.084235 S    
C13   C17   1.530676 S    
P7    O39   1.751444 S    
C162  O90   1.220235 D    
P11   C100  1.882338 S    
C3    C31   1.533859 S    
P5    O46   1.552092 S    
C176  O104  1.221186 D    
C70   C82   1.413668 A    
C30   C138  1.499207 S    
C158  O86   1.220707 D    
P7    O48   1.552092 S    
C180  H100  1.072640 S    
C3    H3    1.112964 S    
C8    C12   1.524353 S    
C94   H94   1.080344 S    
P6    C101  1.809268 S    
C172  O100  1.221117 D    
C49   C53   1.416008 A    
C28   H20   1.090169 S    
N3    C111  1.480677 S    
C173  H85   1.085330 S    
C10   C162  1.499426 S    
C12   H112  1.112336 S    
C41   O49   1.220043 D    
C152  H52   1.085247 S    
C115  H83   1.081548 S    
C46   C50   1.420991 A    
H28   C80   1.084211 S    
C127  C179  1.470660 S    
C44   O52   1.220838 D    
C75   C167  1.487522 S    
C163  O91   1.220251 D    
N2    C46   1.391302 Am   
O10   P13   1.750044 S    
C18   H14   1.112507 S    
C75   C77   1.405961 A    
O22   P13   1.752604 S    
C67   C91   1.427843 A    
C22   C26   1.516290 S    
P10   O34   1.549330 D    
C15   C19   1.526805 S    
P11   O31   1.760190 S    
C5    H5    1.113243 S    
C76   C78   1.399490 A    
C7    H7    1.110506 S    
C19   C143  1.498174 S    
C107  C111  1.492412 S    
C138  H38   1.085716 S    
C174  O102  1.221133 D    
C179  H99   1.085035 S    
C85   O57   1.220928 D    
O11   P16   1.734779 S    
C45   C49   1.421395 A    
O10   Ba2   2.734283 S    
C13   H117  1.107288 S    
C60   C176  1.489887 S    
O19   C23   1.413767 S    
C48   C52   1.422151 A    
P1    O17   1.799578 S    
Ba1   Ba2   4.709958 S    
C143  O71   1.220169 D    
C4    H24   1.111683 S    
P3    O19   1.799323 S    
Ba3   Ba4   4.709958 S    
O4    Ba4   2.816490 S    
C88   N8    1.387221 Am   
C4    C160  1.501623 S    
C44   N4    1.378420 Am   
C166  O94   1.221430 D    
C31   H63   1.117576 S    
C175  H87   1.085506 S    
Ba4   O48   2.787830 S    
C43   N3    1.392595 Am   
C27   C155  1.505620 S    
P7    C104  1.820935 S    
C146  H46   1.076886 S    
C142  O70   1.220642 D    
C37   C57   1.428275 A    
C177  O105  1.213671 D    
C115  C131  1.348622 D    
C144  H44   1.084842 S    
C15   H119  1.111199 S    
C33   C117  1.471787 S    
C114  H82   1.082691 S    
C47   C51   1.422042 A    
C24   C152  1.529300 S    
C116  C120  1.467971 S    
C37   C53   1.408745 A    
C98   C134  1.425433 A    
C95   H95   1.082029 S    
N5    C89   1.393054 Am   
C137  H37   1.085702 S    
C140  O68   1.220094 D    
C96   C100  1.445742 A    
O23   P16   1.751290 S    
C34   C122  1.346677 D    
C167  O95   1.221458 D    
P2    O2    1.578906 D    
C4    C32   1.538099 S    
C36   C120  1.473747 S    
O13   P14   1.536654 D    
C106  C110  1.494489 S    
P8    O47   1.552287 S    
C168  O96   1.221434 D    
C171  O99   1.221406 D    
C25   H17   1.096827 S    
O43   C7    1.406638 S    
C69   C81   1.405466 A    
C7    H103  1.112318 S    
C72   C84   1.404349 A    
C5    H101  1.113143 S    
C101  C105  1.368966 A    
C67   C71   1.407165 A    
C40   C60   1.428690 A    
C1    C29   1.537657 S    
C124  C128  1.440238 A    
C33   C121  1.344623 D    
C151  O79   1.222737 D    
C100  C136  1.435178 A    
C15   H115  1.109858 S    
C65   C69   1.409943 A    
P6    Ba2   3.450777 S    
C50   C74   1.425559 A    
C16   H116  1.112224 S    
C30   H62   1.112331 S    
C25   H53   1.111187 S    
C76   C168  1.488141 S    
C150  H50   1.085172 S    
C90   O62   1.220391 D    
C164  O92   1.220376 D    
C141  O69   1.220388 D    
P16   C119  1.848513 S    
C35   H31   1.081263 S    
C21   C149  1.527297 S    
P2    O6    1.547764 S    
C108  C112  1.488694 S    
C169  H77   1.085196 S    
C139  O67   1.218169 D    
N8    C132  1.476678 S    
C39   C59   1.427643 A    
C138  O66   1.218549 D    
C79   C83   1.402880 A    
C135  H35   1.085133 S    
O21   C29   1.415784 S    
C38   C42   1.423612 A    
O1    Ba1   2.820425 S    
O23   C31   1.414533 S    
O3    Ba3   2.820425 S    
C126  C130  1.431536 A    
C42   N2    1.393559 Am   
C27   H19   1.096652 S    
C154  H58   1.084975 S    
N4    C112  1.453131 S    
C3    H23   1.109045 S    
Ba3   O47   2.784442 S    
C28   C156  1.504319 S    
C85   N5    1.387435 Am   
P8    C103  1.824748 S    
C93   C109  1.424613 A    
C145  O73   1.216823 D    
O32   Ba4   2.727199 S    
C153  H57   1.084275 S    
C29   C137  1.502973 S    
C50   C54   1.414874 A    
C92   O64   1.219978 D    
C9    H105  1.103780 S    
C46   O54   1.218876 D    
C26   H18   1.088791 S    
O27   Ba3   2.817454 S    
C51   C75   1.425909 A    
C161  H69   1.085187 S    
C24   C148  1.473514 S    
C52   C76   1.426923 A    
C21   C25   1.520608 S    
