data_mof_unit_18799.cif
_audit_creation_date              2012-12-10T18:13:49-0500
_audit_creation_method            fapswitch 2.2
_symmetry_space_group_name_H-M    P1
_symmetry_Int_Tables_number       1
_space_group_crystal_system       triclinic
_cell_length_a                    10.724167
_cell_length_b                    9.409483
_cell_length_c                    23.515658
_cell_angle_alpha                 90.03728
_cell_angle_beta                  89.807704
_cell_angle_gamma                 90.013617
_cell_volume                      2372.92447478

loop_
_atom_site_label
_atom_site_type_symbol
_atom_type_description
_atom_site_fract_x
_atom_site_fract_y
_atom_site_fract_z
_atom_type_partial_charge
C1    C     C_R   0.259635 0.500202 0.500185 0.768299
C2    C     C_R   0.278715 0.573292 0.968732 -0.234642
C3    C     C_R   0.276370 0.581834 0.028182 -0.024038
C4    C     C_R   0.384069 0.542196 0.059894 -0.038693
C5    C     C_R   0.494733 0.505983 0.030055 -0.034348
C6    C     C_R   0.604559 0.472158 0.060091 -0.005245
C7    C     C_R   0.714063 0.437700 0.030187 -0.159193
C8    C     C_R   0.714931 0.434809 0.971022 -0.159734
C9    C     C_R   0.385696 0.532142 0.119998 0.557968
C10   C     C_R   0.602467 0.473486 0.119551 0.535920
C11   C     C_R   0.506710 0.372779 0.238549 -0.093825
C12   C     C_R   0.499369 0.499986 0.390922 0.807641
C13   C     C_R   0.508044 0.372093 0.297851 -0.224302
C14   C     C_R   0.497725 0.500191 0.328322 -0.045293
C15   C     C_R   0.485335 0.628697 0.298397 -0.224092
C16   C     C_R   0.483496 0.628992 0.239136 -0.095178
C17   C     C_R   0.494509 0.501204 0.209040 0.353732
C18   C     C_R   0.430568 0.400291 0.759900 -0.084051
C19   C     C_R   0.433593 0.401198 0.700724 -0.218822
C20   C     C_R   0.507816 0.499945 0.671336 -0.129239
C21   C     C_R   0.582784 0.597204 0.702164 -0.039141
C22   C     C_R   0.576951 0.596258 0.761802 -0.071338
C23   C     C_R   0.740109 0.500229 0.500133 0.756774
C24   C     C_R   0.501590 0.498230 0.790640 0.294993
C25   C     C_3   0.071238 0.655823 0.500889 -0.371635
C26   C     C_3   0.071369 0.422882 0.553703 -0.372224
C27   C     C_3   0.928521 0.655847 0.500726 -0.376136
C28   C     C_3   0.927403 0.423204 0.553753 -0.372509
C29   C     C_3   0.072209 0.425081 0.446344 -0.376309
C30   C     C_3   0.121682 0.500960 0.500288 0.151025
C31   C     C_3   0.878025 0.501004 0.500259 0.152898
C32   C     C_3   0.928315 0.424839 0.446387 -0.370953
C33   C     C_3   0.623055 0.083825 0.518343 -0.180978
C34   C     C_3   0.623083 0.916386 0.518280 -0.186887
C35   C     C_3   0.406100 0.083906 0.541400 -0.187536
C36   C     C_3   0.406197 0.916175 0.541441 -0.182876
C37   C     C_3   0.471278 0.083518 0.444262 -0.185613
C38   C     C_3   0.471161 0.916299 0.444273 -0.186706
C39   C     C_R   0.503412 0.500069 0.608920 0.787000
C40   C     C_R   0.605511 0.463985 0.880814 0.539547
C41   C     C_R   0.391037 0.531821 0.879644 0.551432
C42   C     C_R   0.387455 0.534977 0.939359 -0.013127
C43   C     C_R   0.496138 0.502803 0.969958 -0.014334
C44   C     C_R   0.606430 0.466795 0.940446 -0.011021
Cu1   Cu    Cu3+1 0.499860 0.642410 0.500030 0.895388
Cu2   Cu    Cu3+1 0.499860 0.357590 0.500030 0.897471
H1    H     H_    0.195660 0.602094 0.945203 0.183846
H2    H     H_    0.376327 0.325784 0.677736 0.148559
H3    H     H_    0.632878 0.669847 0.786353 0.185098
H4    H     H_    0.105879 0.714935 0.462977 0.163871
H5    H     H_    0.105495 0.311179 0.554389 0.161185
H6    H     H_    0.104877 0.712858 0.539412 0.165139
H7    H     H_    0.106120 0.475876 0.592908 0.161476
H8    H     H_    0.893840 0.713407 0.539044 0.164592
H9    H     H_    0.892379 0.476769 0.592892 0.156148
H10   H     H_    0.894966 0.714423 0.462594 0.163420
H11   H     H_    0.892838 0.311657 0.554636 0.165467
H12   H     H_    0.107239 0.479968 0.407530 0.161011
H13   H     H_    0.106681 0.313556 0.444780 0.164210
H14   H     H_    0.893636 0.479249 0.407511 0.161206
H15   H     H_    0.894107 0.313185 0.445007 0.162424
H16   H     H_    0.648717 0.123766 0.561285 0.152434
H17   H     H_    0.648931 0.876624 0.561162 0.148920
H18   H     H_    0.696973 0.120979 0.488599 0.137677
H19   H     H_    0.696866 0.879358 0.488452 0.138414
H20   H     H_    0.424399 0.122742 0.585236 0.150440
H21   H     H_    0.424725 0.877621 0.585278 0.156414
H22   H     H_    0.379104 0.123332 0.429644 0.140802
H23   H     H_    0.378875 0.876544 0.429730 0.139294
H24   H     H_    0.541496 0.120754 0.412721 0.140198
H25   H     H_    0.541211 0.878872 0.412673 0.142292
H26   H     H_    0.311385 0.122160 0.530000 0.137388
H27   H     H_    0.311493 0.877726 0.530120 0.137794
H28   H     H_    0.799455 0.412039 0.052408 0.189275
H29   H     H_    0.800921 0.407334 0.949369 0.190447
H30   H     H_    0.515021 0.273609 0.215459 0.141699
H31   H     H_    0.517606 0.271507 0.319738 0.143649
H32   H     H_    0.476738 0.728965 0.320690 0.144304
H33   H     H_    0.474196 0.728594 0.216501 0.144606
H34   H     H_    0.372829 0.323497 0.781953 0.154330
N1    N     N_R   0.499048 0.497079 0.851690 -0.467452
N2    N     N_R   0.494235 0.502320 0.148056 -0.477252
N3    N     N_3   0.500250 0.143650 0.501250 -0.116632
N4    N     N_3   0.500250 0.856350 0.501250 -0.117200
O1    O     O_R   0.317570 0.620260 0.500030 -0.593688
O2    O     O_R   0.317570 0.379740 0.500030 -0.595134
O3    O     O_R   0.499840 0.620290 0.417900 -0.591250
O4    O     O_R   0.499840 0.379710 0.417900 -0.591508
O5    O     O_R   0.682190 0.620260 0.500010 -0.601501
O6    O     O_R   0.682190 0.379740 0.500010 -0.595420
O7    O     O_R   0.499920 0.620230 0.582140 -0.593517
O8    O     O_R   0.499920 0.379770 0.582140 -0.578723
O9    O     O_2   0.709966 0.427708 0.852109 -0.526643
O10   O     O_2   0.287944 0.565143 0.849717 -0.528937
O11   O     O_2   0.279728 0.546372 0.150427 -0.488761
O12   O     O_2   0.707731 0.445762 0.148839 -0.528699
C45   C     C_2   0.672556 0.693927 0.673383 0.348844
H35   H     H_    0.699356 0.676569 0.629447 0.063513
O13   O     O_2   0.719673 0.793438 0.698840 -0.540469
C46   C     C_2   0.161127 0.641222 0.053636 0.481967
H36   H     H_    0.070862 0.608023 0.037612 0.045007
O14   O     O_2   0.165856 0.735531 0.089246 -0.484646

loop_
_geom_bond_atom_site_label_1
_geom_bond_atom_site_label_2
_ccdc_geom_bond_type
C41   C42   A    
C19   C20   A    
C40   O9    S    
C24   N1    S    
C45   H35   S    
C36   H21   S    
C7    C8    A    
C41   O10   S    
C28   H11   S    
C29   C30   S    
C18   C24   A    
Cu1   O3    S    
C2    C42   A    
C32   H15   S    
C18   C19   A    
C29   C32   S    
C11   H30   S    
C5    C6    A    
C15   H32   S    
Cu2   O8    S    
C15   C16   A    
C37   H22   S    
C25   C30   S    
C17   N2    S    
C25   H4    S    
C1    C30   S    
C3    C46   S    
C29   H13   S    
C16   C17   A    
C23   O5    A    
C13   C14   A    
Cu1   O5    S    
C9    O11   S    
C9    N2    A    
C5    C43   A    
C38   H23   S    
C21   C22   A    
C34   N4    S    
C34   H19   S    
C39   O7    A    
C45   O13   D    
C28   H9    S    
C7    H28   S    
Cu2   O4    S    
C1    O1    A    
C13   H31   S    
C27   H8    S    
C12   O4    A    
C27   C31   S    
C20   C39   S    
C35   N3    S    
C19   H2    S    
C33   H16   S    
C35   H20   S    
Cu1   Cu2   S    
C10   N2    A    
C8    H29   S    
C35   C36   S    
C23   C31   S    
Cu1   O1    S    
C43   C44   A    
C37   C38   S    
C21   C45   S    
C31   C32   S    
C10   O12   S    
C41   N1    A    
C46   O14   D    
C33   C34   S    
C23   O6    A    
C20   C21   A    
C33   N3    S    
C22   H3    S    
C12   C14   S    
C35   H26   S    
C26   C30   S    
C22   C24   A    
Cu1   N4    S    
C42   C43   A    
C32   H14   S    
C3    C4    A    
C26   H7    S    
C39   O8    A    
C1    O2    A    
C38   H25   S    
C11   C17   A    
C12   O3    A    
C38   N4    S    
C27   H10   S    
C40   N1    A    
C28   C31   S    
C8    C44   A    
C4    C5    A    
C6    C10   A    
C6    C7    A    
Cu2   O6    S    
C2    H1    S    
C25   C27   S    
C26   C28   S    
C16   H33   S    
C2    C3    A    
C25   H6    S    
C26   H5    S    
C11   C13   A    
C36   N4    S    
C33   H18   S    
C34   H17   S    
Cu1   O7    S    
C36   H27   S    
Cu2   N3    S    
C40   C44   A    
C29   H12   S    
C18   H34   S    
C14   C15   A    
C37   N3    S    
C46   H36   S    
C4    C9    A    
C37   H24   S    
Cu2   O2    S    
