data_mof_unit_25640.cif
_audit_creation_date              2012-12-10T16:50:06-0500
_audit_creation_method            fapswitch 2.2
_symmetry_space_group_name_H-M    P1
_symmetry_Int_Tables_number       1
_space_group_crystal_system       triclinic
_cell_length_a                    23.521975
_cell_length_b                    8.711735
_cell_length_c                    7.478889
_cell_angle_alpha                 103.882539
_cell_angle_beta                  94.779588
_cell_angle_gamma                 93.113166
_cell_volume                      1478.23386186

loop_
_atom_site_label
_atom_site_type_symbol
_atom_type_description
_atom_site_fract_x
_atom_site_fract_y
_atom_site_fract_z
_atom_type_partial_charge
C1    C     C_R   0.498386 0.199370 0.452474 0.869599
C2    C     C_R   0.502130 0.800693 0.547517 0.871323
C3    C     C_R   0.240294 0.620175 0.480574 0.206981
C4    C     C_R   0.755264 0.404403 0.341427 0.229254
C5    C     C_R   0.300480 0.627528 0.486228 0.101930
C6    C     C_R   0.695298 0.404777 0.342517 0.088299
C7    C     C_R   0.329448 0.495423 0.505479 -0.194426
C8    C     C_R   0.671675 0.499811 0.495099 -0.215807
C9    C     C_R   0.299808 0.360592 0.532949 0.159156
C10   C     C_R   0.707990 0.590342 0.648463 0.147143
C11   C     C_R   0.241636 0.363370 0.560330 0.366159
C12   C     C_R   0.767271 0.578865 0.654619 0.343651
C13   C     C_R   0.210700 0.489589 0.523537 0.119272
C14   C     C_R   0.791378 0.489457 0.498728 0.123531
C15   C     C_2   0.497810 0.030919 0.426471 -0.353772
C16   C     C_2   0.503529 0.969264 0.573515 -0.369327
C17   C     C_R   0.391457 0.499118 0.501474 0.919277
C18   C     C_R   0.608966 0.499993 0.498353 0.875847
C19   C     C_R   0.885564 0.628487 0.531639 0.578805
C20   C     C_R   0.115752 0.355543 0.418299 0.580629
C21   C     C_R   0.877510 0.346346 0.465514 0.615888
C22   C     C_R   0.124904 0.609433 0.630595 0.626373
C23   C     C_R   0.936405 0.341905 0.443069 -0.069053
C24   C     C_R   0.065507 0.622208 0.605132 -0.067117
C25   C     C_R   0.970934 0.485823 0.503006 -0.145781
C26   C     C_R   0.030789 0.484743 0.510514 -0.145118
C27   C     C_R   0.945584 0.630841 0.557028 -0.081948
C28   C     C_R   0.055994 0.345708 0.426154 -0.078913
C29   C     C_R   0.961573 0.199306 0.366706 0.146393
C30   C     C_R   0.040069 0.766399 0.670876 0.140180
C31   C     C_R   0.021376 0.202997 0.350111 0.335879
C32   C     C_R   0.980301 0.772757 0.634615 0.340268
Cu1   Cu    Cu3+1 0.506340 0.517380 0.684380 1.026856
Cu2   Cu    Cu3+1 0.493660 0.482620 0.315620 1.037404
H1    H     H_    0.492407 0.957359 0.285558 0.193246
H2    H     H_    0.508857 0.042815 0.714446 0.188196
N1    N     N_R   0.852804 0.487894 0.498263 -0.472305
N2    N     N_R   0.149161 0.484025 0.525112 -0.465888
N3    N     N_2   0.484110 0.456420 0.038520 0.136627
N4    N     N_2   0.515890 0.543580 0.961480 0.129920
O1    O     O_R   0.504120 0.286130 0.619770 -0.544602
O2    O     O_R   0.495880 0.713870 0.380230 -0.531626
O3    O     O_R   0.493410 0.256770 0.308360 -0.611129
O4    O     O_R   0.506590 0.743230 0.691640 -0.612053
O5    O     O_R   0.423230 0.514630 0.655730 -0.541302
O6    O     O_R   0.576770 0.485370 0.344270 -0.522742
O7    O     O_R   0.412530 0.485280 0.344320 -0.601728
O8    O     O_R   0.587470 0.514720 0.655680 -0.594223
O9    O     O_2   0.859818 0.764763 0.543188 -0.425512
O10   O     O_2   0.140409 0.238669 0.305280 -0.455006
O11   O     O_2   0.845172 0.211588 0.457070 -0.473368
O12   O     O_2   0.158393 0.720239 0.758843 -0.515085
N5    N     N_2   0.926652 0.053953 0.304201 -0.375324
H3    H     H_    0.943991 0.956203 0.335215 0.274239
C33   C     C_3   0.900182 0.024333 0.116236 -0.525917
H4    H     H_    0.933308 0.009874 0.017774 0.223202
H5    H     H_    0.874564 0.123915 0.098483 0.250703
H6    H     H_    0.871251 0.914196 0.083998 0.259562
N6    N     N_2   0.074273 0.904796 0.772492 -0.402952
H7    H     H_    0.057234 0.972883 0.884970 0.271748
C34   C     C_3   0.103842 0.994871 0.664170 -0.492531
H8    H     H_    0.082956 0.106339 0.665444 0.184128
H9    H     H_    0.104483 0.926368 0.518401 0.256077
H10   H     H_    0.148655 0.025233 0.726709 0.269838
O13   O     O_3   0.047514 0.068453 0.269457 -0.713555
H11   H     H_    0.019054 0.986583 0.192807 0.315204
O14   O     O_3   0.954694 0.914201 0.681443 -0.700190
H12   H     H_    0.983127 0.004309 0.690640 0.323180
N7    N     N_2   0.209169 0.744469 0.436739 -0.413379
H13   H     H_    0.227824 0.857664 0.491624 0.284997
C35   C     C_3   0.187354 0.716100 0.244193 -0.610526
H14   H     H_    0.161150 0.814190 0.224723 0.266183
H15   H     H_    0.159783 0.603296 0.200325 0.235282
H16   H     H_    0.223298 0.710513 0.155914 0.230470
N8    N     N_2   0.779849 0.317824 0.183226 -0.395451
H17   H     H_    0.756894 0.214912 0.109388 0.265972
C36   C     C_3   0.801264 0.413429 0.066389 -0.671408
H18   H     H_    0.820020 0.336733 0.948426 0.229966
H19   H     H_    0.835089 0.503980 0.144743 0.245809
H20   H     H_    0.765873 0.473550 0.011584 0.244505
N9    N     N_2   0.332685 0.767324 0.475698 -0.429279
H21   H     H_    0.313924 0.827546 0.386783 0.264246
C37   C     C_3   0.354336 0.867788 0.655006 -0.688765
H22   H     H_    0.318381 0.917939 0.731562 0.231336
H23   H     H_    0.383629 0.965807 0.637248 0.240514
H24   H     H_    0.379008 0.800008 0.738770 0.243918
N10   N     N_2   0.658376 0.302885 0.195905 -0.423342
H25   H     H_    0.664855 0.183939 0.173210 0.237292
C38   C     C_3   0.648135 0.357032 0.028320 -0.543455
H26   H     H_    0.677971 0.305570 0.926584 0.187132
H27   H     H_    0.653124 0.488549 0.057639 0.244876
H28   H     H_    0.603799 0.316639 0.965509 0.240368
N11   N     N_2   0.328931 0.221268 0.529737 -0.403472
H29   H     H_    0.313281 0.151643 0.610664 0.295864
C39   C     C_3   0.336561 0.131032 0.344632 -0.682842
H30   H     H_    0.295428 0.066072 0.276636 0.244446
H31   H     H_    0.369396 0.045637 0.351672 0.225205
H32   H     H_    0.351761 0.208866 0.257900 0.229111
N12   N     N_2   0.684659 0.692439 0.799103 -0.404507
H33   H     H_    0.706059 0.700649 0.927525 0.283797
C40   C     C_3   0.672643 0.846014 0.769275 -0.623915
H34   H     H_    0.713067 0.914052 0.758648 0.251557
H35   H     H_    0.651447 0.913670 0.887508 0.201521
H36   H     H_    0.643440 0.832618 0.640930 0.215036
O15   O     O_3   0.216142 0.240476 0.619456 -0.730397
H37   H     H_    0.182207 0.278447 0.681708 0.324170
O16   O     O_3   0.800550 0.660452 0.813593 -0.726540
H38   H     H_    0.836971 0.609834 0.822958 0.323659
O17   O     O_3   0.445442 0.352886 0.923196 -0.604989
H39   H     H_    0.425464 0.297403 0.003759 0.325315
O18   O     O_3   0.554073 0.648475 0.077006 -0.623673
H40   H     H_    0.574025 0.703891 0.996348 0.335726

loop_
_geom_bond_atom_site_label_1
_geom_bond_atom_site_label_2
_ccdc_geom_bond_type
N10   H25   S    
N11   H29   S    
Cu1   O5    S    
C39   H30   S    
Cu2   O2    S    
C33   H4    S    
N9    H21   S    
C39   H32   S    
C36   H18   S    
C40   H34   S    
C23   C29   A    
C3    N7    S    
C24   C26   A    
C8    C10   A    
C15   C16   D    
C22   N2    A    
N8    C36   S    
C5    N9    S    
N7    C35   S    
C34   H9    S    
C4    N8    S    
C20   O10   S    
C19   N1    A    
C1    O3    A    
O18   H40   S    
C2    O4    A    
C7    C17   S    
C11   O15   S    
O16   H38   S    
C1    C15   S    
C38   H27   S    
C2    C16   S    
C3    C13   A    
C36   H19   S    
N6    H7    S    
N11   C39   S    
Cu1   O8    S    
C34   H8    S    
C18   O6    A    
C15   H1    S    
N9    C37   S    
N4    O18   S    
N5    C33   S    
N6    C34   S    
Cu1   N4    S    
O14   H12   S    
C4    C6    A    
N3    N4    D    
C5    C7    A    
C6    C8    A    
C20   C28   A    
C25   C26   A    
N5    H3    S    
C8    C18   S    
C6    N10   S    
Cu2   N3    S    
C34   H10   S    
N8    H17   S    
C12   O16   S    
C20   N2    A    
C19   O9    S    
C37   H22   S    
C30   N6    S    
Cu1   Cu2   S    
C38   H28   S    
C9    C11   A    
C13   N2    S    
C10   C12   A    
C32   O14   S    
Cu2   O6    S    
C1    O1    A    
N12   C40   S    
C12   C14   A    
C40   H36   S    
C33   H5    S    
C22   C24   A    
C9    N11   S    
C21   O11   S    
C19   C27   A    
C22   O12   S    
C36   H20   S    
C31   O13   S    
C37   H23   S    
C27   C32   A    
Cu1   O4    S    
C28   C31   A    
Cu2   O3    S    
C17   O7    A    
C17   O5    A    
C3    C5    A    
C18   O8    A    
C35   H16   S    
C39   H31   S    
C25   C27   A    
O15   H37   S    
C26   C28   A    
N12   H33   S    
Cu1   O1    S    
C21   C23   A    
C35   H14   S    
C29   C31   A    
O17   H39   S    
C16   H2    S    
C14   N1    S    
C30   C32   A    
C11   C13   A    
C29   N5    S    
C2    O2    A    
C10   N12   S    
C23   C25   A    
C4    C14   A    
N7    H13   S    
C24   C30   A    
C7    C9    A    
N3    O17   S    
C37   H24   S    
C21   N1    A    
C40   H35   S    
O13   H11   S    
C33   H6    S    
C35   H15   S    
N10   C38   S    
Cu2   O7    S    
C38   H26   S    
