data_mof_unit_55066.cif
_audit_creation_date              2012-12-10T17:39:05-0500
_audit_creation_method            fapswitch 2.2
_symmetry_space_group_name_H-M    P1
_symmetry_Int_Tables_number       1
_space_group_crystal_system       triclinic
_cell_length_a                    12.254726
_cell_length_b                    13.148376
_cell_length_c                    23.326316
_cell_angle_alpha                 91.091425
_cell_angle_beta                  86.571919
_cell_angle_gamma                 91.718728
_cell_volume                      3749.58923882

loop_
_atom_site_label
_atom_site_type_symbol
_atom_type_description
_atom_site_fract_x
_atom_site_fract_y
_atom_site_fract_z
_atom_type_partial_charge
C1    C     C_R   0.520060 0.699918 0.499498 0.924539
C2    C     C_R   0.444494 0.407166 0.303374 0.489195
C3    C     C_R   0.267527 0.849915 0.562750 -0.117915
C4    C     C_3   0.221445 0.194922 0.551090 0.123514
C5    C     C_3   0.104423 0.227378 0.549832 -0.881490
C6    C     C_3   0.814255 0.827546 0.459920 0.082777
C7    C     C_3   0.860785 0.730640 0.433057 -0.819706
C8    C     C_R   0.469906 0.595639 0.760430 -0.362164
C9    C     C_R   0.426129 0.407363 0.245194 -0.257640
C10   C     C_R   0.487841 0.509997 0.792742 0.105718
C11   C     C_R   0.482050 0.477344 0.208724 0.040341
C12   C     C_R   0.470451 0.189677 0.492582 -0.226302
C13   C     C_R   0.529834 0.811209 0.497399 -0.190994
C14   C     C_R   0.644378 0.963560 0.493884 -0.347650
C15   C     C_R   0.356247 0.037726 0.488405 -0.312819
C16   C     C_R   0.635150 0.858375 0.494590 0.481329
C17   C     C_R   0.479981 0.300422 0.498182 0.870877
C18   C     C_R   0.365671 0.142139 0.493395 0.439760
C19   C     C_R   0.435049 0.871545 0.497471 -0.139418
C20   C     C_R   0.564970 0.129223 0.485468 -0.108701
C21   C     C_R   0.500382 0.496041 0.610235 0.955701
C22   C     C_R   0.499909 0.500007 0.389812 0.915100
C23   C     C_R   0.447745 0.977096 0.491382 0.027601
C24   C     C_R   0.552719 0.023317 0.489653 0.051564
C25   C     C_R   0.956712 0.471447 0.427363 -0.456617
C26   C     C_R   0.041944 0.529456 0.572033 -0.454198
C27   C     C_R   0.841320 0.457672 0.436255 0.642615
C28   C     C_R   0.526109 0.420310 0.764752 0.497914
C29   C     C_R   0.157392 0.544372 0.563307 0.644852
C30   C     C_R   0.857304 0.506390 0.534307 -0.015545
C31   C     C_R   0.142504 0.493998 0.465448 -0.016566
C32   C     C_R   0.974444 0.507865 0.526824 -0.008239
C33   C     C_R   0.024922 0.491886 0.472846 -0.003764
C34   C     C_R   0.434660 0.399289 0.116453 0.524260
C35   C     C_R   0.505984 0.593394 0.885776 0.516057
C36   C     C_R   0.453420 0.579561 0.125325 0.616531
C37   C     C_R   0.403727 0.436377 0.879926 0.612286
C38   C     C_R   0.460169 0.588520 0.065829 -0.066304
C39   C     C_R   0.561014 0.544724 0.232094 0.497290
C40   C     C_R   0.400101 0.427503 0.939481 -0.078612
C41   C     C_R   0.436131 0.502363 0.032282 -0.091960
C42   C     C_R   0.439665 0.509451 0.972425 -0.090462
C43   C     C_R   0.411346 0.408377 0.058541 -0.093769
C44   C     C_R   0.485392 0.597356 0.945649 -0.096461
C45   C     C_R   0.494895 0.679841 0.039550 -0.306017
C46   C     C_R   0.360209 0.338257 0.966546 -0.299892
C47   C     C_R   0.511565 0.684399 0.979413 0.505410
C48   C     C_R   0.370922 0.325797 0.025646 0.496804
C49   C     C_R   0.189300 0.465133 0.407977 0.219817
C50   C     C_R   0.525238 0.412580 0.704574 -0.220372
C51   C     C_R   0.204030 0.541040 0.366317 -0.144344
C52   C     C_R   0.198455 0.515987 0.308040 -0.167980
C53   C     C_R   0.176267 0.415411 0.290961 -0.139539
C54   C     C_R   0.166733 0.338727 0.331751 -0.105359
C55   C     C_R   0.176034 0.363072 0.389927 -0.077868
C56   C     C_R   0.808861 0.540545 0.590368 0.214807
C57   C     C_R   0.803404 0.645234 0.602556 -0.125008
C58   C     C_R   0.785356 0.680523 0.659061 -0.175935
C59   C     C_R   0.772784 0.611648 0.703898 -0.118204
C60   C     C_R   0.779899 0.507528 0.692261 -0.166775
C61   C     C_R   0.557560 0.561611 0.291807 -0.203271
C62   C     C_R   0.797765 0.471732 0.635720 -0.149620
C63   C     C_3   0.159683 0.623850 0.655232 0.080809
C64   C     C_3   0.230642 0.688468 0.693418 -0.774004
C65   C     C_3   0.830610 0.401199 0.339166 0.092732
C66   C     C_3   0.754560 0.349132 0.297921 -0.871263
C67   C     C_3   0.504954 0.858948 0.970082 0.092288
C68   C     C_3   0.529140 0.939070 0.924493 -0.771400
C69   C     C_3   0.382962 0.152363 0.031704 0.122104
C70   C     C_3   0.358102 0.065900 0.073325 -0.752204
C71   C     C_3   0.642155 0.347718 0.825232 0.083579
C72   C     C_R   0.503198 0.499529 0.672729 -0.192682
C73   C     C_3   0.644108 0.266928 0.870959 -0.795117
C74   C     C_3   0.711423 0.543937 0.169988 0.053991
C75   C     C_3   0.787492 0.610300 0.131685 -0.785668
C76   C     C_R   0.538333 0.311181 0.676894 0.199654
C77   C     C_R   0.447621 0.260790 0.654379 -0.152637
C78   C     C_R   0.456435 0.161445 0.632635 -0.147127
C79   C     C_R   0.555954 0.112862 0.632224 -0.110666
C80   C     C_R   0.645519 0.160798 0.656509 -0.189201
C81   C     C_R   0.636764 0.259558 0.678937 -0.092810
C82   C     C_R   0.598967 0.660824 0.314145 0.214180
C83   C     C_R   0.499278 0.491096 0.327660 -0.270482
C84   C     C_R   0.523947 0.729501 0.339567 -0.159276
C85   C     C_R   0.556264 0.830453 0.350493 -0.138163
C86   C     C_R   0.663502 0.863571 0.336115 -0.109228
C87   C     C_R   0.739585 0.795076 0.312528 -0.159222
C88   C     C_R   0.707827 0.693797 0.301922 -0.066622
C89   C     C_3   0.522797 0.767866 0.693748 0.100096
C90   C     C_3   0.564025 0.841311 0.647601 -0.850677
C91   C     C_3   0.472797 0.255372 0.345772 0.077654
C92   C     C_3   0.494002 0.187857 0.292375 -0.881238
C93   C     C_R   0.676610 0.171265 0.469606 0.199004
C94   C     C_R   0.487163 0.593519 0.700549 0.465614
C95   C     C_R   0.723862 0.150792 0.414415 -0.166921
C96   C     C_R   0.835055 0.171458 0.401897 -0.137781
C97   C     C_R   0.898830 0.215918 0.443746 -0.107681
C98   C     C_R   0.851727 0.238521 0.498353 -0.181665
C99   C     C_R   0.742174 0.213557 0.511749 -0.092106
C100  C     C_R   0.321687 0.829918 0.509115 0.210246
C101  C     C_R   0.261936 0.788758 0.464199 -0.117715
C102  C     C_R   0.150323 0.765155 0.473570 -0.162905
C103  C     C_R   0.097209 0.785488 0.527056 -0.122881
C104  C     C_R   0.155478 0.829276 0.571264 -0.151776
H1    H     H_    0.517546 0.744905 0.065855 0.188550
H2    H     H_    0.207187 0.575099 0.276298 0.151716
H3    H     H_    0.168312 0.396667 0.245999 0.137179
H4    H     H_    0.150968 0.260644 0.318427 0.132986
H5    H     H_    0.162168 0.303891 0.421270 0.161397
H6    H     H_    0.820636 0.699520 0.568943 0.176310
H7    H     H_    0.784450 0.761454 0.668283 0.138562
H8    H     H_    0.759858 0.639007 0.747763 0.154335
H9    H     H_    0.774723 0.455124 0.727342 0.111015
H10   H     H_    0.809375 0.391425 0.627321 0.108571
H11   H     H_    0.123046 0.560412 0.681573 0.142040
H12   H     H_    0.324786 0.276781 0.941605 0.191672
H13   H     H_    0.094553 0.674216 0.642206 0.134712
H14   H     H_    0.283836 0.741792 0.667387 0.288063
H15   H     H_    0.178163 0.733433 0.724310 0.185461
H16   H     H_    0.279441 0.638303 0.718498 0.257058
H17   H     H_    0.899706 0.349075 0.342348 0.143680
H18   H     H_    0.859809 0.474998 0.320337 0.127833
H19   H     H_    0.683215 0.396138 0.292306 0.250542
H20   H     H_    0.798631 0.338114 0.255374 0.204152
H21   H     H_    0.726505 0.273583 0.314126 0.258204
H22   H     H_    0.535169 0.889215 0.011192 0.139914
H23   H     H_    0.994114 0.466114 0.384748 0.155789
H24   H     H_    0.414478 0.845732 0.974686 0.127030
H25   H     H_    0.499788 0.911231 0.882705 0.262791
H26   H     H_    0.486996 0.010254 0.937264 0.184384
H27   H     H_    0.618538 0.955832 0.919475 0.258300
H28   H     H_    0.473445 0.165689 0.027702 0.138768
H29   H     H_    0.353124 0.128464 0.989302 0.123437
H30   H     H_    0.268511 0.050025 0.077988 0.250040
H31   H     H_    0.398821 0.996070 0.057060 0.177848
H32   H     H_    0.388379 0.086739 0.116052 0.278971
H33   H     H_    0.649500 0.423611 0.846820 0.134015
H34   H     H_    0.003531 0.535980 0.614476 0.155287
H35   H     H_    0.714577 0.337810 0.795071 0.124418
H36   H     H_    0.640257 0.189834 0.850731 0.260148
H37   H     H_    0.720708 0.275575 0.893942 0.204048
H38   H     H_    0.573245 0.275034 0.902483 0.249046
H39   H     H_    0.675293 0.482981 0.142602 0.149036
H40   H     H_    0.760720 0.508667 0.202514 0.128210
H41   H     H_    0.826278 0.671327 0.157798 0.251823
H42   H     H_    0.852435 0.563325 0.110347 0.205308
H43   H     H_    0.740635 0.645474 0.098267 0.265016
H44   H     H_    0.369811 0.297737 0.655198 0.123424
H45   H     H_    0.439907 0.663732 0.781984 0.185241
H46   H     H_    0.386543 0.121575 0.616064 0.110278
H47   H     H_    0.563663 0.038502 0.612609 0.147229
H48   H     H_    0.722165 0.122119 0.657087 0.130824
H49   H     H_    0.706548 0.294927 0.698077 0.103034
H50   H     H_    0.439226 0.706062 0.348394 0.118436
H51   H     H_    0.497594 0.883549 0.368950 0.138870
H52   H     H_    0.688032 0.942099 0.343750 0.113874
H53   H     H_    0.823034 0.820680 0.302080 0.127066
H54   H     H_    0.767058 0.642130 0.282544 0.122482
H55   H     H_    0.592992 0.751877 0.720137 0.160861
H56   H     H_    0.366899 0.352978 0.229369 0.223437
H57   H     H_    0.458024 0.805156 0.721371 0.149495
H58   H     H_    0.620291 0.802694 0.615788 0.280062
H59   H     H_    0.494152 0.869892 0.625172 0.243245
H60   H     H_    0.609030 0.905729 0.667769 0.206546
H61   H     H_    0.436629 0.205410 0.379949 0.184474
H62   H     H_    0.550440 0.288062 0.361559 0.157327
H63   H     H_    0.542671 0.230298 0.258515 0.264655
H64   H     H_    0.540783 0.120788 0.303659 0.214553
H65   H     H_    0.415198 0.160886 0.275483 0.278805
H66   H     H_    0.675325 0.115253 0.381926 0.108294
H67   H     H_    0.724959 0.997888 0.497759 0.158921
H68   H     H_    0.871580 0.153727 0.359635 0.121456
H69   H     H_    0.984208 0.233917 0.433584 0.126712
H70   H     H_    0.899288 0.275788 0.530522 0.140466
H71   H     H_    0.707848 0.229097 0.554506 0.143005
H72   H     H_    0.301458 0.776965 0.421960 0.105115
H73   H     H_    0.104555 0.732880 0.439124 0.128861
H74   H     H_    0.010852 0.768069 0.534348 0.127644
H75   H     H_    0.113690 0.847760 0.612148 0.123980
H76   H     H_    0.310939 0.886516 0.596930 0.109295
H77   H     H_    0.265066 0.249516 0.579088 0.157675
H78   H     H_    0.274533 0.005439 0.485241 0.178654
H79   H     H_    0.219286 0.117638 0.570137 0.119063
H80   H     H_    0.058017 0.169708 0.525024 0.252967
H81   H     H_    0.066721 0.232510 0.594245 0.209801
H82   H     H_    0.101506 0.302783 0.529521 0.261318
H83   H     H_    0.879339 0.869618 0.482532 0.144463
H84   H     H_    0.790340 0.876065 0.424545 0.141015
H85   H     H_    0.794806 0.683609 0.414210 0.275454
H86   H     H_    0.924256 0.749798 0.398707 0.192713
H87   H     H_    0.897921 0.685781 0.466098 0.240015
H88   H     H_    0.211712 0.620198 0.379075 0.111780
N1    N     N_R   0.454952 0.485000 0.149392 -0.337393
N2    N     N_R   0.464481 0.513815 0.853979 -0.341054
N3    N     N_R   0.207800 0.519350 0.510590 -0.152113
N4    N     N_R   0.792200 0.480650 0.489410 -0.152013
O1    O     O_R   0.421690 0.658830 0.502820 -0.609758
O2    O     O_2   0.569553 0.666475 0.859725 -0.532903
O3    O     O_2   0.447063 0.664491 0.158655 -0.530354
O4    O     O_2   0.349160 0.367184 0.848138 -0.528409
O5    O     O_3   0.221621 0.584167 0.606730 -0.560702
O6    O     O_3   0.775339 0.418052 0.393588 -0.571028
O7    O     O_3   0.560680 0.769670 0.953353 -0.556860
O8    O     O_3   0.328243 0.239479 0.053012 -0.573139
O9    O     O_3   0.545232 0.334070 0.795655 -0.566187
O10   O     O_3   0.629977 0.605096 0.196966 -0.567175
O11   O     O_3   0.478923 0.679400 0.667257 -0.602801
O12   O     O_R   0.578310 0.341170 0.497180 -0.620943
O13   O     O_3   0.396279 0.331014 0.337050 -0.602415
O14   O     O_3   0.270920 0.196840 0.494787 -0.598793
O15   O     O_3   0.727454 0.801343 0.500285 -0.619760
O16   O     O_R   0.609320 0.646410 0.496030 -0.568655
O17   O     O_R   0.390680 0.353590 0.503970 -0.582220
O18   O     O_R   0.406170 0.506240 0.587240 -0.550845
O19   O     O_R   0.593830 0.493760 0.412760 -0.571079
O20   O     O_R   0.593790 0.493820 0.580450 -0.626450
O21   O     O_R   0.406210 0.506180 0.419550 -0.615808
O22   O     O_2   0.442693 0.305789 0.138246 -0.553581
Zn1   Zn    Zn3+2 0.374720 0.508290 0.504530 1.018984
Zn2   Zn    Zn3+2 0.625280 0.491710 0.495470 1.002892

loop_
_geom_bond_atom_site_label_1
_geom_bond_atom_site_label_2
_ccdc_geom_bond_type
C3    C104  A    
O12   Zn2   S    
C15   C18   A    
C31   N3    A    
C87   C88   A    
C15   H78   S    
C26   C32   A    
C101  C102  A    
C27   O6    S    
C41   C42   A    
C91   H62   S    
C95   C96   A    
C36   O3    S    
C5    H81   S    
C91   O13   S    
N3    Zn1   S    
C97   C98   A    
C2    C83   A    
C64   H14   S    
C71   H33   S    
C73   H37   S    
C77   C78   A    
C75   H41   S    
C40   C46   A    
C64   H15   S    
C90   H58   S    
C18   O14   S    
C62   H10   S    
C37   C40   A    
C84   H50   S    
C61   C82   S    
C10   N2    S    
C63   H13   S    
C104  H75   S    
C39   O10   S    
C6    H84   S    
C4    O14   S    
C56   C57   A    
C60   C62   A    
C85   H51   S    
C37   O4    S    
C14   C24   A    
C81   H49   S    
C36   N1    A    
C38   C45   A    
C50   C72   A    
C35   N2    A    
C102  C103  A    
C28   C50   A    
C3    C100  A    
C30   N4    A    
C65   O6    S    
C20   C24   A    
C49   C51   A    
C12   C17   S    
C23   C24   A    
C31   C33   A    
C7    H86   S    
C65   H17   S    
C4    H77   S    
C43   C48   A    
C93   C99   A    
C5    H80   S    
C44   C47   A    
C56   C62   A    
C63   H11   S    
C40   C42   A    
C52   H2    S    
C59   C60   A    
C93   C95   A    
C22   O19   A    
C55   H5    S    
C1    O16   A    
C70   H32   S    
C28   O9    S    
C41   C43   A    
C7    H87   S    
C60   H9    S    
C69   C70   S    
C42   C44   A    
C5    H82   S    
C31   C49   S    
C17   O17   A    
C89   H57   S    
N4    Zn2   S    
C45   H1    S    
C89   H55   S    
C73   H38   S    
C45   C47   A    
C75   H42   S    
O17   Zn1   S    
C39   C61   A    
C46   C48   A    
C29   O5    S    
C74   C75   S    
C13   C19   A    
C21   C72   S    
C67   C68   S    
C11   C39   A    
C97   H69   S    
C76   C77   A    
C38   C41   A    
C61   C83   A    
C67   H22   S    
C91   C92   S    
C71   C73   S    
C86   C87   A    
C80   C81   A    
C71   H35   S    
C6    O15   S    
O16   Zn2   S    
C20   C93   S    
C75   H43   S    
C58   C59   A    
C85   C86   A    
C30   C56   S    
C6    H83   S    
C16   O15   S    
C58   H7    S    
C90   H60   S    
C68   H27   S    
C19   C23   A    
C3    H76   S    
C50   C76   S    
O20   Zn2   S    
C53   H3    S    
C21   O18   A    
C57   H6    S    
C71   O9    S    
C92   H65   S    
C29   N3    A    
C96   C97   A    
C12   C20   A    
C59   H8    S    
C21   O20   A    
C47   O7    S    
C65   H18   S    
C84   C85   A    
C37   N2    A    
C68   H26   S    
C35   C44   A    
C9    C11   A    
C77   H44   S    
C69   O8    S    
C34   N1    A    
C22   O21   A    
C65   C66   S    
C88   H54   S    
C70   H31   S    
C66   H20   S    
C74   H39   S    
C1    C13   S    
C8    C94   A    
C52   C53   A    
C78   H46   S    
C79   H47   S    
C74   O10   S    
C10   C28   A    
C80   H48   S    
C74   H40   S    
C54   C55   A    
C2    O13   S    
C69   H29   S    
C63   O5    S    
C78   C79   A    
O1    Zn1   S    
C91   H61   S    
C17   O12   A    
C1    O1    A    
C94   O11   S    
C11   N1    S    
C14   H67   S    
C26   H34   S    
C64   H16   S    
C76   C81   A    
C98   H70   S    
C19   C100  S    
C34   O22   S    
C53   C54   A    
C6    C7    S    
C63   C64   S    
C73   H36   S    
C54   H4    S    
O21   Zn1   S    
C48   O8    S    
C82   C84   A    
C9    H56   S    
C66   H21   S    
C46   H12   S    
C90   H59   S    
O18   Zn1   S    
C103  H74   S    
C32   C33   A    
C36   C38   A    
C8    H45   S    
C25   H23   S    
C72   C94   A    
C51   C52   A    
C49   C55   A    
O19   Zn2   S    
C22   C83   S    
C30   C32   A    
C92   H63   S    
C57   C58   A    
C89   O11   S    
C69   H28   S    
C82   C88   A    
C15   C23   A    
C100  C101  A    
C14   C16   A    
C4    H79   S    
C68   H25   S    
C95   H66   S    
C92   H64   S    
C67   O7    S    
C79   C80   A    
C87   H53   S    
C4    C5    S    
C99   H71   S    
C26   C29   A    
C8    C10   A    
C98   C99   A    
C96   H68   S    
C13   C16   A    
C12   C18   A    
C103  C104  A    
C70   H30   S    
C102  H73   S    
C66   H19   S    
C7    H85   S    
C101  H72   S    
C27   N4    A    
C89   C90   S    
C67   H24   S    
C2    C9    A    
C34   C43   A    
C51   H88   S    
C86   H52   S    
C35   O2    S    
C25   C33   A    
C25   C27   A    
