data_mof_unit_50243.cif
_audit_creation_date              2012-12-10T17:59:34-0500
_audit_creation_method            fapswitch 2.2
_symmetry_space_group_name_H-M    P1
_symmetry_Int_Tables_number       1
_space_group_crystal_system       triclinic
_cell_length_a                    18.328841
_cell_length_b                    18.349643
_cell_length_c                    34.264937
_cell_angle_alpha                 90.226768
_cell_angle_beta                  90.110054
_cell_angle_gamma                 89.766395
_cell_volume                      11524.0401234

loop_
_atom_site_label
_atom_site_type_symbol
_atom_type_description
_atom_site_fract_x
_atom_site_fract_y
_atom_site_fract_z
_atom_type_partial_charge
C1    C     C_R   0.975777 0.564177 0.418875 0.392240
C2    C     C_R   0.475111 0.935967 0.081112 0.385773
C3    C     C_R   0.432015 0.004089 0.541141 -0.180000
C4    C     C_R   0.990074 0.567071 0.459401 -0.173783
C5    C     C_R   0.994239 0.432804 0.540617 -0.178072
C6    C     C_R   0.431665 0.990320 0.458996 -0.177296
C7    C     C_R   0.565425 0.991958 0.540867 -0.182395
C8    C     C_R   0.503261 0.934449 0.958476 -0.188155
C9    C     C_R   0.504409 0.065559 0.041270 -0.159737
C10   C     C_R   0.066630 0.514225 0.959473 -0.181942
C11   C     C_R   0.932420 0.507492 0.040925 -0.165249
C12   C     C_R   0.490588 0.067581 0.959231 -0.148032
C13   C     C_R   0.940006 0.474716 0.918972 0.380622
C14   C     C_R   0.488721 0.932999 0.040517 -0.183053
C15   C     C_R   0.934980 0.492119 0.958931 -0.169361
C16   C     C_R   0.066119 0.499410 0.041492 -0.184388
C17   C     C_R   0.196683 0.696493 0.249952 -0.350287
C18   C     C_R   0.802924 0.304427 0.750552 -0.352366
C19   C     C_R   0.301579 0.194894 0.252052 -0.376375
C20   C     C_R   0.696063 0.804387 0.750672 -0.378276
C21   C     C_R   0.803371 0.304278 0.249654 -0.353457
C22   C     C_R   0.195842 0.696041 0.750197 -0.380405
C23   C     C_R   0.694875 0.801624 0.247884 -0.375432
C24   C     C_R   0.063071 0.481913 0.081493 0.379049
C25   C     C_R   0.305064 0.196660 0.750429 -0.400613
C26   C     C_R   0.198326 0.305100 0.752170 -0.375400
C27   C     C_R   0.803262 0.694867 0.249829 -0.402150
C28   C     C_R   0.303411 0.803473 0.750046 -0.352523
C29   C     C_R   0.696088 0.196568 0.249919 -0.344902
C30   C     C_R   0.804234 0.697547 0.748919 -0.364796
C31   C     C_R   0.194836 0.303204 0.250155 -0.397734
C32   C     C_R   0.694934 0.197409 0.751024 -0.351283
C33   C     C_R   0.304168 0.804023 0.249686 -0.385103
C34   C     C_R   0.999136 0.500380 0.479495 -0.100075
C35   C     C_R   0.520824 0.938210 0.918509 0.378882
C36   C     C_R   0.999251 0.499634 0.520493 -0.100059
C37   C     C_R   0.498019 0.999240 0.479556 -0.097176
C38   C     C_R   0.498523 0.998560 0.520514 -0.097104
C39   C     C_R   0.496431 0.000583 0.979375 -0.109921
C40   C     C_R   0.496259 0.999693 0.020373 -0.102382
C41   C     C_R   0.000395 0.503813 0.979728 -0.102207
C42   C     C_R   0.999629 0.503788 0.020712 -0.101292
C43   C     C_3   0.935068 0.292200 0.439273 0.159240
C44   C     C_3   0.874554 0.265278 0.466322 -0.411906
C45   C     C_3   0.807121 0.243130 0.442960 -0.875242
C46   C     C_R   0.521347 0.061580 0.081309 0.382836
C47   C     C_3   0.912727 0.698872 0.557580 0.133784
C48   C     C_3   0.861817 0.745718 0.532647 -0.370177
C49   C     C_3   0.784236 0.744558 0.548620 -0.894711
C50   C     C_3   0.703250 0.932232 0.438338 0.162411
C51   C     C_3   0.725854 0.868374 0.464342 -0.414264
C52   C     C_3   0.738739 0.799510 0.440097 -0.883036
C53   C     C_3   0.296725 0.913243 0.555261 0.147067
C54   C     C_3   0.265818 0.859337 0.525306 -0.396148
C55   C     C_3   0.253921 0.784497 0.543424 -0.878763
C56   C     C_3   0.075259 0.711005 0.453261 0.152534
C57   C     C_R   0.062859 0.527912 0.918942 0.391536
C58   C     C_3   0.084432 0.789036 0.438804 -0.330039
C59   C     C_3   0.162757 0.803646 0.426264 -0.883947
C60   C     C_3   0.085298 0.295685 0.553269 0.141128
C61   C     C_3   0.137936 0.264795 0.522624 -0.385285
C62   C     C_3   0.212549 0.248268 0.540366 -0.875371
C63   C     C_3   0.288686 0.073825 0.448875 0.148080
C64   C     C_3   0.212592 0.081618 0.431007 -0.328257
C65   C     C_3   0.200451 0.157533 0.414122 -0.887405
C66   C     C_3   0.706102 0.071516 0.558627 0.163672
C67   C     C_3   0.734291 0.131330 0.531604 -0.404555
C68   C     C_R   0.934464 0.520788 0.081552 0.390237
C69   C     C_3   0.755486 0.199195 0.554853 -0.881452
C70   C     C_3   0.416274 0.801012 0.939007 0.153227
C71   C     C_3   0.354226 0.777114 0.965876 -0.398401
C72   C     C_3   0.282646 0.771019 0.943234 -0.888901
C73   C     C_3   0.415625 0.203982 0.055085 0.130796
C74   C     C_3   0.366228 0.240024 0.024543 -0.386493
C75   C     C_3   0.290964 0.257137 0.041243 -0.872131
C76   C     C_3   0.211273 0.433394 0.950022 0.145404
C77   C     C_3   0.287047 0.426942 0.931744 -0.318830
C78   C     C_3   0.301032 0.350537 0.915591 -0.904414
C79   C     C_R   0.000364 0.501626 0.398261 -0.328464
C80   C     C_3   0.791231 0.414457 0.046171 0.139244
C81   C     C_3   0.717857 0.403963 0.066379 -0.337856
C82   C     C_3   0.706696 0.324752 0.078133 -0.878823
C83   C     C_3   0.578958 0.223193 0.965473 0.124071
C84   C     C_3   0.592832 0.283491 0.935817 -0.370041
C85   C     C_3   0.669193 0.315169 0.940347 -0.849371
C86   C     C_3   0.573935 0.791207 0.049969 0.147193
C87   C     C_3   0.582780 0.714953 0.067192 -0.314025
C88   C     C_3   0.658271 0.704099 0.085125 -0.905851
C89   C     C_3   0.789686 0.569982 0.944186 0.125031
C90   C     C_R   0.999886 0.498869 0.601772 -0.317857
C91   C     C_3   0.749284 0.617729 0.974000 -0.386525
C92   C     C_3   0.725664 0.690161 0.956186 -0.861200
C93   C     C_3   0.197389 0.590887 0.060187 0.154887
C94   C     C_3   0.221065 0.652411 0.033005 -0.397284
C95   C     C_3   0.226166 0.724592 0.055163 -0.889874
C96   C     C_3   0.209165 0.928937 0.278627 0.140276
C97   C     C_3   0.133615 0.924084 0.297350 -0.360148
C98   C     C_3   0.134422 0.956770 0.338351 -0.947142
C99   C     C_3   0.737728 0.149396 0.836689 0.109943
C100  C     C_3   0.733860 0.080362 0.861424 -0.269904
C101  C     C_R   0.497759 0.000873 0.398303 -0.322683
C102  C     C_3   0.694556 0.094266 0.899954 -0.928488
C103  C     C_3   0.062847 0.209322 0.271564 0.146749
C104  C     C_3   0.072292 0.136839 0.293028 -0.364238
C105  C     C_3   0.018912 0.131228 0.327027 -0.952477
C106  C     C_3   0.896096 0.799086 0.811437 0.126497
C107  C     C_3   0.975781 0.806974 0.823822 -0.291774
C108  C     C_3   0.982933 0.819545 0.867691 -0.944539
C109  C     C_3   0.827168 0.077049 0.228837 0.184472
C110  C     C_3   0.885055 0.051388 0.199642 -0.298508
C111  C     C_3   0.937943 0.997218 0.218041 -1.017690
C112  C     C_R   0.979287 0.435270 0.581044 0.373002
C113  C     C_R   0.499298 0.999106 0.601741 -0.320665
C114  C     C_3   0.204984 0.892761 0.812974 0.125541
C115  C     C_3   0.205190 0.971591 0.827327 -0.287137
C116  C     C_3   0.201848 0.975248 0.871776 -0.948970
C117  C     C_3   0.927074 0.787637 0.278261 0.145319
C118  C     C_3   0.924475 0.862468 0.298148 -0.402442
C119  C     C_3   0.946857 0.857536 0.340987 -0.891697
C120  C     C_3   0.115355 0.233705 0.821100 0.165189
C121  C     C_3   0.142126 0.170001 0.846144 -0.398658
C122  C     C_3   0.135496 0.188368 0.889515 -0.926608
C123  C     C_3   0.208933 0.072664 0.723846 0.140154
C124  C     C_R   0.499941 0.001786 0.898176 -0.331204
C125  C     C_3   0.133584 0.079523 0.704753 -0.412203
C126  C     C_3   0.134730 0.051575 0.662734 -0.865277
C127  C     C_3   0.767541 0.884700 0.179595 0.166835
C128  C     C_3   0.832158 0.858988 0.154788 -0.400362
C129  C     C_3   0.815276 0.867377 0.111361 -0.932231
C130  C     C_3   0.069724 0.795899 0.724891 0.155445
C131  C     C_3   0.053715 0.876013 0.716116 -0.360169
C132  C     C_3   0.013893 0.884520 0.677243 -0.930462
C133  C     C_3   0.864401 0.249964 0.167025 0.107604
C134  C     C_3   0.937524 0.248342 0.145528 -0.274089
C135  C     C_R   0.499296 0.998606 0.101678 -0.326585
C136  C     C_3   0.932070 0.284530 0.105638 -0.914577
C137  C     C_3   0.817622 0.923371 0.727800 0.097836
C138  C     C_3   0.805645 0.005701 0.726672 -0.288540
C139  C     C_3   0.840956 0.039811 0.690877 -0.983896
C140  C     C_3   0.195413 0.098866 0.191360 0.205146
C141  C     C_3   0.128628 0.050110 0.186155 -0.348057
C142  C     C_3   0.113741 0.034036 0.143150 -0.972846
C143  C     C_3   0.920880 0.174747 0.776546 0.166216
C144  C     C_3   0.942398 0.117764 0.807080 -0.309928
C145  C     C_3   0.993270 0.059868 0.790080 -1.005977
C146  C     C_R   0.001427 0.500633 0.898410 -0.326206
C147  C     C_3   0.106465 0.796637 0.188421 0.132116
C148  C     C_3   0.027668 0.793422 0.174087 -0.288657
C149  C     C_3   0.023902 0.797171 0.129657 -0.953513
C150  C     C_3   0.673208 0.423927 0.732649 0.182967
C151  C     C_3   0.610030 0.447890 0.706269 -0.309234
C152  C     C_3   0.560417 0.502607 0.726772 -1.022378
C153  C     C_3   0.300227 0.607494 0.310847 0.135853
C154  C     C_3   0.298817 0.529090 0.325433 -0.300426
C155  C     C_3   0.308094 0.526418 0.369658 -0.939142
C156  C     C_3   0.571768 0.715227 0.780242 0.147952
C157  C     C_R   0.998577 0.500122 0.101873 -0.332621
C158  C     C_3   0.574916 0.642537 0.802014 -0.422724
C159  C     C_3   0.554359 0.651823 0.844900 -0.857668
C160  C     C_3   0.385354 0.267303 0.320546 0.169635
C161  C     C_3   0.359788 0.331674 0.345621 -0.405136
C162  C     C_3   0.367030 0.313904 0.388982 -0.922698
C163  C     C_3   0.292058 0.572099 0.778590 0.138569
C164  C     C_3   0.368203 0.577882 0.796754 -0.368477
C165  C     C_3   0.368832 0.547484 0.838139 -0.941844
C166  C     C_3   0.744143 0.370644 0.331446 0.103975
C167  C     C_3   0.745234 0.446032 0.350757 -0.276151
C168  C     C_R   0.004285 0.367401 0.478743 0.427795
C169  C     C_3   0.768801 0.442093 0.393397 -0.918451
C170  C     C_3   0.436535 0.290707 0.772724 0.148211
C171  C     C_3   0.426213 0.363089 0.794500 -0.368418
C172  C     C_3   0.479584 0.369397 0.828611 -0.950985
C173  C     C_3   0.599328 0.695445 0.308265 0.208205
C174  C     C_3   0.551655 0.627927 0.313172 -0.348864
C175  C     C_3   0.537028 0.612168 0.356137 -0.976735
C176  C     C_3   0.708655 0.564021 0.226995 0.151348
C177  C     C_3   0.634760 0.572135 0.206491 -0.366184
C178  C     C_3   0.629150 0.520577 0.171546 -0.948908
C179  C     C_R   0.995061 0.632292 0.521447 0.437504
C180  C     C_3   0.306200 0.400532 0.692058 0.210664
C181  C     C_3   0.374684 0.447185 0.688015 -0.353208
C182  C     C_3   0.392387 0.462321 0.645329 -0.976501
C183  C     C_3   0.575650 0.327237 0.270205 0.180493
C184  C     C_3   0.549851 0.385648 0.299138 -0.301852
C185  C     C_3   0.495242 0.437809 0.280562 -1.013631
C186  C     C_3   0.392365 0.702605 0.687935 0.134740
C187  C     C_3   0.470956 0.705236 0.673516 -0.293837
C188  C     C_3   0.474353 0.698856 0.629150 -0.941643
C189  C     C_3   0.286670 0.426666 0.221694 0.147618
C190  C     C_R   0.631060 0.002404 0.479215 0.439817
C191  C     C_3   0.361158 0.425009 0.201569 -0.420604
C192  C     C_3   0.354898 0.446242 0.158660 -0.855484
C193  C     C_3   0.728004 0.608522 0.683002 0.168352
C194  C     C_3   0.661803 0.630898 0.658503 -0.396476
C195  C     C_3   0.674343 0.612218 0.615590 -0.947673
C196  C     C_3   0.428324 0.709387 0.219773 0.144342
C197  C     C_3   0.422738 0.633976 0.200767 -0.373183
C198  C     C_3   0.453090 0.634925 0.159324 -0.925752
C199  C     C_3   0.629097 0.256904 0.668537 0.104358
C200  C     C_3   0.553526 0.257161 0.649409 -0.279427
C201  C     C_R   0.365548 0.994958 0.520575 0.444003
C202  C     C_3   0.557072 0.235769 0.606427 -0.919476
C203  C     C_R   0.994279 0.633188 0.480737 0.413279
C204  C     C_R   0.435441 0.975711 0.418511 0.393262
C205  C     C_R   0.003408 0.366865 0.519529 0.444190
C206  C     C_R   0.365167 0.994715 0.479808 0.408530
C207  C     C_R   0.631832 0.999811 0.520014 0.436539
C208  C     C_R   0.493657 0.867735 0.978435 0.446346
C209  C     C_R   0.497195 0.132432 0.021283 0.409985
C210  C     C_R   0.133086 0.511583 0.980568 0.417983
C211  C     C_R   0.866670 0.498690 0.019686 0.404529
C212  C     C_R   0.497447 0.133445 0.980416 0.410617
C213  C     C_R   0.493676 0.866850 0.019193 0.420364
C214  C     C_R   0.867740 0.496445 0.978932 0.433951
C215  C     C_R   0.562311 0.976288 0.581162 0.369398
C216  C     C_R   0.132467 0.511155 0.021350 0.442531
C217  C     C_R   0.499109 0.000208 0.355851 0.974215
C218  C     C_R   0.499917 0.999799 0.644167 0.994497
C219  C     C_R   0.000079 0.501008 0.355844 0.988868
C220  C     C_R   0.999942 0.499140 0.644169 0.985409
C221  C     C_R   0.000677 0.500150 0.855890 0.972619
C222  C     C_R   0.999185 0.499936 0.144216 1.000447
C223  C     C_R   0.500035 0.001013 0.855810 0.997222
C224  C     C_R   0.499872 0.999205 0.144134 0.980568
C225  C     C_R   0.359060 0.139550 0.250659 0.909976
C226  C     C_R   0.025757 0.439416 0.418520 0.375479
C227  C     C_R   0.640329 0.860464 0.749840 0.911386
C228  C     C_R   0.859768 0.360036 0.249872 0.894425
C229  C     C_R   0.139789 0.640195 0.749923 0.893313
C230  C     C_R   0.639514 0.859134 0.249324 0.906347
C231  C     C_R   0.360217 0.139951 0.750013 0.877822
C232  C     C_R   0.140278 0.640180 0.250021 0.925855
C233  C     C_R   0.859644 0.360058 0.750100 0.923034
C234  C     C_R   0.359765 0.859769 0.749978 0.925455
C235  C     C_R   0.640109 0.140216 0.250008 0.926331
C236  C     C_R   0.860118 0.640609 0.749636 0.913210
C237  C     C_R   0.020573 0.562514 0.581648 0.379204
C238  C     C_R   0.139681 0.359860 0.250033 0.881260
C239  C     C_R   0.639681 0.140481 0.750368 0.887123
C240  C     C_R   0.360071 0.860022 0.249891 0.882026
C241  C     C_R   0.140855 0.360478 0.750639 0.909041
C242  C     C_R   0.859909 0.639635 0.249977 0.876696
C243  C     C_R   0.230564 0.823584 0.244252 0.335075
C244  C     C_R   0.757147 0.189703 0.774887 0.309144
C245  C     C_R   0.175031 0.229992 0.243624 0.342973
C246  C     C_R   0.822099 0.769216 0.760408 0.299938
C247  C     C_R   0.761981 0.184697 0.229528 0.310462
C248  C     C_R   0.559130 0.026721 0.419122 0.365917
C249  C     C_R   0.231178 0.821555 0.760537 0.322914
C250  C     C_R   0.822077 0.767854 0.242812 0.351123
C251  C     C_R   0.181843 0.233551 0.764608 0.344576
C252  C     C_R   0.232119 0.178166 0.758034 0.350806
C253  C     C_R   0.766768 0.818091 0.235928 0.344077
C254  C     C_R   0.176548 0.769238 0.756948 0.321253
C255  C     C_R   0.813184 0.240294 0.227359 0.306973
C256  C     C_R   0.769021 0.823801 0.757506 0.315503
C257  C     C_R   0.229835 0.177125 0.240609 0.313346
C258  C     C_R   0.813444 0.240021 0.772328 0.321342
C259  C     C_R   0.435242 0.019798 0.581464 0.383624
C260  C     C_R   0.178284 0.768951 0.240297 0.309722
C261  C     C_R   0.736968 0.315833 0.730036 0.309316
C262  C     C_R   0.269451 0.678287 0.259262 0.309133
C263  C     C_R   0.676753 0.731239 0.744364 0.343106
C264  C     C_R   0.318227 0.266754 0.264132 0.346987
C265  C     C_R   0.269240 0.676458 0.744053 0.335459
C266  C     C_R   0.739316 0.314666 0.271757 0.310926
C267  C     C_R   0.324847 0.269790 0.743957 0.341810
C268  C     C_R   0.677080 0.729989 0.259129 0.313376
C269  C     C_R   0.729970 0.675199 0.256067 0.339944
C270  C     C_R   0.477351 0.065195 0.918601 0.399928
C271  C     C_R   0.270049 0.322666 0.740836 0.314209
C272  C     C_R   0.683974 0.262909 0.269973 0.313789
C273  C     C_R   0.321450 0.731048 0.739992 0.306466
C274  C     C_R   0.267981 0.322007 0.257206 0.349301
C275  C     C_R   0.731864 0.680497 0.737729 0.342793
C276  C     C_R   0.324010 0.730549 0.254970 0.332724
C277  C     C_R   0.685365 0.260391 0.728166 0.311234
C278  C     C_R   0.009185 0.434571 0.458591 -0.182795
C279  C     C_R   0.004762 0.565798 0.541444 -0.179981
C280  C     C_R   0.563847 0.009324 0.459054 -0.181485
H1    H     H_    0.944359 0.250563 0.416158 0.192216
H2    H     H_    0.881988 0.802759 0.532328 0.250238
H3    H     H_    0.840697 0.597406 0.934401 0.107042
H4    H     H_    0.700217 0.588523 0.984651 0.259221
H5    H     H_    0.785573 0.628880 0.999294 0.257195
H6    H     H_    0.773970 0.720748 0.945736 0.259238
H7    H     H_    0.697138 0.723542 0.978582 0.278982
H8    H     H_    0.687733 0.680700 0.931366 0.282923
H9    H     H_    0.237248 0.587287 0.084581 0.195656
H10   H     H_    0.143781 0.604525 0.073717 0.113796
H11   H     H_    0.275150 0.639004 0.020174 0.261531
H12   H     H_    0.180848 0.658267 0.008907 0.241579
H13   H     H_    0.861372 0.724738 0.502206 0.265608
H14   H     H_    0.172081 0.739846 0.067355 0.252338
H15   H     H_    0.244065 0.768352 0.035144 0.286173
H16   H     H_    0.266354 0.720170 0.079354 0.288102
H17   H     H_    0.223077 0.987299 0.274916 0.201680
H18   H     H_    0.251157 0.906133 0.298875 0.133827
H19   H     H_    0.093258 0.953752 0.279034 0.226492
H20   H     H_    0.116685 0.866169 0.299321 0.240892
H21   H     H_    0.172855 0.925980 0.357216 0.296841
H22   H     H_    0.079129 0.953772 0.351301 0.262917
H23   H     H_    0.151653 0.014644 0.337434 0.274118
H24   H     H_    0.760769 0.689259 0.545075 0.255665
H25   H     H_    0.681752 0.173292 0.834480 0.140597
H26   H     H_    0.774307 0.189363 0.851379 0.159471
H27   H     H_    0.704275 0.037351 0.844967 0.292153
H28   H     H_    0.789991 0.060185 0.867468 0.201299
H29   H     H_    0.724218 0.135897 0.917345 0.249396
H30   H     H_    0.692202 0.042980 0.916992 0.291522
H31   H     H_    0.637845 0.113306 0.894474 0.270988
H32   H     H_    0.004410 0.216135 0.263602 0.187775
H33   H     H_    0.076397 0.255296 0.291607 0.133186
H34   H     H_    0.062871 0.090925 0.272489 0.235158
H35   H     H_    0.749654 0.783400 0.532228 0.298851
H36   H     H_    0.128918 0.132579 0.304437 0.226183
H37   H     H_    0.028423 0.176021 0.348317 0.296857
H38   H     H_    0.026616 0.078456 0.342165 0.270770
H39   H     H_    0.961784 0.134193 0.316227 0.258994
H40   H     H_    0.872072 0.752311 0.827632 0.138170
H41   H     H_    0.866383 0.849952 0.819504 0.174400
H42   H     H_    0.006116 0.756548 0.815848 0.291100
H43   H     H_    0.000426 0.853818 0.808269 0.231532
H44   H     H_    0.953882 0.870301 0.876383 0.257435
H45   H     H_    0.041487 0.825066 0.875521 0.273481
H46   H     H_    0.783611 0.760491 0.579936 0.281680
H47   H     H_    0.959930 0.772709 0.883949 0.285086
H48   H     H_    0.798698 0.028867 0.240969 0.183808
H49   H     H_    0.855198 0.104920 0.253743 0.110858
H50   H     H_    0.858197 0.025586 0.174047 0.224332
H51   H     H_    0.916649 0.098717 0.189082 0.246844
H52   H     H_    0.965351 0.021905 0.243752 0.260767
H53   H     H_    0.979898 0.980828 0.196416 0.265881
H54   H     H_    0.908328 0.947785 0.227199 0.321303
H55   H     H_    0.250712 0.863264 0.827776 0.130827
H56   H     H_    0.152362 0.867179 0.821369 0.165291
H57   H     H_    0.746206 0.940257 0.415948 0.193276
H58   H     H_    0.255830 0.998887 0.817388 0.292039
H59   H     H_    0.157545 0.000992 0.814799 0.231250
H60   H     H_    0.149840 0.951662 0.882385 0.256572
H61   H     H_    0.205183 0.032810 0.881433 0.290425
H62   H     H_    0.248504 0.945065 0.884823 0.271557
H63   H     H_    0.985115 0.771546 0.274487 0.193554
H64   H     H_    0.902847 0.746099 0.298027 0.128525
H65   H     H_    0.962512 0.899809 0.283079 0.230649
H66   H     H_    0.868366 0.885407 0.296366 0.241294
H67   H     H_    0.908000 0.822759 0.357289 0.295067
H68   H     H_    0.652553 0.918277 0.422095 0.117684
H69   H     H_    0.946369 0.912839 0.354247 0.255426
H70   H     H_    0.002675 0.834248 0.343598 0.275920
H71   H     H_    0.058287 0.246928 0.829496 0.193489
H72   H     H_    0.148164 0.283257 0.828121 0.124313
H73   H     H_    0.109242 0.120779 0.839750 0.247157
H74   H     H_    0.200137 0.157823 0.839362 0.243425
H75   H     H_    0.168758 0.237020 0.896791 0.266688
H76   H     H_    0.155306 0.141983 0.907333 0.275481
H77   H     H_    0.077617 0.199335 0.897204 0.272120
H78   H     H_    0.221484 0.013906 0.727777 0.196523
H79   H     H_    0.776694 0.882390 0.480388 0.263985
H80   H     H_    0.251425 0.093846 0.703619 0.129782
H81   H     H_    0.093524 0.047206 0.721552 0.229360
H82   H     H_    0.115754 0.137463 0.704765 0.244382
H83   H     H_    0.172367 0.084853 0.644797 0.296572
H84   H     H_    0.079104 0.055583 0.650017 0.261821
H85   H     H_    0.152669 0.993699 0.661788 0.272546
H86   H     H_    0.753762 0.941631 0.171376 0.194532
H87   H     H_    0.718492 0.851392 0.172186 0.122873
H88   H     H_    0.881170 0.891619 0.162014 0.247943
H89   H     H_    0.844145 0.800788 0.161001 0.243332
H90   H     H_    0.681981 0.857665 0.485876 0.234721
H91   H     H_    0.766900 0.834397 0.103219 0.267232
H92   H     H_    0.862378 0.848482 0.093703 0.275704
H93   H     H_    0.804446 0.925478 0.104331 0.271421
H94   H     H_    0.017245 0.765990 0.726465 0.196521
H95   H     H_    0.100992 0.771253 0.700095 0.124196
H96   H     H_    0.019581 0.899681 0.739786 0.229866
H97   H     H_    0.105839 0.906562 0.714978 0.245595
H98   H     H_    0.048558 0.864149 0.652947 0.290112
H99   H     H_    0.001508 0.942969 0.672174 0.261313
H100  H     H_    0.961821 0.853761 0.677508 0.269124
H101  H     H_    0.688618 0.784930 0.423588 0.255694
H102  H     H_    0.841428 0.306324 0.165556 0.145121
H103  H     H_    0.826077 0.211819 0.152230 0.154805
H104  H     H_    0.979352 0.277425 0.163155 0.289963
H105  H     H_    0.955799 0.190944 0.141729 0.197224
H106  H     H_    0.888465 0.258743 0.087831 0.246023
H107  H     H_    0.984803 0.278648 0.090024 0.294694
H108  H     H_    0.920186 0.343520 0.109293 0.268471
H109  H     H_    0.791710 0.899409 0.701131 0.138042
H110  H     H_    0.877140 0.911577 0.727267 0.176628
H111  H     H_    0.746127 0.017325 0.726068 0.240233
H112  H     H_    0.917103 0.342560 0.424011 0.104109
H113  H     H_    0.753050 0.753434 0.459559 0.288243
H114  H     H_    0.829080 0.030604 0.753438 0.255725
H115  H     H_    0.901068 0.032221 0.691929 0.261000
H116  H     H_    0.828705 0.099124 0.690357 0.259142
H117  H     H_    0.819136 0.014725 0.663725 0.300466
H118  H     H_    0.243002 0.072707 0.176839 0.176468
H119  H     H_    0.184582 0.151630 0.176166 0.123170
H120  H     H_    0.137351 0.997858 0.201737 0.261242
H121  H     H_    0.080175 0.077686 0.198970 0.247702
H122  H     H_    0.102956 0.085488 0.127124 0.273083
H123  H     H_    0.065178 0.998410 0.140395 0.263726
H124  H     H_    0.784282 0.807946 0.419268 0.283689
H125  H     H_    0.161177 0.005525 0.129821 0.281696
H126  H     H_    0.970928 0.201735 0.765634 0.190850
H127  H     H_    0.895450 0.146541 0.751039 0.117667
H128  H     H_    0.969769 0.145000 0.832102 0.222787
H129  H     H_    0.892919 0.090383 0.818287 0.250210
H130  H     H_    0.967247 0.032049 0.764832 0.264581
H131  H     H_    0.006086 0.018524 0.812687 0.266452
H132  H     H_    0.044921 0.085334 0.780566 0.306609
H133  H     H_    0.137959 0.752907 0.172999 0.128950
H134  H     H_    0.129736 0.850611 0.180680 0.171172
H135  H     H_    0.259361 0.915290 0.580737 0.198166
H136  H     H_    0.002377 0.741652 0.183773 0.292880
H137  H     H_    0.996351 0.839581 0.186877 0.233499
H138  H     H_    0.044446 0.850572 0.119310 0.258566
H139  H     H_    0.966608 0.790526 0.119999 0.291736
H140  H     H_    0.056768 0.752579 0.116349 0.270684
H141  H     H_    0.702894 0.472792 0.743250 0.188885
H142  H     H_    0.650050 0.396574 0.758960 0.108262
H143  H     H_    0.631840 0.472342 0.679139 0.224850
H144  H     H_    0.576708 0.400151 0.697893 0.249960
H145  H     H_    0.537850 0.478822 0.753883 0.263614
H146  H     H_    0.350298 0.893280 0.566559 0.109532
H147  H     H_    0.514790 0.518278 0.707194 0.266340
H148  H     H_    0.591372 0.552328 0.734155 0.325840
H149  H     H_    0.257158 0.638783 0.326881 0.128924
H150  H     H_    0.354518 0.631397 0.317666 0.172586
H151  H     H_    0.245918 0.503643 0.317443 0.288044
H152  H     H_    0.343420 0.497523 0.311334 0.236860
H153  H     H_    0.362482 0.547737 0.378200 0.257086
H154  H     H_    0.303408 0.469396 0.379719 0.289928
H155  H     H_    0.264828 0.559113 0.384260 0.279883
H156  H     H_    0.513604 0.730595 0.776091 0.191269
H157  H     H_    0.212954 0.880315 0.513918 0.262711
H158  H     H_    0.595854 0.758805 0.798956 0.133102
H159  H     H_    0.536021 0.603953 0.788346 0.232434
H160  H     H_    0.630833 0.619128 0.800253 0.243220
H161  H     H_    0.593972 0.688075 0.859917 0.298115
H162  H     H_    0.555411 0.597919 0.859500 0.250970
H163  H     H_    0.498632 0.675359 0.847532 0.278156
H164  H     H_    0.442412 0.253524 0.328780 0.195305
H165  H     H_    0.352050 0.218280 0.327695 0.124239
H166  H     H_    0.393033 0.380467 0.339055 0.246701
H167  H     H_    0.301826 0.344284 0.338952 0.238772
H168  H     H_    0.304377 0.853570 0.500523 0.255001
H169  H     H_    0.333730 0.265475 0.396342 0.267022
H170  H     H_    0.347669 0.360554 0.406890 0.276708
H171  H     H_    0.424992 0.302823 0.396516 0.272177
H172  H     H_    0.278384 0.513550 0.775215 0.200453
H173  H     H_    0.250547 0.595199 0.799039 0.136637
H174  H     H_    0.407891 0.547157 0.778474 0.226355
H175  H     H_    0.385374 0.635819 0.797958 0.242276
H176  H     H_    0.332614 0.580518 0.857301 0.295877
H177  H     H_    0.425028 0.549490 0.850139 0.263977
H178  H     H_    0.349923 0.490085 0.838158 0.272824
H179  H     H_    0.306486 0.761785 0.554179 0.257109
H180  H     H_    0.798919 0.344796 0.335270 0.136645
H181  H     H_    0.702374 0.336437 0.346066 0.162353
H182  H     H_    0.783618 0.481812 0.334771 0.296406
H183  H     H_    0.690058 0.471127 0.349132 0.205163
H184  H     H_    0.730603 0.407418 0.410154 0.250934
H185  H     H_    0.768393 0.497658 0.406344 0.299332
H186  H     H_    0.824967 0.419672 0.395626 0.258066
H187  H     H_    0.495140 0.284346 0.765115 0.190985
H188  H     H_    0.423041 0.244567 0.792450 0.126451
H189  H     H_    0.435007 0.409111 0.774175 0.237889
H190  H     H_    0.231104 0.746743 0.521180 0.273911
H191  H     H_    0.369559 0.366733 0.805840 0.224516
H192  H     H_    0.470400 0.324763 0.849809 0.304926
H193  H     H_    0.471479 0.422201 0.843854 0.268163
H194  H     H_    0.536740 0.366779 0.817936 0.260145
H195  H     H_    0.572440 0.742498 0.322938 0.175831
H196  H     H_    0.652417 0.685537 0.323512 0.121200
H197  H     H_    0.498802 0.636120 0.297879 0.259284
H198  H     H_    0.579598 0.580097 0.299900 0.248225
H199  H     H_    0.589173 0.602307 0.371872 0.274412
H200  H     H_    0.502559 0.562829 0.358709 0.264115
H201  H     H_    0.214938 0.788602 0.568116 0.293436
H202  H     H_    0.507815 0.658751 0.369910 0.281931
H203  H     H_    0.717388 0.505626 0.234198 0.190089
H204  H     H_    0.753318 0.579317 0.206593 0.124140
H205  H     H_    0.590251 0.559968 0.227333 0.232976
H206  H     H_    0.627882 0.629119 0.196243 0.227597
H207  H     H_    0.671716 0.533675 0.149675 0.299616
H208  H     H_    0.574846 0.526458 0.157571 0.268525
H209  H     H_    0.635819 0.463110 0.181052 0.262208
H210  H     H_    0.260018 0.428316 0.677122 0.175762
H211  H     H_    0.315740 0.347538 0.676647 0.122410
H212  H     H_    0.092590 0.672498 0.429797 0.143225
H213  H     H_    0.366728 0.499848 0.703538 0.258557
H214  H     H_    0.421641 0.418330 0.701551 0.248899
H215  H     H_    0.402222 0.410383 0.629382 0.273653
H216  H     H_    0.442354 0.496161 0.643539 0.265970
H217  H     H_    0.346710 0.492362 0.631258 0.280896
H218  H     H_    0.527498 0.298149 0.258190 0.186059
H219  H     H_    0.603133 0.354710 0.245175 0.114551
H220  H     H_    0.524527 0.359362 0.324868 0.223834
H221  H     H_    0.597070 0.417774 0.309536 0.244488
H222  H     H_    0.519120 0.463745 0.254364 0.259724
H223  H     H_    0.894411 0.217601 0.483272 0.269988
H224  H     H_    0.110934 0.703362 0.479381 0.133654
H225  H     H_    0.479940 0.480906 0.301820 0.265012
H226  H     H_    0.445262 0.408067 0.272160 0.324588
H227  H     H_    0.360892 0.746248 0.672558 0.128951
H228  H     H_    0.368763 0.648585 0.680288 0.171708
H229  H     H_    0.496211 0.757591 0.682587 0.289349
H230  H     H_    0.502346 0.659908 0.686911 0.232864
H231  H     H_    0.454643 0.644488 0.619544 0.258002
H232  H     H_    0.531435 0.705890 0.619353 0.292038
H233  H     H_    0.440586 0.742035 0.615277 0.274369
H234  H     H_    0.269802 0.484429 0.225597 0.195189
H235  H     H_    0.047363 0.798775 0.413634 0.257632
H236  H     H_    0.245093 0.401772 0.201969 0.127496
H237  H     H_    0.398119 0.464082 0.216372 0.231082
H238  H     H_    0.385198 0.369434 0.203488 0.243548
H239  H     H_    0.320287 0.406517 0.142636 0.292966
H240  H     H_    0.409969 0.446223 0.145221 0.253528
H241  H     H_    0.330707 0.501588 0.155881 0.278572
H242  H     H_    0.742073 0.550922 0.676138 0.199156
H243  H     H_    0.776063 0.641643 0.673955 0.123899
H244  H     H_    0.612550 0.601947 0.668691 0.251373
H245  H     H_    0.652343 0.690484 0.661554 0.234710
H246  H     H_    0.069398 0.827608 0.462594 0.235162
H247  H     H_    0.725402 0.637888 0.605264 0.266962
H248  H     H_    0.628229 0.632352 0.597582 0.276909
H249  H     H_    0.678718 0.552230 0.611676 0.272232
H250  H     H_    0.486914 0.723181 0.223139 0.199704
H251  H     H_    0.404838 0.751447 0.199868 0.131175
H252  H     H_    0.453676 0.593778 0.218535 0.226963
H253  H     H_    0.364761 0.616740 0.199519 0.240856
H254  H     H_    0.420219 0.672107 0.140700 0.299468
H255  H     H_    0.450713 0.579361 0.146554 0.261176
H256  H     H_    0.510696 0.653399 0.159465 0.272550
H257  H     H_    0.201233 0.791385 0.450443 0.278649
H258  H     H_    0.654498 0.202105 0.664125 0.138790
H259  H     H_    0.663622 0.298888 0.654331 0.165413
H260  H     H_    0.517561 0.218205 0.664886 0.293658
H261  H     H_    0.528782 0.312352 0.651952 0.206230
H262  H     H_    0.591609 0.274781 0.590145 0.250879
H263  H     H_    0.501314 0.236810 0.593710 0.297583
H264  H     H_    0.579488 0.179808 0.603269 0.259678
H265  H     H_    0.838515 0.642282 0.351706 0.368283
H266  H     H_    0.839263 0.358311 0.645480 0.382648
H267  H     H_    0.367241 0.831562 0.353106 0.370387
H268  H     H_    0.168355 0.861961 0.418454 0.292099
H269  H     H_    0.630058 0.829485 0.644128 0.368109
H270  H     H_    0.174967 0.381494 0.354631 0.372126
H271  H     H_    0.165419 0.634089 0.645030 0.370431
H272  H     H_    0.616830 0.182066 0.359953 0.391509
H273  H     H_    0.356927 0.158528 0.647185 0.368760
H274  H     H_    0.340536 0.142247 0.851302 0.365990
H275  H     H_    0.334053 0.864302 0.146775 0.368439
H276  H     H_    0.884134 0.316022 0.860577 0.394184
H277  H     H_    0.141961 0.342069 0.145495 0.368361
H278  H     H_    0.665116 0.865788 0.855061 0.371209
H279  H     H_    0.177066 0.769685 0.400457 0.261023
H280  H     H_    0.670650 0.130453 0.142963 0.387893
H281  H     H_    0.125584 0.675431 0.855097 0.370242
H282  H     H_    0.853450 0.655837 0.148712 0.364390
H283  H     H_    0.083616 0.257575 0.578361 0.200620
H284  H     H_    0.106198 0.348449 0.564998 0.109915
H285  H     H_    0.115055 0.213873 0.509979 0.266008
H286  H     H_    0.144922 0.305000 0.498830 0.257625
H287  H     H_    0.859447 0.309404 0.487128 0.234467
H288  H     H_    0.237226 0.298842 0.552347 0.258453
H289  H     H_    0.249233 0.225676 0.517535 0.272893
H290  H     H_    0.207279 0.207590 0.564091 0.294913
H291  H     H_    0.329979 0.088383 0.426429 0.140111
H292  H     H_    0.293177 0.112221 0.474078 0.131490
H293  H     H_    0.205627 0.040553 0.407388 0.259810
H294  H     H_    0.170891 0.071214 0.453812 0.232409
H295  H     H_    0.208452 0.199710 0.437063 0.286427
H296  H     H_    0.143883 0.162040 0.402683 0.292290
H297  H     H_    0.238977 0.167322 0.389734 0.250511
H298  H     H_    0.787943 0.288965 0.424537 0.252368
H299  H     H_    0.746598 0.062962 0.582359 0.199228
H300  H     H_    0.654824 0.089721 0.573058 0.098880
H301  H     H_    0.782777 0.111095 0.515339 0.270029
H302  H     H_    0.691057 0.145937 0.510215 0.240910
H303  H     H_    0.708453 0.219399 0.572161 0.252598
H304  H     H_    0.772772 0.242948 0.534698 0.288385
H305  H     H_    0.801460 0.186595 0.574922 0.291872
H306  H     H_    0.421212 0.760672 0.914878 0.192522
H307  H     H_    0.402157 0.853961 0.925051 0.114787
H308  H     H_    0.367841 0.723403 0.978949 0.260718
H309  H     H_    0.762508 0.227929 0.463105 0.290921
H310  H     H_    0.347296 0.817541 0.989823 0.240042
H311  H     H_    0.267377 0.824630 0.930599 0.250786
H312  H     H_    0.238369 0.753409 0.963038 0.288846
H313  H     H_    0.288029 0.730289 0.919330 0.287241
H314  H     H_    0.417197 0.239348 0.081463 0.195276
H315  H     H_    0.392025 0.150969 0.064587 0.111521
H316  H     H_    0.391652 0.291424 0.014330 0.259420
H317  H     H_    0.359726 0.202908 0.999125 0.256593
H318  H     H_    0.263875 0.206246 0.050860 0.257775
H319  H     H_    0.256646 0.283337 0.018491 0.274051
H320  H     H_    0.819821 0.195579 0.423957 0.287831
H321  H     H_    0.295792 0.295025 0.066467 0.290295
H322  H     H_    0.169822 0.417146 0.927843 0.135783
H323  H     H_    0.208368 0.395632 0.975396 0.134140
H324  H     H_    0.292040 0.466949 0.907643 0.261310
H325  H     H_    0.329071 0.439784 0.954146 0.232304
H326  H     H_    0.295559 0.309368 0.939079 0.285860
H327  H     H_    0.357191 0.347320 0.903573 0.290288
H328  H     H_    0.261792 0.338076 0.891764 0.251909
H329  H     H_    0.835252 0.394786 0.065911 0.129333
H330  H     H_    0.791720 0.381680 0.018694 0.152702
H331  H     H_    0.916934 0.724201 0.586989 0.196475
H332  H     H_    0.715244 0.438842 0.092928 0.265782
H333  H     H_    0.673174 0.420797 0.046320 0.227356
H334  H     H_    0.707919 0.288919 0.051929 0.277684
H335  H     H_    0.652915 0.319156 0.092648 0.302804
H336  H     H_    0.749942 0.307254 0.098877 0.248102
H337  H     H_    0.618814 0.178180 0.960192 0.117191
H338  H     H_    0.587687 0.245640 0.995317 0.198425
H339  H     H_    0.586657 0.261117 0.905803 0.254045
H340  H     H_    0.551946 0.327783 0.939892 0.243811
H341  H     H_    0.676299 0.339053 0.969955 0.267566
H342  H     H_    0.888196 0.643865 0.561993 0.103850
H343  H     H_    0.677229 0.358772 0.918409 0.300172
H344  H     H_    0.711068 0.272143 0.935598 0.267561
H345  H     H_    0.587563 0.832214 0.072875 0.141320
H346  H     H_    0.612591 0.796919 0.025082 0.126859
H347  H     H_    0.540906 0.706483 0.090125 0.263710
H348  H     H_    0.574260 0.673625 0.043830 0.229991
H349  H     H_    0.701271 0.713055 0.062866 0.284600
H350  H     H_    0.663285 0.647584 0.096319 0.294591
H351  H     H_    0.666352 0.742506 0.109881 0.250863
H352  H     H_    0.754829 0.564083 0.917809 0.192695
O1    O     O_3   0.500000 0.000000 0.250000 -0.536287
O2    O     O_R   0.500000 0.939270 0.662450 -0.594771
O3    O     O_3   0.620432 0.273051 0.708611 -0.619285
O4    O     O_2   0.885473 0.683215 0.423466 -0.290350
O5    O     O_2   0.975775 0.679585 0.370646 -0.375033
O6    O     O_3   0.859618 0.599851 0.365583 -0.548390
O7    O     O_2   0.894372 0.313390 0.575585 -0.282252
O8    O     O_2   0.979066 0.322434 0.631014 -0.359660
O9    O     O_3   0.860331 0.400100 0.631228 -0.528976
O10   O     O_2   0.317429 0.884919 0.422483 -0.293171
O11   O     O_2   0.324411 0.969070 0.367091 -0.388092
O12   O     O_3   0.407439 0.854044 0.368257 -0.530088
O13   O     O_R   0.939270 0.500000 0.337550 -0.608116
O14   O     O_2   0.682751 0.887572 0.576163 -0.278642
O15   O     O_2   0.671756 0.967355 0.633584 -0.384337
O16   O     O_3   0.590552 0.852084 0.628482 -0.541581
O17   O     O_2   0.119429 0.322408 0.423173 -0.287291
O18   O     O_2   0.041619 0.332450 0.365056 -0.398046
O19   O     O_3   0.153400 0.418034 0.372610 -0.537448
O20   O     O_2   0.104498 0.685583 0.577167 -0.276196
O21   O     O_2   0.025797 0.671530 0.634557 -0.384962
O22   O     O_3   0.144275 0.594098 0.629185 -0.534148
O23   O     O_2   0.674679 0.120021 0.425863 -0.287862
O24   O     O_R   0.060730 0.500000 0.662450 -0.595121
O25   O     O_2   0.666572 0.044965 0.366526 -0.365087
O26   O     O_3   0.578944 0.155623 0.374773 -0.533795
O27   O     O_2   0.311625 0.103583 0.577007 -0.280112
O28   O     O_2   0.323234 0.019339 0.632208 -0.381367
O29   O     O_3   0.398676 0.138699 0.632134 -0.549321
O30   O     O_2   0.390362 0.187156 0.922291 -0.284500
O31   O     O_2   0.478474 0.177862 0.868591 -0.386832
O32   O     O_3   0.360230 0.100561 0.866355 -0.541512
O33   O     O_2   0.386343 0.816079 0.076880 -0.283852
O34   O     O_2   0.472100 0.824338 0.131864 -0.388210
O35   O     O_R   0.000000 0.439270 0.837550 -0.592836
O36   O     O_3   0.355419 0.905034 0.131790 -0.532510
O37   O     O_2   0.828884 0.376922 0.926267 -0.291372
O38   O     O_2   0.830694 0.453267 0.867548 -0.356059
O39   O     O_3   0.922392 0.345382 0.873602 -0.533097
O40   O     O_2   0.188784 0.401353 0.076317 -0.280687
O41   O     O_2   0.173803 0.481787 0.133243 -0.390990
O42   O     O_3   0.100690 0.361128 0.129796 -0.547060
O43   O     O_2   0.605030 0.814748 0.923409 -0.279619
O44   O     O_2   0.526242 0.829222 0.865851 -0.397931
O45   O     O_3   0.644699 0.905686 0.871319 -0.546989
O46   O     O_R   1.000000 0.560730 0.162450 -0.597291
O47   O     O_2   0.611181 0.179222 0.074926 -0.298942
O48   O     O_2   0.531385 0.173179 0.132314 -0.357311
O49   O     O_3   0.646342 0.089995 0.128877 -0.528221
O50   O     O_2   0.179327 0.621196 0.923360 -0.285214
O51   O     O_2   0.172382 0.538430 0.867007 -0.384366
O52   O     O_3   0.086523 0.651318 0.870194 -0.537607
O53   O     O_2   0.810345 0.604364 0.077995 -0.288177
O54   O     O_2   0.821575 0.516457 0.131575 -0.388808
O55   O     O_3   0.895952 0.636426 0.134114 -0.540163
O56   O     O_R   0.560730 0.000000 0.837550 -0.607426
O57   O     O_R   0.439270 0.000000 0.162450 -0.595975
O58   O     O_R   0.000000 0.560730 0.837550 -0.595934
O59   O     O_R   0.000000 0.439270 0.162450 -0.606376
O60   O     O_R   0.439270 0.000000 0.837550 -0.598971
O61   O     O_3   0.500000 0.000000 0.750000 -0.529874
O62   O     O_R   0.560730 0.000000 0.162450 -0.597498
O63   O     O_R   0.414490 0.146150 0.273020 -0.645121
O64   O     O_R   0.585510 0.853850 0.726980 -0.632994
O65   O     O_R   0.853850 0.414490 0.273020 -0.627363
O66   O     O_R   0.146150 0.585510 0.726980 -0.605802
O67   O     O_R   0.585510 0.853850 0.273020 -0.628547
O68   O     O_R   0.414490 0.146150 0.726980 -0.613104
O69   O     O_R   0.146150 0.585510 0.273020 -0.633653
O70   O     O_R   0.853850 0.414490 0.726980 -0.602127
O71   O     O_R   0.414490 0.853850 0.726980 -0.634283
O72   O     O_3   0.000000 0.500000 0.250000 -0.528280
O73   O     O_R   0.585510 0.146150 0.273020 -0.598753
O74   O     O_R   0.853850 0.585510 0.726980 -0.649721
O75   O     O_R   0.146150 0.414490 0.273020 -0.628592
O76   O     O_R   0.585510 0.146150 0.726980 -0.624823
O77   O     O_R   0.414490 0.853850 0.273020 -0.606236
O78   O     O_R   0.146150 0.414490 0.726980 -0.626937
O79   O     O_R   0.853850 0.585510 0.273020 -0.611946
O80   O     O_R   0.914490 0.646150 0.773020 -0.626069
O81   O     O_R   0.085510 0.353850 0.226980 -0.614326
O82   O     O_R   0.353850 0.914490 0.773020 -0.633602
O83   O     O_3   0.000000 0.500000 0.750000 -0.534921
O84   O     O_R   0.646150 0.085510 0.226980 -0.599374
O85   O     O_R   0.085510 0.353850 0.773020 -0.645160
O86   O     O_R   0.914490 0.646150 0.226980 -0.624462
O87   O     O_R   0.646150 0.085510 0.773020 -0.626212
O88   O     O_R   0.353850 0.914490 0.226980 -0.607785
O89   O     O_R   0.914490 0.353850 0.226980 -0.625148
O90   O     O_R   0.085510 0.646150 0.773020 -0.624007
O91   O     O_R   0.353850 0.085510 0.226980 -0.628780
O92   O     O_R   0.646150 0.914490 0.773020 -0.603715
O93   O     O_R   0.085510 0.646150 0.226980 -0.634932
O94   O     O_R   0.500000 0.939270 0.337550 -0.596394
O95   O     O_R   0.914490 0.353850 0.773020 -0.595880
O96   O     O_R   0.646150 0.914490 0.226980 -0.644187
O97   O     O_R   0.353850 0.085510 0.773020 -0.623255
O98   O     O_3   0.001661 0.300535 0.459777 -0.571970
O99   O     O_3   0.983483 0.697571 0.540973 -0.558849
O100  O     O_3   0.697684 0.997875 0.460119 -0.567853
O101  O     O_3   0.299662 0.984386 0.539443 -0.556815
O102  O     O_3   0.001170 0.699906 0.462589 -0.558500
O103  O     O_3   0.013582 0.300554 0.537993 -0.559826
O104  O     O_3   0.298475 0.001055 0.461144 -0.563276
O105  O     O_R   0.500000 0.060730 0.662450 -0.607864
O106  O     O_3   0.699161 0.004524 0.538346 -0.563451
O107  O     O_3   0.483861 0.801812 0.959188 -0.560911
O108  O     O_3   0.487951 0.197921 0.040965 -0.581430
O109  O     O_3   0.199966 0.506248 0.962115 -0.557038
O110  O     O_3   0.800386 0.489149 0.038087 -0.564568
O111  O     O_3   0.506245 0.199113 0.961280 -0.564110
O112  O     O_3   0.501064 0.799996 0.037309 -0.555828
O113  O     O_3   0.801611 0.499240 0.959336 -0.567998
O114  O     O_3   0.198189 0.522829 0.040469 -0.559444
O115  O     O_3   0.209125 0.895834 0.241162 -0.622812
O116  O     O_R   0.060730 0.500000 0.337550 -0.593057
O117  O     O_3   0.765548 0.130733 0.799508 -0.622503
O118  O     O_3   0.103354 0.209962 0.236387 -0.616043
O119  O     O_3   0.892921 0.787236 0.770647 -0.626479
O120  O     O_3   0.774755 0.120524 0.209128 -0.615621
O121  O     O_3   0.212983 0.891702 0.771923 -0.622115
O122  O     O_3   0.894165 0.790440 0.240677 -0.624580
O123  O     O_3   0.115121 0.215612 0.780730 -0.626014
O124  O     O_3   0.209657 0.106304 0.761261 -0.622459
O125  O     O_3   0.784905 0.884779 0.220035 -0.628269
O126  O     O_3   0.104488 0.790073 0.761740 -0.640142
O127  O     O_R   0.939270 0.500000 0.662450 -0.601479
O128  O     O_3   0.876258 0.228382 0.206091 -0.616717
O129  O     O_3   0.787744 0.896137 0.762813 -0.608755
O130  O     O_3   0.211192 0.105886 0.231718 -0.631840
O131  O     O_3   0.876139 0.228709 0.794247 -0.616562
O132  O     O_3   0.107882 0.787249 0.229383 -0.620449
O133  O     O_3   0.722902 0.380659 0.710784 -0.615988
O134  O     O_3   0.288002 0.608062 0.270076 -0.620391
O135  O     O_3   0.604476 0.708893 0.742748 -0.624673
O136  O     O_3   0.385086 0.284863 0.280187 -0.629078
O137  O     O_3   0.290663 0.604153 0.740987 -0.621268
O138  O     O_R   0.500000 0.060730 0.337550 -0.595585
O139  O     O_3   0.726573 0.379409 0.291540 -0.617927
O140  O     O_3   0.396626 0.289793 0.737255 -0.618371
O141  O     O_3   0.605823 0.711483 0.267976 -0.629952
O142  O     O_3   0.709862 0.603507 0.262619 -0.616197
O143  O     O_3   0.288632 0.393886 0.732164 -0.632659
O144  O     O_3   0.619717 0.275745 0.290189 -0.622254
O145  O     O_3   0.391651 0.712681 0.728873 -0.619846
O146  O     O_3   0.290753 0.394021 0.259228 -0.626496
O147  O     O_3   0.712994 0.612448 0.723600 -0.634456
O148  O     O_3   0.396498 0.709235 0.257473 -0.622588
S1    S     S_3+6 0.924481 0.634778 0.394783 -0.000252
S2    S     S_3+6 0.422690 0.866962 0.105268 0.001109
S3    S     S_3+6 0.876959 0.412751 0.896585 0.019370
S4    S     S_3+6 0.135059 0.432121 0.105119 -0.003855
S5    S     S_3+6 0.573721 0.868417 0.894860 -0.003653
S6    S     S_3+6 0.577192 0.129393 0.104363 0.015713
S7    S     S_3+6 0.128788 0.584382 0.894981 0.006156
S8    S     S_3+6 0.862281 0.568957 0.106157 0.001978
S9    S     S_3+6 0.928758 0.364414 0.604605 0.014200
S10   S     S_3+6 0.367809 0.921325 0.394168 0.002332
S11   S     S_3+6 0.630452 0.921296 0.604742 0.006399
S12   S     S_3+6 0.084705 0.374429 0.394921 0.005368
S13   S     S_3+6 0.073202 0.632001 0.605573 0.009133
S14   S     S_3+6 0.623531 0.086569 0.396609 0.016802
S15   S     S_3+6 0.363869 0.069847 0.605608 0.000066
S16   S     S_3+6 0.427067 0.135977 0.894122 0.008392
Zn1   Zn    Zn3+2 0.413190 0.000000 0.217350 1.024172
Zn2   Zn    Zn3+2 0.086810 0.500000 0.282650 1.007011
Zn3   Zn    Zn3+2 0.500000 0.913190 0.717350 1.009161
Zn4   Zn    Zn3+2 0.500000 0.086810 0.282650 1.024377
Zn5   Zn    Zn3+2 0.086810 0.500000 0.717350 1.027301
Zn6   Zn    Zn3+2 0.913190 0.500000 0.282650 1.001739
Zn7   Zn    Zn3+2 0.500000 0.086810 0.717350 1.003293
Zn8   Zn    Zn3+2 0.500000 0.913190 0.282650 1.022302
Zn9   Zn    Zn3+2 0.586810 0.000000 0.782650 1.010259
Zn10  Zn    Zn3+2 1.000000 0.413190 0.217350 1.006578
Zn11  Zn    Zn3+2 0.000000 0.586810 0.782650 1.011685
Zn12  Zn    Zn3+2 0.586810 0.000000 0.217350 1.023294
Zn13  Zn    Zn3+2 0.413190 0.000000 0.782650 1.006085
Zn14  Zn    Zn3+2 0.000000 0.586810 0.217350 1.006397
Zn15  Zn    Zn3+2 1.000000 0.413190 0.782650 1.024300
Zn16  Zn    Zn3+2 0.913190 0.500000 0.717350 1.020609

loop_
_geom_bond_atom_site_label_1
_geom_bond_atom_site_label_2
_ccdc_geom_bond_type
C221  O58   A    
O17   S12   D    
C211  O110  S    
C80   H329  S    
C108  H44   S    
C104  H34   S    
C66   H300  S    
C256  O129  S    
C153  O134  S    
C199  H259  S    
C114  C115  S    
C130  O126  S    
C54   H157  S    
C168  C278  A    
C44   C45   S    
C119  H67   S    
C218  O2    A    
C20   C227  S    
C190  C280  A    
C202  H263  S    
C189  H234  S    
C145  H130  S    
C35   C124  A    
C62   H289  S    
O36   S2    S    
C106  C107  S    
C175  H199  S    
C143  C144  S    
C5    C36   A    
C84   H339  S    
C196  H250  S    
C226  C278  A    
O89   Zn10  S    
C89   O113  S    
C69   H303  S    
C110  C111  S    
C142  H123  S    
C119  H70   S    
C131  H97   S    
H266  O9    S    
C206  O104  S    
C161  H166  S    
O96   Zn12  S    
C198  H254  S    
C246  O119  S    
C201  C206  A    
C158  H160  S    
C201  O101  S    
C237  S13   S    
C58   H246  S    
C173  O141  S    
C49   H35   S    
C106  H40   S    
C159  H161  S    
C250  C253  A    
C66   H299  S    
C34   C278  A    
C151  C152  S    
C30   C275  A    
C144  H128  S    
C10   C41   A    
O1    Zn8   S    
C2    S2    S    
C169  H186  S    
C63   O104  S    
C162  H169  S    
C104  C105  S    
C25   C267  A    
C52   H113  S    
C120  H71   S    
C192  H241  S    
C73   C74   S    
C184  H220  S    
O4    S1    D    
O40   S4    D    
O56   Zn9   S    
C51   C52   S    
O44   S5    D    
C140  O130  S    
C140  C141  S    
C132  H100  S    
C146  C221  S    
C56   H212  S    
C125  H82   S    
C181  C182  S    
C47   O99   S    
C264  C274  A    
C172  H193  S    
C155  H153  S    
C14   C213  A    
C185  H222  S    
C67   H301  S    
C120  O123  S    
C272  O144  S    
C118  H66   S    
H277  O42   S    
C36   C279  A    
C195  H249  S    
C37   C38   A    
C200  H260  S    
C224  O57   A    
O27   S15   D    
C184  H221  S    
C79   C219  S    
H271  O22   S    
C82   H334  S    
H269  O16   S    
C182  H216  S    
C116  H60   S    
C226  S12   S    
O7    S9    D    
C17   C260  A    
C12   C212  A    
C154  C155  S    
C23   C253  A    
C147  O132  S    
C148  H137  S    
C75   H319  S    
C252  O124  S    
C119  H69   S    
C225  O63   A    
O83   Zn15  S    
C158  C159  S    
C1    C79   A    
C189  O146  S    
C91   H5    S    
C43   O98   S    
O116  Zn2   S    
O14   S11   D    
C27   C242  S    
C91   C92   S    
O68   Zn7   S    
O43   S5    D    
C180  O143  S    
C273  O145  S    
C208  O107  S    
C30   C246  A    
C145  H132  S    
C219  O116  A    
C49   H24   S    
O49   S6    S    
C180  H211  S    
C114  H56   S    
C144  C145  S    
C150  O133  S    
C190  O100  S    
C19   C257  A    
C155  H154  S    
C23   C268  A    
C149  H139  S    
C33   C276  A    
C93   H9    S    
C47   H342  S    
O12   S10   S    
C163  O137  S    
C186  H228  S    
C219  O13   A    
O83   Zn5   S    
C122  H76   S    
O13   Zn6   S    
C156  C158  S    
C130  C131  S    
C86   O112  S    
C155  H155  S    
C161  C162  S    
C95   H16   S    
C147  H134  S    
C28   C273  A    
C12   C39   A    
C3    C259  A    
C107  H43   S    
C96   O115  S    
C245  O118  S    
C99   H25   S    
C243  C260  A    
C98   H22   S    
O61   Zn3   S    
O51   S7    D    
C75   H321  S    
C37   C280  A    
C236  O74   A    
C193  H243  S    
C167  H182  S    
C65   H295  S    
C240  O77   A    
C235  O73   A    
C125  H81   S    
C200  C202  S    
C193  C194  S    
O58   Zn11  S    
C122  H77   S    
O61   Zn7   S    
O83   Zn11  S    
C186  C187  S    
C101  C248  A    
O34   S2    D    
C233  O70   A    
C264  O136  S    
C32   C277  A    
C224  O62   A    
C277  O3    S    
C116  H61   S    
C208  C213  A    
O79   Zn6   S    
C70   H307  S    
C61   H285  S    
C147  C148  S    
O71   Zn3   S    
O20   S13   D    
C62   H290  S    
C128  C129  S    
C248  S14   S    
C97   C98   S    
C47   H331  S    
C235  O84   A    
C167  C169  S    
C166  H180  S    
C53   C54   S    
C187  H230  S    
C124  C270  A    
C83   O111  S    
C93   H10   S    
C86   H345  S    
C50   H68   S    
C237  C279  A    
C72   H311  S    
C49   H46   S    
C103  O118  S    
C71   H308  S    
O94   Zn8   S    
C170  C171  S    
C53   O101  S    
C183  O144  S    
C102  H30   S    
O78   Zn5   S    
C184  C185  S    
C110  H50   S    
C116  H62   S    
C17   C262  A    
C189  C191  S    
O55   S8    S    
C29   C235  S    
C109  H48   S    
O67   Zn8   S    
C129  H91   S    
C19   C264  A    
C28   C249  A    
C126  H85   S    
C10   C210  A    
C188  H231  S    
C47   C48   S    
C78   H328  S    
C68   C157  A    
O60   Zn13  S    
C52   H101  S    
C124  C223  S    
O9    S9    S    
C89   C91   S    
C90   C220  S    
C44   H223  S    
C156  O135  S    
C96   H17   S    
C222  O46   A    
C243  O115  S    
C66   C67   S    
C130  H94   S    
C192  H239  S    
C178  H207  S    
C32   C244  A    
C60   H283  S    
C152  H145  S    
C108  H45   S    
C111  H54   S    
C97   H20   S    
C92   H7    S    
C2    C14   A    
O25   S14   D    
C17   C232  S    
C57   S7    S    
O72   Zn14  S    
C173  H195  S    
C186  O145  S    
C171  H189  S    
C95   H14   S    
C228  O89   A    
C45   H320  S    
C198  H256  S    
C70   O107  S    
C7    C207  A    
O72   Zn2   S    
C39   C40   A    
C24   C157  A    
C4    C203  A    
C205  O103  S    
C217  O138  A    
C83   H337  S    
O5    S1    D    
C111  H52   S    
C181  H214  S    
O2    Zn3   S    
C265  O137  S    
C83   C84   S    
C174  H198  S    
C204  S10   S    
C239  O76   A    
C82   H335  S    
C195  H247  S    
C66   O106  S    
C169  H184  S    
O87   Zn9   S    
C88   H351  S    
C175  H202  S    
C260  O132  S    
C87   H348  S    
C154  H151  S    
C127  O125  S    
C21   C266  A    
C176  O142  S    
C27   C269  A    
C220  O127  A    
C179  C203  A    
C263  C275  A    
C106  O119  S    
C177  H205  S    
C33   C243  A    
C214  O113  S    
C62   H288  S    
C151  H144  S    
C113  C218  S    
C221  O35   A    
C11   C68   A    
C262  O134  S    
C127  H86   S    
C63   H292  S    
C148  H136  S    
C109  O120  S    
C265  C273  A    
C144  H129  S    
H276  O39   S    
C105  H39   S    
C54   C55   S    
O23   S14   D    
O72   Zn10  S    
C218  O105  A    
C80   H330  S    
C185  H226  S    
C94   H11   S    
C31   C238  S    
C143  H126  S    
C121  H74   S    
C242  O86   A    
O62   Zn12  S    
C241  O85   A    
C188  H233  S    
C117  H64   S    
C45   H309  S    
C175  H200  S    
C183  H218  S    
O70   Zn16  S    
C2    C135  A    
C103  H33   S    
C202  H264  S    
C133  H103  S    
C86   H346  S    
C88   H349  S    
C180  H210  S    
C71   C72   S    
C33   C240  S    
C129  H93   S    
C117  C118  S    
C126  H83   S    
C31   C274  A    
C44   H287  S    
C55   H201  S    
O88   Zn1   S    
C166  C167  S    
C246  C256  A    
C78   H326  S    
C153  H150  S    
C199  O3    S    
C84   H340  S    
C210  O109  S    
C56   C58   S    
C64   H293  S    
C34   C36   A    
C242  O79   A    
C61   C62   S    
C248  C280  A    
C200  H261  S    
C229  O66   A    
C191  H238  S    
C190  C207  A    
C9    C46   A    
C211  C214  A    
C261  C277  A    
C35   S5    S    
C141  H120  S    
C28   C234  S    
C152  H147  S    
C168  C205  A    
C225  O91   A    
O45   S5    S    
O66   Zn5   S    
C105  H38   S    
C231  O68   A    
C167  H183  S    
C64   H294  S    
C165  H178  S    
C77   H324  S    
C136  H108  S    
O28   S15   D    
C16   C42   A    
C229  O90   A    
C41   C42   A    
C73   H314  S    
O33   S2    D    
O91   Zn1   S    
O86   Zn14  S    
C130  H95   S    
C85   H344  S    
C169  H185  S    
C162  H170  S    
C228  O65   A    
C26   C241  S    
C134  H104  S    
C251  C252  A    
C120  H72   S    
C81   H333  S    
C77   C78   S    
C120  C121  S    
C240  O88   A    
C53   H146  S    
C24   S4    S    
C134  H105  S    
O15   S11   D    
C232  O69   A    
C164  C165  S    
C12   C270  A    
C220  O24   A    
C123  C125  S    
C1    S1    S    
C160  H164  S    
C261  O133  S    
O37   S3    D    
O35   Zn15  S    
C209  C212  A    
C172  H194  S    
C11   C42   A    
C16   C216  A    
C176  H203  S    
C112  S9    S    
C255  O128  S    
C189  H236  S    
C46   C135  A    
C100  H27   S    
C267  C271  A    
O54   S8    D    
C230  O67   A    
O105  Zn7   S    
C178  H209  S    
H270  O19   S    
O46   Zn14  S    
C70   C71   S    
C233  O95   A    
C209  O108  S    
C254  O126  S    
C245  C257  A    
C79   C226  A    
C253  O125  S    
O26   S14   S    
O85   Zn15  S    
C58   H235  S    
C267  O140  S    
C251  O123  S    
C194  C195  S    
C249  C254  A    
C215  S11   S    
C57   C146  A    
C137  H110  S    
O24   Zn5   S    
C136  H106  S    
O22   S13   S    
C156  H156  S    
H275  O36   S    
C163  H172  S    
O47   S6    D    
C109  H49   S    
C123  O124  S    
C232  O93   A    
C20   C256  A    
C268  O141  S    
O39   S3    S    
C271  O143  S    
C170  H187  S    
C145  H131  S    
O19   S12   S    
O16   S11   S    
C84   C85   S    
C15   C41   A    
C18   C261  A    
C92   H6    S    
C149  H140  S    
C202  H262  S    
C86   C87   S    
H273  O29   S    
C149  H138  S    
C115  H58   S    
C58   C59   S    
C172  H192  S    
C9    C40   A    
O38   S3    D    
C191  C192  S    
C50   H57   S    
C171  H191  S    
C95   H15   S    
C69   H304  S    
C241  O78   A    
C6    C204  A    
C128  H89   S    
H281  O52   S    
O53   S8    D    
C142  H122  S    
C207  O106  S    
H272  O26   S    
C68   S8    S    
O77   Zn8   S    
C161  H167  S    
O95   Zn15  S    
C55   H190  S    
C50   C51   S    
C244  C258  A    
C92   H8    S    
C96   H18   S    
C114  H55   S    
C98   H23   S    
C56   H224  S    
O21   S13   D    
C121  C122  S    
C213  O112  S    
C193  H242  S    
C159  H162  S    
O74   Zn16  S    
C48   C49   S    
C32   C239  S    
C160  H165  S    
C106  H41   S    
C65   H297  S    
C227  O92   A    
C133  C134  S    
C3    C201  A    
C196  O148  S    
C88   H350  S    
C127  C128  S    
C60   O103  S    
C153  H149  S    
O52   S7    S    
C180  C181  S    
C137  C138  S    
C21   C228  S    
C25   C231  S    
C138  H114  S    
C90   C237  A    
O18   S12   D    
C266  O139  S    
C244  O117  S    
O65   Zn6   S    
C132  H99   S    
C74   H316  S    
C137  H109  S    
C236  O80   A    
C65   H296  S    
C110  H51   S    
C127  H87   S    
C166  H181  S    
C141  H121  S    
C187  H229  S    
C158  H159  S    
C164  H175  S    
O61   Zn13  S    
C222  O59   A    
C67   H302  S    
C197  H253  S    
C64   C65   S    
C1    C4    A    
C118  H65   S    
C166  O139  S    
O1    Zn1   S    
O97   Zn13  S    
C187  C188  S    
C52   H124  S    
C266  C272  A    
C109  C110  S    
C76   C77   S    
C22   C265  A    
O57   Zn1   S    
C227  O64   A    
C22   C229  S    
C183  H219  S    
C231  O97   A    
O73   Zn4   S    
C210  C216  A    
C102  H31   S    
O83   Zn16  S    
C230  O96   A    
H265  O6    S    
C182  H215  S    
O75   Zn2   S    
C59   H279  S    
C123  H80   S    
C74   H317  S    
C19   C225  S    
C94   C95   S    
C18   C258  A    
C51   H90   S    
C138  C139  S    
C76   H323  S    
H280  O49   S    
C239  O87   A    
C188  H232  S    
C114  O121  S    
C194  H244  S    
C268  C269  A    
C203  O102  S    
C87   C88   S    
O72   Zn6   S    
C177  C178  S    
C165  H176  S    
C45   H298  S    
C197  H252  S    
C156  H158  S    
C60   C61   S    
O59   Zn10  S    
C170  O140  S    
C113  C259  A    
C168  O98   S    
O31   S16   D    
C199  H258  S    
C8    C35   A    
C71   H310  S    
C7    C215  A    
C48   H13   S    
C115  C116  S    
C247  C255  A    
C171  C172  S    
C192  H240  S    
C178  H208  S    
C93   C94   S    
H278  O45   S    
C60   H284  S    
C216  O114  S    
C111  H53   S    
O6    S1    S    
C163  C164  S    
C97   H19   S    
C90   C112  A    
C43   C44   S    
C55   H179  S    
C81   C82   S    
C18   C233  S    
C194  H245  S    
C173  C174  S    
C135  C224  S    
O42   S4    S    
C186  H227  S    
C46   S6    S    
C196  H251  S    
C143  O131  S    
C259  S15   S    
C122  H75   S    
O138  Zn4   S    
O61   Zn9   S    
C27   C250  A    
C29   C247  A    
C85   H341  S    
C13   S3    S    
C20   C263  A    
C25   C252  A    
C21   C255  A    
C131  H96   S    
C181  H213  S    
C103  H32   S    
C182  H217  S    
C223  O60   A    
C196  C197  S    
C138  H111  S    
C99   H26   S    
C275  O147  S    
C77   H325  S    
C238  O75   A    
C8    C208  A    
C98   H21   S    
C118  C119  S    
O11   S10   D    
O92   Zn9   S    
C103  C104  S    
C263  O135  S    
C174  C175  S    
C3    C38   A    
C9    C209  A    
O81   Zn10  S    
C70   H306  S    
C140  H119  S    
C69   H305  S    
C8    C39   A    
H274  O32   S    
C87   H347  S    
C72   H313  S    
C154  H152  S    
C11   C211  A    
C117  O122  S    
C136  H107  S    
C133  O128  S    
C179  C279  A    
C250  O122  S    
C43   H1    S    
C258  O131  S    
C249  O121  S    
C139  H117  S    
C61   H286  S    
C197  C198  S    
C13   C146  A    
C15   C214  A    
C151  H143  S    
O50   S7    D    
C63   H291  S    
O41   S4    D    
C43   H112  S    
C4    C34   A    
C247  O120  S    
C89   H3    S    
C53   H135  S    
C74   C75   S    
C185  H225  S    
C193  O147  S    
C94   H12   S    
C10   C57   A    
C121  H73   S    
C148  C149  S    
C163  H173  S    
C117  H63   S    
C212  O111  S    
C48   H2    S    
C217  O94   A    
C6    C206  A    
C134  C136  S    
H267  O12   S    
C102  H29   S    
C5    C205  A    
C63   C64   S    
C50   O100  S    
H282  O55   S    
C67   C69   S    
O1    Zn4   S    
C99   O117  S    
C133  H102  S    
O10   S10   D    
C183  C184  S    
C129  H92   S    
C128  H88   S    
C126  H84   S    
C75   H318  S    
C99   C100  S    
C89   H352  S    
C115  H59   S    
C78   H327  S    
C107  C108  S    
C96   C97   S    
C276  O148  S    
C108  H47   S    
C100  C102  S    
O29   S15   S    
C6    C37   A    
C91   H4    S    
O84   Zn12  S    
C123  H78   S    
C54   H168  S    
C234  O71   A    
C191  H237  S    
C142  H125  S    
C176  C177  S    
C140  H118  S    
O64   Zn3   S    
C13   C15   A    
C157  C222  S    
C152  H148  S    
O80   Zn11  S    
C113  C215  A    
C51   H79   S    
C150  H142  S    
C105  H37   S    
O8    S9    D    
C76   O109  S    
O76   Zn7   S    
C159  H163  S    
O1    Zn12  S    
C173  H196  S    
C165  H177  S    
O63   Zn4   S    
O82   Zn13  S    
C82   H336  S    
C179  O99   S    
C150  C151  S    
C29   C272  A    
C107  H42   S    
C198  H255  S    
O93   Zn14  S    
C80   O110  S    
C80   C81   S    
C85   H343  S    
C101  C204  A    
C162  H171  S    
C137  O129  S    
C223  O56   A    
C81   H332  S    
O48   S6    D    
C93   O114  S    
C234  O82   A    
C262  C276  A    
C269  O142  S    
C83   H338  S    
O127  Zn16  S    
C147  H133  S    
C270  S16   S    
C160  C161  S    
C160  O136  S    
C73   O108  S    
C59   H257  S    
C132  H98   S    
C141  C142  S    
C56   O102  S    
C150  H141  S    
C30   C236  S    
C238  O81   A    
C125  C126  S    
C174  H197  S    
C104  H36   S    
C195  H248  S    
C72   H312  S    
O30   S16   D    
C7    C38   A    
C164  H174  S    
C5    C112  A    
C199  C200  S    
O90   Zn11  S    
C131  C132  S    
C176  H204  S    
C22   C254  A    
C23   C230  S    
C26   C251  A    
C143  H127  S    
C14   C40   A    
C26   C271  A    
C100  H28   S    
C101  C217  S    
C16   C24   A    
C139  H116  S    
C177  H206  S    
C274  O146  S    
C170  H188  S    
C139  H115  S    
C257  O130  S    
C31   C245  A    
C59   H268  S    
C153  C154  S    
O69   Zn2   S    
C73   H315  S    
O32   S16   S    
C76   H322  S    
