data_mof_unit_8885.cif
_audit_creation_date              2012-12-10T21:42:29-0500
_audit_creation_method            fapswitch 2.2
_symmetry_space_group_name_H-M    P1
_symmetry_Int_Tables_number       1
_space_group_crystal_system       triclinic
_cell_length_a                    10.790835
_cell_length_b                    16.113996
_cell_length_c                    16.528907
_cell_angle_alpha                 87.047186
_cell_angle_beta                  90.921271
_cell_angle_gamma                 92.995687
_cell_volume                      2866.10723349

loop_
_atom_site_label
_atom_site_type_symbol
_atom_type_description
_atom_site_fract_x
_atom_site_fract_y
_atom_site_fract_z
_atom_type_partial_charge
C1    C     C_R   0.498861 0.488350 0.653498 1.034015
C2    C     C_R   0.508934 0.511515 0.346438 1.010261
C3    C     C_R   0.127819 0.498096 0.500450 -0.259785
C4    C     C_R   0.873100 0.500599 0.502315 -0.260226
C5    C     C_R   0.059312 0.429408 0.536449 -0.061840
C6    C     C_R   0.943446 0.572417 0.474414 -0.076732
C7    C     C_R   0.497518 0.479078 0.741134 -0.359972
C8    C     C_R   0.547887 0.519023 0.261648 -0.359146
C9    C     C_R   0.405903 0.516752 0.783961 0.255781
C10   C     C_R   0.635871 0.464506 0.234753 0.235411
C11   C     C_R   0.407034 0.509598 0.868435 0.357979
C12   C     C_R   0.665714 0.466095 0.152738 0.329570
C13   C     C_R   0.502248 0.468384 0.909625 0.041649
C14   C     C_R   0.610623 0.522764 0.098367 0.025400
C15   C     C_R   0.589729 0.426670 0.866870 0.332722
C16   C     C_R   0.537360 0.584310 0.126345 0.325637
C17   C     C_R   0.587582 0.432175 0.782302 0.248484
C18   C     C_R   0.503962 0.581928 0.207708 0.219750
C19   C     C_R   0.509706 0.765657 0.440229 -0.146417
C20   C     C_R   0.532306 0.236007 0.552783 -0.168017
C21   C     C_R   0.504252 0.852737 0.442210 0.414343
C22   C     C_R   0.536987 0.148947 0.548816 0.328229
C23   C     C_R   0.740315 0.500218 0.501325 0.994925
C24   C     C_R   0.260093 0.499471 0.500891 0.959997
C25   C     C_R   0.509901 0.890243 0.518304 0.109130
C26   C     C_R   0.493895 0.110837 0.477256 0.096526
C27   C     C_R   0.518508 0.838406 0.588936 0.374227
C28   C     C_R   0.448394 0.161801 0.413024 0.312230
C29   C     C_R   0.518470 0.751573 0.583106 -0.135897
C30   C     C_R   0.441914 0.247678 0.421712 -0.046669
C31   C     C_R   0.817815 0.768178 0.371280 0.516444
C32   C     C_R   0.188399 0.330294 0.730429 0.475586
C33   C     C_R   0.854700 0.685485 0.384908 -0.452242
C34   C     C_R   0.131312 0.385317 0.674207 -0.382906
C35   C     C_R   0.892894 0.656277 0.461970 0.098479
C36   C     C_R   0.118128 0.367122 0.592412 0.045707
C37   C     C_R   0.890688 0.708114 0.527549 0.575186
C38   C     C_R   0.160798 0.292179 0.565343 0.558094
C39   C     C_R   0.856797 0.790748 0.514179 -0.523388
C40   C     C_R   0.223751 0.239336 0.621181 -0.476950
C41   C     C_R   0.823329 0.822157 0.435663 0.481827
C42   C     C_R   0.235947 0.257667 0.703065 0.481449
C43   C     C_R   0.069598 0.567526 0.466069 0.486362
C44   C     C_R   0.930767 0.428100 0.531305 0.488981
H1    H     H_    0.571263 0.266649 0.604730 0.223998
H2    H     H_    0.508028 0.737002 0.382657 0.206142
H3    H     H_    0.518517 0.711952 0.637757 0.193720
H4    H     H_    0.404662 0.286308 0.372700 0.192585
H5    H     H_    0.856853 0.643922 0.335717 0.174407
H6    H     H_    0.098574 0.443412 0.693359 0.228841
H7    H     H_    0.859284 0.830086 0.565150 0.172145
H8    H     H_    0.265671 0.184431 0.601567 0.167994
N1    N     N_2   0.512132 0.474479 0.993990 -0.042334
N2    N     N_2   0.611859 0.510179 0.014999 -0.034376
N3    N     N_R   0.515300 0.716920 0.509720 -0.141526
N4    N     N_R   0.484700 0.283080 0.490280 -0.137353
N5    N     N_2   0.506789 0.978087 0.528570 -0.072551
N6    N     N_2   0.497499 0.023378 0.465393 -0.057923
O1    O     O_R   0.494530 0.422540 0.612660 -0.596978
O2    O     O_R   0.505470 0.577460 0.387340 -0.610403
O3    O     O_R   0.504350 0.561840 0.618900 -0.618827
O4    O     O_R   0.495650 0.438160 0.381100 -0.591828
O5    O     O_R   0.678330 0.430350 0.496870 -0.554135
O6    O     O_R   0.321670 0.569650 0.503130 -0.532303
O7    O     O_R   0.688150 0.569660 0.503110 -0.660405
O8    O     O_R   0.311850 0.430340 0.496890 -0.612825
Zn1   Zn    Zn3+2 0.493440 0.406980 0.495830 1.019429
Zn2   Zn    Zn3+2 0.506560 0.593020 0.504170 0.991501
O9    O     O_3   0.787635 0.903285 0.418216 -0.537258
C45   C     C_3   0.839082 0.961322 0.472069 -0.240064
H9    H     H_    0.828049 0.024829 0.444587 0.195357
H10   H     H_    0.787670 0.957076 0.529944 0.167829
H11   H     H_    0.940233 0.954126 0.482535 0.148618
O10   O     O_3   0.300931 0.206725 0.756339 -0.582936
C46   C     C_3   0.223214 0.136730 0.779294 -0.259015
H12   H     H_    0.199006 0.098321 0.726692 0.142547
H13   H     H_    0.137461 0.155356 0.808682 0.182789
H14   H     H_    0.273912 0.097241 0.824225 0.209045
Cl1   Cl    Cl    0.703164 0.384673 0.728655 -0.534734
Cl2   Cl    Cl    0.404282 0.656808 0.239295 -0.635579
O11   O     O_3   0.597270 0.103432 0.609390 -0.602479
C47   C     C_3   0.527831 0.101604 0.681059 -0.139762
H15   H     H_    0.429534 0.079806 0.670419 0.163719
H16   H     H_    0.532725 0.163319 0.708308 0.200779
H17   H     H_    0.568564 0.056750 0.725778 0.194116
O12   O     O_3   0.502242 0.900294 0.370188 -0.548694
C48   C     C_3   0.381944 0.893072 0.335817 -0.164268
H18   H     H_    0.310637 0.911795 0.378363 0.151863
H19   H     H_    0.359269 0.828947 0.316334 0.180716
H20   H     H_    0.378400 0.935789 0.281111 0.208621
O13   O     O_3   0.514537 0.873247 0.663648 -0.569594
C49   C     C_3   0.627050 0.861017 0.706045 -0.243272
H21   H     H_    0.709005 0.881593 0.668605 0.134682
H22   H     H_    0.633003 0.795091 0.728290 0.154868
H23   H     H_    0.629756 0.899340 0.759952 0.204054
O14   O     O_3   0.403095 0.126754 0.343268 -0.603555
C50   C     C_3   0.496602 0.135669 0.284428 -0.164966
H24   H     H_    0.581427 0.103853 0.305350 0.187656
H25   H     H_    0.519943 0.202401 0.267673 0.179079
H26   H     H_    0.461666 0.105794 0.228942 0.196695
O15   O     O_3   0.785847 0.802173 0.294973 -0.551987
C51   C     C_3   0.725803 0.743310 0.245417 -0.182420
H27   H     H_    0.659094 0.700834 0.279951 0.164612
H28   H     H_    0.795116 0.707537 0.214871 0.156289
H29   H     H_    0.672139 0.776981 0.197521 0.238113
O16   O     O_3   0.208416 0.348180 0.811067 -0.593740
C52   C     C_3   0.099346 0.374368 0.845909 -0.119308
H30   H     H_    0.015057 0.336465 0.827721 0.177115
H31   H     H_    0.087803 0.441514 0.830968 0.209291
H32   H     H_    0.108780 0.366570 0.912753 0.221572
O17   O     O_3   0.933916 0.679067 0.602678 -0.569235
C53   C     C_3   0.839634 0.680636 0.660628 -0.239074
H33   H     H_    0.747965 0.656228 0.637589 0.155234
H34   H     H_    0.832882 0.744394 0.681914 0.145262
H35   H     H_    0.864794 0.639932 0.713890 0.220178
O18   O     O_3   0.151058 0.277660 0.483125 -0.597423
C54   C     C_3   0.122732 0.192794 0.469679 -0.322695
H36   H     H_    0.052733 0.163867 0.512694 0.133946
H37   H     H_    0.207939 0.157177 0.472550 0.186175
H38   H     H_    0.082906 0.188155 0.407702 0.218101
O19   O     O_3   0.136975 0.635000 0.430862 -0.591491
C55   C     C_3   0.149368 0.621525 0.347911 -0.174931
H39   H     H_    0.059909 0.602297 0.318180 0.142018
H40   H     H_    0.218102 0.573815 0.339399 0.185270
H41   H     H_    0.182571 0.680984 0.316973 0.232544
O20   O     O_3   0.861793 0.361033 0.566427 -0.561005
C56   C     C_3   0.854296 0.294539 0.513488 -0.163253
H42   H     H_    0.918574 0.301452 0.461192 0.176846
H43   H     H_    0.758959 0.287279 0.488272 0.200023
H44   H     H_    0.873251 0.236170 0.548916 0.163679
Cl3   Cl    Cl    0.713106 0.395244 0.302788 -0.586011
Cl4   Cl    Cl    0.289589 0.573097 0.732305 -0.532915
Cl5   Cl    Cl    0.768294 0.394965 0.117001 -0.418449
Cl6   Cl    Cl    0.291792 0.555144 0.923601 -0.427582
Cl7   Cl    Cl    0.701002 0.366957 0.919043 -0.442390
Cl8   Cl    Cl    0.483869 0.662397 0.057458 -0.440410

loop_
_geom_bond_atom_site_label_1
_geom_bond_atom_site_label_2
_ccdc_geom_bond_type
C39   H7    S    
C48   H18   S    
O15   C51   S    
C27   C29   A    
O17   C53   S    
C20   N4    A    
C53   H34   S    
C50   H24   S    
C19   H2    S    
C39   C41   A    
C18   Cl2   S    
N1    N2    D    
C6    C35   S    
C44   O20   S    
O20   C56   S    
O4    Zn1   S    
C29   H3    S    
O6    Zn2   S    
C30   H4    S    
C35   C37   A    
C1    O1    A    
O11   C47   S    
C2    O2    A    
C15   Cl7   S    
O16   C52   S    
C33   H5    S    
C5    C36   S    
C17   Cl1   S    
C38   O18   S    
O18   C54   S    
C51   H29   S    
C15   C17   A    
C46   H13   S    
C10   Cl3   S    
O1    Zn1   S    
C7    C17   A    
C52   H30   S    
C31   C33   A    
C27   O13   S    
C45   H9    S    
C43   O19   S    
C20   H1    S    
C24   O8    A    
C23   O5    A    
O8    Zn1   S    
C24   O6    A    
C32   O16   S    
C52   H31   S    
C3    C24   S    
C51   H27   S    
C25   N5    S    
C53   H33   S    
C50   H25   S    
N3    Zn2   S    
C13   N1    S    
O5    Zn1   S    
C34   H6    S    
C42   O10   S    
O10   C46   S    
C22   O11   S    
C4    C6    A    
C11   Cl6   S    
O13   C49   S    
C4    C23   S    
O12   C48   S    
C29   N3    A    
C40   H8    S    
C30   N4    A    
C49   H23   S    
C8    C18   A    
C32   C34   A    
C46   H12   S    
C56   H43   S    
C9    C11   A    
O7    Zn2   S    
C3    C43   A    
O14   C50   S    
C45   H11   S    
C49   H22   S    
C51   H28   S    
C26   N6    S    
O19   C55   S    
C10   C12   A    
C8    C10   A    
C14   N2    S    
C5    C44   A    
C12   C14   A    
C47   H16   S    
C6    C43   A    
C13   C15   A    
C52   H32   S    
C14   C16   A    
C54   H38   S    
C55   H40   S    
C56   H42   S    
N4    Zn1   S    
C31   O15   S    
C50   H26   S    
C41   O9    S    
C9    Cl4   S    
C19   N3    A    
C7    C9    A    
C21   C25   A    
C21   O12   S    
C31   C41   A    
C19   C21   A    
C1    C7    S    
C2    C8    S    
C20   C22   A    
C40   C42   A    
C3    C5    A    
C1    O3    A    
C25   C27   A    
C47   H17   S    
C4    C44   A    
C26   C28   A    
C28   O14   S    
C23   O7    A    
C55   H41   S    
C54   H37   S    
C56   H44   S    
C37   C39   A    
C54   H36   S    
C36   C38   A    
C38   C40   A    
C11   C13   A    
O3    Zn2   S    
N5    N6    D    
C28   C30   A    
C49   H21   S    
C33   C35   A    
C34   C36   A    
O9    C45   S    
C46   H14   S    
C37   O17   S    
O2    Zn2   S    
C16   C18   A    
C47   H15   S    
C22   C26   A    
C48   H20   S    
C48   H19   S    
C32   C42   A    
C45   H10   S    
C55   H39   S    
C53   H35   S    
C12   Cl5   S    
C2    O4    A    
C16   Cl8   S    
