data_mof_unit_45297.cif
_audit_creation_date              2012-12-10T18:10:19-0500
_audit_creation_method            fapswitch 2.2
_symmetry_space_group_name_H-M    P1
_symmetry_Int_Tables_number       1
_space_group_crystal_system       triclinic
_cell_length_a                    10.739559
_cell_length_b                    9.443425
_cell_length_c                    15.891814
_cell_angle_alpha                 90.288535
_cell_angle_beta                  90.505542
_cell_angle_gamma                 90.274857
_cell_volume                      1611.61742335

loop_
_atom_site_label
_atom_site_type_symbol
_atom_type_description
_atom_site_fract_x
_atom_site_fract_y
_atom_site_fract_z
_atom_type_partial_charge
C1    C     C_R   0.259914 0.499499 0.499733 0.777661
C2    C     C_3   0.646958 0.446236 0.950866 0.832351
C3    C     C_3   0.635022 0.419955 0.050196 0.783487
C4    C     C_1   0.508356 0.499405 0.824629 0.010186
C5    C     C_1   0.507059 0.499167 0.175562 -0.031732
C6    C     C_1   0.503211 0.499370 0.250962 -0.172559
C7    C     C_3   0.073331 0.581150 0.575501 -0.389968
C8    C     C_3   0.070954 0.344950 0.501663 -0.403053
C9    C     C_3   0.930250 0.583517 0.573926 -0.470339
C10   C     C_3   0.928565 0.345845 0.502456 -0.454991
C11   C     C_3   0.073783 0.569998 0.416703 -0.476979
C12   C     C_3   0.122174 0.498595 0.498337 0.092864
C13   C     C_3   0.878635 0.500154 0.496511 0.080042
C14   C     C_R   0.500179 0.499750 0.340382 0.855854
C15   C     C_3   0.926021 0.569405 0.412718 0.943451
C16   C     C_3   0.605191 0.085419 0.554060 0.498678
C17   C     C_3   0.605584 0.916501 0.553428 0.479098
C18   C     C_3   0.382417 0.083206 0.535511 -0.208212
C19   C     C_3   0.382673 0.916292 0.535933 -0.210420
C20   C     C_3   0.514415 0.082897 0.415777 -0.338230
C21   C     C_3   0.513729 0.915953 0.415711 -0.322807
C22   C     C_R   0.740117 0.500067 0.499285 0.813450
C23   C     C_R   0.499787 0.500197 0.659719 0.801778
C24   C     C_3   0.503838 0.654937 0.047073 -0.200525
C25   C     C_3   0.397079 0.411977 0.047036 -0.160085
C26   C     C_3   0.408953 0.401865 0.949455 -0.418801
C27   C     C_3   0.489911 0.650549 0.950059 -0.516028
C28   C     C_1   0.503323 0.500141 0.749200 -0.177613
C29   C     C_3   0.511701 0.499108 0.083191 -0.053742
C30   C     C_3   0.515469 0.499219 0.916936 0.063100
Cu1   Cu    Cu3+1 0.499860 0.642410 0.500040 0.949653
Cu2   Cu    Cu3+1 0.499860 0.357590 0.500040 0.929722
H1    H     H_    0.394584 0.682816 0.929892 0.192443
H2    H     H_    0.319984 0.430396 0.917482 0.219109
H3    H     H_    0.898979 0.695266 0.571788 0.199721
H4    H     H_    0.891645 0.279095 0.449979 0.194293
H5    H     H_    0.107681 0.681628 0.416990 0.170973
H6    H     H_    0.121007 0.521820 0.362159 0.117596
H7    H     H_    0.694320 0.120798 0.524910 -0.005548
H8    H     H_    0.693907 0.881791 0.523112 0.038630
H9    H     H_    0.365654 0.124103 0.600124 0.188470
H10   H     H_    0.366880 0.877178 0.600855 0.187855
H11   H     H_    0.437484 0.120495 0.374346 0.193581
H12   H     H_    0.435922 0.877763 0.374708 0.203611
H13   H     H_    0.602498 0.121929 0.387494 0.157789
H14   H     H_    0.601109 0.876651 0.386807 0.175012
H15   H     H_    0.302146 0.118861 0.496537 0.140668
H16   H     H_    0.301911 0.878550 0.497616 0.144148
H17   H     H_    0.399729 0.302398 0.072262 0.194097
H18   H     H_    0.590450 0.713328 0.060050 0.175903
H19   H     H_    0.428277 0.290213 0.931202 0.212165
H20   H     H_    0.554966 0.728429 0.921584 0.207882
H21   H     H_    0.109455 0.691870 0.575516 0.172031
H22   H     H_    0.103933 0.282637 0.446693 0.165515
H23   H     H_    0.106653 0.530559 0.634632 0.162536
H24   H     H_    0.105903 0.290985 0.559332 0.174821
H25   H     H_    0.894281 0.536549 0.633131 0.143207
H26   H     H_    0.897024 0.296335 0.561820 0.168498
N1    N     N_3   0.500250 0.143650 0.501830 -0.166171
N2    N     N_3   0.500250 0.856350 0.501830 -0.171391
O1    O     O_R   0.317570 0.620260 0.500050 -0.603881
O2    O     O_R   0.317570 0.379740 0.500050 -0.602946
O3    O     O_R   0.499890 0.620310 0.379470 -0.576142
O4    O     O_R   0.499890 0.379690 0.379470 -0.592988
O5    O     O_R   0.682190 0.620260 0.500020 -0.560098
O6    O     O_R   0.682190 0.379740 0.500020 -0.603910
O7    O     O_R   0.499870 0.620210 0.620600 -0.533737
O8    O     O_R   0.499870 0.379790 0.620600 -0.530571
O9    O     O_3   0.885545 0.713065 0.413206 -0.615739
C31   C     C_3   0.889936 0.774991 0.332491 -0.325249
H27   H     H_    0.807347 0.741870 0.294628 0.200417
H28   H     H_    0.977053 0.749532 0.298364 0.151492
H29   H     H_    0.885920 0.891732 0.339942 0.158933
O10   O     O_3   0.864587 0.495311 0.344380 -0.616260
C32   C     C_3   0.940691 0.417457 0.289328 -0.404338
H30   H     H_    0.996330 0.336716 0.322929 0.158718
H31   H     H_    0.000022 0.488989 0.251409 0.175681
H32   H     H_    0.879425 0.359119 0.244467 0.225568
O11   O     O_3   0.594654 0.134635 0.638545 -0.523557
C33   C     C_3   0.709106 0.185272 0.671866 -0.257502
H33   H     H_    0.724037 0.297235 0.653920 0.155944
H34   H     H_    0.790411 0.121169 0.652513 0.092031
H35   H     H_    0.704415 0.181681 0.741471 0.205219
O12   O     O_3   0.596768 0.866471 0.637399 -0.524392
C34   C     C_3   0.713832 0.831047 0.672552 -0.278199
H36   H     H_    0.794692 0.884129 0.642786 0.097911
H37   H     H_    0.726316 0.714741 0.669457 0.156049
H38   H     H_    0.714541 0.863344 0.739703 0.176534
C35   C     C_2   0.404096 0.746438 0.086128 0.375727
H39   H     H_    0.309024 0.743147 0.062571 0.084985
O13   O     O_2   0.429915 0.826590 0.144330 -0.574291
C36   C     C_2   0.270548 0.464146 0.075286 0.332234
H40   H     H_    0.261391 0.520104 0.134675 0.073630
O14   O     O_2   0.175919 0.434262 0.035726 -0.556538
O15   O     O_3   0.751710 0.452498 0.092437 -0.598791
C37   C     C_3   0.776778 0.593448 0.117576 -0.322427
H41   H     H_    0.785491 0.666956 0.064085 0.201601
H42   H     H_    0.869871 0.595439 0.147958 0.194828
H43   H     H_    0.711890 0.631987 0.166037 0.168787
O16   O     O_3   0.613202 0.270424 0.058609 -0.610193
C38   C     C_3   0.662729 0.209276 0.132777 -0.259773
H44   H     H_    0.644434 0.273216 0.189934 0.178010
H45   H     H_    0.764403 0.191975 0.126035 0.179011
H46   H     H_    0.618310 0.104199 0.141695 0.188198
O17   O     O_3   0.741424 0.551152 0.937455 -0.622481
C39   C     C_3   0.774061 0.573176 0.852405 -0.352913
H47   H     H_    0.717868 0.660599 0.826227 0.162164
H48   H     H_    0.764942 0.478269 0.811321 0.182038
H49   H     H_    0.872951 0.607218 0.850464 0.188491
O18   O     O_3   0.675828 0.316494 0.908234 -0.609922
C40   C     C_3   0.796762 0.264475 0.926784 -0.209204
H50   H     H_    0.854722 0.333618 0.968339 0.226263
H51   H     H_    0.847670 0.249505 0.866996 0.128844
H52   H     H_    0.788152 0.159231 0.956921 0.183998

loop_
_geom_bond_atom_site_label_1
_geom_bond_atom_site_label_2
_ccdc_geom_bond_type
C23   O8    A    
C38   H44   S    
Cu1   O1    S    
O15   C37   S    
C24   C27   S    
C7    H23   S    
C18   H15   S    
C8    H24   S    
C34   H36   S    
C27   H1    S    
Cu1   O7    S    
C10   H26   S    
C5    C6    T    
C39   H47   S    
C37   H43   S    
C3    C29   S    
C18   C19   S    
C23   O7    A    
C11   H5    S    
C9    C13   S    
C24   C29   S    
C22   O6    A    
O18   C40   S    
C11   C15   S    
C3    O16   S    
C26   H2    S    
C40   H50   S    
C16   C17   S    
C37   H42   S    
C31   H27   S    
C35   O13   D    
C20   H13   S    
C19   H10   S    
Cu2   O8    S    
C38   H45   S    
C1    O2    A    
C27   C30   S    
C25   C29   S    
C1    C12   S    
C33   H35   S    
C4    C28   T    
C24   C35   S    
O16   C38   S    
C5    C29   S    
C34   H37   S    
C24   H18   S    
C7    C12   S    
C15   O9    S    
C31   H28   S    
O10   C32   S    
Cu1   O3    S    
O12   C34   S    
Cu2   O4    S    
C21   N2    S    
C33   H34   S    
C18   H9    S    
C8    H22   S    
C19   H16   S    
C16   H7    S    
C25   C26   S    
C17   H8    S    
Cu1   N2    S    
C11   H6    S    
C32   H30   S    
C22   O5    A    
C6    C14   S    
C21   H12   S    
Cu1   Cu2   S    
C8    C12   S    
C14   O4    A    
C37   H41   S    
C31   H29   S    
C36   O14   D    
C40   H51   S    
C23   C28   S    
C20   N1    S    
C32   H31   S    
C26   C30   S    
C38   H46   S    
C13   C15   S    
C7    H21   S    
C20   H11   S    
C27   H20   S    
Cu2   O6    S    
C21   H14   S    
C34   H38   S    
Cu1   O5    S    
C2    O18   S    
C25   C36   S    
C33   H33   S    
C10   C13   S    
C1    O1    A    
C10   H4    S    
C11   C12   S    
C19   N2    S    
O17   C39   S    
C2    O17   S    
C2    C30   S    
C16   O11   S    
C17   O12   S    
C2    C3    S    
Cu2   O2    S    
C26   H19   S    
C39   H48   S    
C14   O3    A    
C36   H40   S    
C13   C22   S    
C40   H52   S    
C9    H25   S    
O9    C31   S    
C32   H32   S    
C25   H17   S    
C17   N2    S    
O11   C33   S    
C7    C9    S    
C18   N1    S    
C15   O10   S    
C20   C21   S    
C8    C10   S    
C9    H3    S    
C3    O15   S    
Cu2   N1    S    
C35   H39   S    
C16   N1    S    
C4    C30   S    
C39   H49   S    
