data_mof_unit_34870.cif
_audit_creation_date              2012-12-10T16:48:49-0500
_audit_creation_method            fapswitch 2.2
_symmetry_space_group_name_H-M    P1
_symmetry_Int_Tables_number       1
_space_group_crystal_system       triclinic
_cell_length_a                    17.373095
_cell_length_b                    8.688335
_cell_length_c                    7.425118
_cell_angle_alpha                 102.976207
_cell_angle_beta                  89.788823
_cell_angle_gamma                 93.055791
_cell_volume                      1090.55843038

loop_
_atom_site_label
_atom_site_type_symbol
_atom_type_description
_atom_site_fract_x
_atom_site_fract_y
_atom_site_fract_z
_atom_type_partial_charge
C1    C     C_R   0.497649 0.199687 0.453585 0.888514
C2    C     C_R   0.502351 0.800313 0.546415 0.888512
C3    C     C_2   0.496517 0.031841 0.427375 -0.372485
C4    C     C_2   0.503483 0.968159 0.572625 -0.372516
C5    C     C_R   0.351155 0.504993 0.527709 0.801052
C6    C     C_R   0.648846 0.494975 0.472286 0.801070
C7    C     C_R   0.267184 0.514715 0.546388 -0.099954
C8    C     C_R   0.732812 0.485063 0.453595 -0.100034
C9    C     C_R   0.222851 0.471317 0.383539 -0.221857
C10   C     C_R   0.777136 0.528010 0.616490 -0.221773
C11   C     C_R   0.144151 0.485055 0.387574 -0.211112
C12   C     C_R   0.855819 0.514045 0.612437 -0.211128
C13   C     C_R   0.107003 0.540352 0.555087 0.139013
C14   C     C_R   0.892962 0.458942 0.444882 0.138947
C15   C     C_R   0.149901 0.585966 0.720348 0.186407
C16   C     C_R   0.850079 0.413762 0.279577 0.186483
C17   C     C_R   0.230252 0.572844 0.717449 0.085115
C18   C     C_R   0.769744 0.427150 0.282474 0.085139
C19   C     C_2   0.023213 0.552578 0.557230 -0.194178
C20   C     C_2   0.976743 0.446616 0.442737 -0.194182
Cu1   Cu    Cu3+1 0.508700 0.517250 0.683000 0.941172
Cu2   Cu    Cu3+1 0.491300 0.482750 0.317000 0.941167
H1    H     H_    0.249007 0.427475 0.250475 0.173091
H2    H     H_    0.750987 0.571682 0.749603 0.173212
H3    H     H_    0.000445 0.349662 0.343406 0.174813
H4    H     H_    0.999492 0.649527 0.656537 0.174884
H5    H     H_    0.887406 0.544605 0.742008 0.148837
H6    H     H_    0.112563 0.454208 0.258006 0.148848
H7    H     H_    0.489940 0.960315 0.287357 0.178488
H8    H     H_    0.510060 0.039685 0.712643 0.178482
H9    H     H_    0.439258 0.379818 0.958215 0.221098
H10   H     H_    0.560742 0.620183 0.041785 0.221091
N1    N     N_2   0.478180 0.456750 0.041980 -0.222183
N2    N     N_2   0.521820 0.543250 0.958020 -0.222168
O1    O     O_R   0.505650 0.286040 0.618880 -0.580953
O2    O     O_R   0.494350 0.713960 0.381120 -0.580945
O3    O     O_R   0.490960 0.256910 0.309800 -0.588823
O4    O     O_R   0.509040 0.743090 0.690200 -0.588816
O5    O     O_R   0.394600 0.516230 0.672450 -0.602224
O6    O     O_R   0.605400 0.483770 0.327550 -0.602223
O7    O     O_R   0.379910 0.487100 0.363380 -0.583748
O8    O     O_R   0.620090 0.512900 0.636620 -0.583753
N3    N     N_3   0.727871 0.378613 0.111158 -0.604079
H11   H     H_    0.686362 0.289603 0.121987 0.241087
H12   H     H_    0.701414 0.475984 0.083028 0.237127
N4    N     N_3   0.272147 0.621922 0.888679 -0.604003
H13   H     H_    0.313612 0.710898 0.877451 0.240963
H14   H     H_    0.298663 0.524764 0.917201 0.237278
N5    N     N_3   0.111288 0.643534 0.891480 -0.606887
H15   H     H_    0.134372 0.757313 0.950047 0.237715
H16   H     H_    0.122759 0.570208 0.981010 0.234828
N6    N     N_3   0.888697 0.356430 0.108393 -0.606834
H17   H     H_    0.865521 0.242809 0.049442 0.237714
H18   H     H_    0.877334 0.430088 0.019180 0.234711

loop_
_geom_bond_atom_site_label_1
_geom_bond_atom_site_label_2
_ccdc_geom_bond_type
C7    C17   A    
C2    C4    S    
N3    H11   S    
H9    N1    S    
C15   C17   A    
Cu1   O1    S    
C8    C18   A    
C9    C11   A    
C2    O4    A    
C19   C20   D    
Cu1   O5    S    
C1    O3    A    
Cu2   O6    S    
N6    H18   S    
N5    H16   S    
C13   C15   A    
N1    N2    D    
C16   C18   A    
C18   N3    S    
N6    H17   S    
C15   N5    S    
N3    H12   S    
C3    H7    S    
C16   N6    S    
C10   C12   A    
C11   H6    S    
C8    C10   A    
C12   C14   A    
N4    H14   S    
C5    O5    A    
C14   C16   A    
Cu2   O7    S    
C20   H3    S    
C13   C19   S    
C12   H5    S    
Cu1   O8    S    
C14   C20   S    
C11   C13   A    
C6    O6    A    
Cu2   O2    S    
C17   N4    S    
C1    O1    A    
C7    C9    A    
N5    H15   S    
C6    O8    A    
C2    O2    A    
C5    C7    S    
Cu2   N1    S    
C5    O7    A    
N4    H13   S    
C9    H1    S    
C6    C8    S    
Cu1   N2    S    
C10   H2    S    
Cu1   Cu2   S    
Cu2   O3    S    
C4    H8    S    
Cu1   O4    S    
C3    C4    D    
H10   N2    S    
C1    C3    S    
C19   H4    S    
