data_mof_unit_12501.cif
_audit_creation_date              2012-12-11T14:17:50-0500
_audit_creation_method            fapswitch 2.2
_symmetry_space_group_name_H-M    P1
_symmetry_Int_Tables_number       1
_space_group_crystal_system       triclinic
_cell_length_a                    6.941729
_cell_length_b                    13.692465
_cell_length_c                    20.37957
_cell_angle_alpha                 101.959009
_cell_angle_beta                  89.132179
_cell_angle_gamma                 90.847194
_cell_volume                      1894.67194322

loop_
_atom_site_label
_atom_site_type_symbol
_atom_type_description
_atom_site_fract_x
_atom_site_fract_y
_atom_site_fract_z
_atom_type_partial_charge
O1    O     O_R   0.506860 0.599390 0.449240 -0.541297
O2    O     O_R   0.180220 0.594600 0.586780 -0.544193
O3    O     O_R   0.004500 0.400610 0.550760 -0.538906
C1    C     C_R   0.348386 0.615963 0.613501 0.737721
O4    O     O_R   0.177490 0.611290 0.451970 -0.544003
O5    O     O_R   0.001750 0.417420 0.414990 -0.542128
C2    C     C_R   0.348484 0.637479 0.434794 0.697223
O6    O     O_R   0.509610 0.582580 0.585010 -0.544502
O7    O     O_3   0.337420 0.436370 0.488020 -0.367718
V1    V     V_3+5 0.064680 0.511800 0.502220 1.421076
O8    O     O_R   0.671710 0.405400 0.413220 -0.535979
C3    C     C_R   0.840934 0.388222 0.385685 0.742464
O9    O     O_R   0.674440 0.388710 0.548030 -0.541102
C4    C     C_R   0.841655 0.361945 0.564641 0.700202
V2    V     V_3+5 0.564010 0.488200 0.497780 1.435533
O10   O     O_3   0.841140 0.563630 0.511980 -0.377527
C5    C     C_R   0.811720 0.112432 0.613123 -0.157395
H1    H     H_    0.802616 0.162779 0.520320 0.109879
H2    H     H_    0.801220 0.987864 0.696761 0.121661
H3    H     H_    0.792256 0.034874 0.588480 0.111479
C6    C     C_R   0.844528 0.285083 0.604685 -0.032810
C7    C     C_R   0.890557 0.314469 0.928237 -0.165681
C8    C     C_R   0.897278 0.390151 0.892227 -0.118640
C9    C     C_R   0.884099 0.367735 0.822553 -0.156769
C10   C     C_R   0.863243 0.267752 0.786788 0.077138
C11   C     C_R   0.853712 0.190549 0.824219 0.066773
C12   C     C_R   0.851696 0.241799 0.715290 0.072274
C13   C     C_R   0.827711 0.139792 0.683155 0.142378
C14   C     C_R   0.818809 0.065739 0.720989 -0.202294
C15   C     C_R   0.832269 0.090461 0.790315 -0.196187
C16   C     C_R   0.862145 0.313457 0.674312 -0.215563
C17   C     C_R   0.818277 0.184833 0.574201 -0.169177
C18   C     C_R   0.868117 0.215044 0.895028 -0.073688
H4    H     H_    0.880738 0.392088 0.694698 0.094213
H5    H     H_    0.903402 0.333441 0.982340 0.103299
H6    H     H_    0.890806 0.430594 0.798421 0.106851
H7    H     H_    0.914019 0.467010 0.918509 0.117016
H8    H     H_    0.825106 0.030026 0.817157 0.117763
C19   C     C_2   0.995494 0.276966 0.288364 -0.097998
C20   C     C_2   0.848012 0.335077 0.315210 -0.278854
H9    H     H_    0.121239 0.272202 0.318574 0.159107
H10   H     H_    0.729038 0.347365 0.284273 0.167366
C21   C     C_2   0.001460 0.221981 0.217243 -0.155324
C22   C     C_2   0.850063 0.173340 0.183555 -0.000467
H11   H     H_    0.142075 0.216314 0.192866 0.160097
C23   C     C_2   0.205349 0.790311 0.783204 -0.133329
C24   C     C_2   0.365080 0.816055 0.819780 -0.305973
H12   H     H_    0.067473 0.819744 0.803506 0.131490
H13   H     H_    0.504000 0.787149 0.800860 0.126831
C25   C     C_2   0.202437 0.722111 0.715668 -0.132986
C26   C     C_2   0.360009 0.683963 0.680213 -0.310388
H14   H     H_    0.060940 0.703364 0.694299 0.133054
H15   H     H_    0.503213 0.702143 0.699720 0.125554
C27   C     C_R   0.539234 0.862688 0.378020 -0.154302
H16   H     H_    0.526123 0.815405 0.471717 0.106270
H17   H     H_    0.631524 0.972858 0.290157 0.160400
H18   H     H_    0.620634 0.929753 0.399071 0.116877
C28   C     C_R   0.371076 0.713978 0.394597 -0.045797
C29   C     C_R   0.258673 0.693398 0.074422 -0.210743
C30   C     C_R   0.242764 0.615443 0.108289 -0.115981
C31   C     C_R   0.305094 0.626784 0.174616 0.169555
C32   C     C_R   0.367252 0.723187 0.210347 0.062784
C33   C     C_R   0.406581 0.798024 0.172114 0.024738
C34   C     C_R   0.395422 0.749020 0.281589 0.075785
C35   C     C_R   0.496733 0.838745 0.309485 0.130228
C36   C     C_R   0.553392 0.904747 0.269134 -0.179057
C37   C     C_R   0.502819 0.886593 0.202214 -0.168649
C38   C     C_R   0.319853 0.692034 0.326840 -0.228509
C39   C     C_R   0.482063 0.799007 0.419759 -0.162003
C40   C     C_R   0.348243 0.783066 0.104408 -0.084927
H19   H     H_    0.223757 0.629519 0.310704 0.131444
H20   H     H_    0.209673 0.681872 0.023113 0.115632
H21   H     H_    0.188426 0.543891 0.081419 0.124667
H22   H     H_    0.542811 0.942286 0.173874 0.163344
O11   O     O_R   0.203230 0.917310 0.915020 -0.541072
O12   O     O_R   0.535500 0.888690 0.048040 -0.544269
O13   O     O_R   0.711080 0.082610 0.085000 -0.524465
C41   C     C_R   0.364914 0.862353 0.065387 0.705138
O14   O     O_R   0.532630 0.905370 0.913230 -0.550964
O15   O     O_R   0.708190 0.099410 0.949230 -0.539275
C42   C     C_R   0.365071 0.884243 0.886469 0.735951
O16   O     O_R   0.206120 0.900510 0.050790 -0.536554
O17   O     O_3   0.375360 0.063570 0.011990 -0.362834
V3    V     V_3+5 0.648170 0.988200 0.997780 1.437973
O18   O     O_R   0.038240 0.111390 0.951940 -0.542530
C43   C     C_R   0.871056 0.137785 0.935094 0.684249
O19   O     O_R   0.041120 0.094710 0.086750 -0.544149
C44   C     C_R   0.870770 0.114115 0.114075 0.719927
V4    V     V_3+5 0.148810 0.011930 0.002180 1.447712
O20   O     O_3   0.871750 0.936430 0.988010 -0.377242
I1    I     I_    0.570254 0.163120 0.228523 -0.522047
C45   C     C_3   0.332173 0.531147 0.199204 -0.814523
H23   H     H_    0.444942 0.539212 0.238014 0.213862
H24   H     H_    0.193054 0.505714 0.217893 0.209955
H25   H     H_    0.383742 0.471169 0.157482 0.215840

loop_
_geom_bond_atom_site_label_1
_geom_bond_atom_site_label_2
_ccdc_geom_bond_type
O19   C44   A    
C40   C41   S    
O15   V3    S    
O12   V3    S    
C19   H9    S    
C27   C35   A    
O18   C43   A    
C7    H5    S    
C6    C16   A    
C9    H6    S    
O16   V4    S    
C34   C38   A    
C4    C6    S    
C13   C14   A    
O12   C41   A    
O5    C3    A    
O14   V3    S    
V2    O10   S    
C30   H21   S    
C5    H3    S    
C15   H8    S    
C32   C34   A    
O8    V2    S    
O13   C44   A    
C25   H14   S    
C8    C9    A    
O1    V2    S    
O7    V1    S    
C2    C28   S    
C31   C45   S    
C1    O6    A    
C29   H20   S    
C20   H10   S    
C36   C37   A    
C29   C30   A    
O9    C4    A    
V3    O20   S    
C23   H12   S    
O17   V4    S    
C6    C17   A    
C33   C37   A    
C1    C26   S    
C12   C16   A    
C9    C10   A    
C24   H13   S    
C19   C20   D    
O4    C2    A    
O18   V4    S    
O11   C42   A    
C19   C21   S    
O13   V3    S    
C10   C11   A    
C8    H7    S    
C45   H25   S    
C30   C31   A    
C26   H15   S    
C3    C20   S    
O2    C1    A    
C21   C22   D    
C14   C15   A    
C41   O16   A    
C11   C18   A    
O17   V3    S    
C33   C40   A    
C32   C33   A    
C45   H24   S    
C25   C26   D    
C16   H4    S    
C37   H22   S    
C21   H11   S    
H16   C39   S    
O3    C4    A    
C28   C38   A    
C11   C15   A    
O6    V2    S    
O19   V4    S    
H1    C17   S    
O2    V1    S    
O14   C42   A    
C7    C18   A    
C23   C24   D    
O1    C2    A    
C5    C13   A    
O5    V1    S    
O8    C3    A    
C28   C39   A    
C10   C12   A    
C23   C25   S    
O15   C43   A    
C34   C35   A    
O9    V2    S    
O7    V2    S    
O4    V1    S    
O3    V1    S    
V1    O10   S    
C27   C39   A    
C38   H19   S    
H17   C36   S    
C45   H23   S    
C24   C42   S    
C31   C32   A    
C22   I1    S    
O11   V4    S    
C29   C40   A    
C35   C36   A    
C12   C13   A    
C5    C17   A    
C7    C8    A    
V4    O20   S    
C22   C44   S    
C18   C43   S    
C27   H18   S    
H2    C14   S    
