data_mof_unit_15604.cif
_audit_creation_date              2013-03-05T15:53:45-0500
_audit_creation_method            fapswitch 2.2
_symmetry_space_group_name_H-M    P1
_symmetry_Int_Tables_number       1
_space_group_crystal_system       triclinic
_cell_length_a                    10.806562
_cell_length_b                    10.623217
_cell_length_c                    9.937689
_cell_angle_alpha                 92.809028
_cell_angle_beta                  91.342418
_cell_angle_gamma                 90.699492
_cell_volume                      1139.06572977

loop_
_atom_site_label
_atom_site_type_symbol
_atom_site_description
_atom_site_fract_x
_atom_site_fract_y
_atom_site_fract_z
_atom_type_partial_charge
O1    O     O_R   0.500000 0.316780 0.614690 -0.688369
O2    O     O_R   0.499990 0.316750 0.385360 -0.576751
C1    C     C_R   0.505680 0.258629 0.497246 0.952238
O3    O     O_R   0.314800 0.499990 0.614670 -0.604743
O4    O     O_R   0.314790 0.499970 0.385330 -0.607899
C2    C     C_R   0.258053 0.501667 0.498100 0.998923
Zn1   Zn    Zn3+2 0.500010 0.500020 0.653130 1.018231
Zn2   Zn    Zn3+2 0.499990 0.499980 0.346870 1.100746
O5    O     O_R   0.500010 0.683250 0.614640 -0.640809
O6    O     O_R   0.500000 0.683220 0.385310 -0.509355
O7    O     O_R   0.685210 0.500030 0.614670 -0.615475
O8    O     O_R   0.685200 0.500010 0.385330 -0.568142
C3    C     C_R   0.477716 0.737445 0.503074 0.986677
C4    C     C_R   0.742160 0.494971 0.501473 1.033172
C5    C     C_3   0.077709 0.376557 0.565978 0.568159
C6    C     C_3   0.930848 0.361034 0.552576 0.346438
H1    H     H_    0.122090 0.628485 0.672334 0.205514
C7    C     C_3   0.074971 0.622501 0.571185 0.003255
C8    C     C_3   0.065675 0.489642 0.348171 0.211494
C9    C     C_3   0.121583 0.499299 0.494833 -0.229129
H2    H     H_    0.085405 0.394545 0.302807 0.184262
C10   C     C_3   0.879251 0.494193 0.504981 -0.334512
C11   C     C_3   0.932565 0.613498 0.593691 0.482903
C12   C     C_3   0.925276 0.507393 0.356110 -0.484947
H3    H     H_    0.879680 0.437095 0.283884 0.231385
H4    H     H_    0.900151 0.600187 0.317808 0.300453
C13   C     C_R   0.614935 0.114410 0.714217 -0.070936
H5    H     H_    0.669103 0.197964 0.698423 0.235800
C14   C     C_R   0.624103 0.061775 0.839265 -0.186575
H6    H     H_    0.684724 0.106826 0.915930 0.233263
C15   C     C_R   0.546719 0.960640 0.869104 0.249239
C16   C     C_R   0.470861 0.903408 0.764028 0.268356
C17   C     C_R   0.484033 0.942477 0.629930 -0.095107
C18   C     C_R   0.536459 0.060220 0.611570 -0.036953
C19   C     C_R   0.505226 0.121689 0.492928 -0.091223
C20   C     C_R   0.445322 0.055646 0.383167 0.399892
C21   C     C_R   0.408355 0.930181 0.395571 0.205500
C22   C     C_R   0.445091 0.870083 0.513076 -0.182038
C23   C     C_R   0.337611 0.339331 0.128345 -0.177789
H7    H     H_    0.334099 0.337114 0.234865 0.223807
C24   C     C_R   0.258023 0.256269 0.053109 0.444657
C25   C     C_R   0.263225 0.251579 0.914045 -0.087148
H8    H     H_    0.203028 0.187006 0.854622 0.241157
C26   C     C_R   0.342759 0.331728 0.849770 -0.156481
H9    H     H_    0.336260 0.325166 0.743121 0.257312
C27   C     C_R   0.422097 0.417967 0.922200 0.080522
C28   C     C_R   0.420644 0.419913 0.066234 0.016799
N1    N     N_R   0.498810 0.498800 0.142780 -0.152669
C29   C     C_R   0.577531 0.576212 0.080156 0.551937
C30   C     C_R   0.575785 0.578575 0.936403 0.426047
N2    N     N_R   0.498760 0.498720 0.857170 -0.160204
O9    O     O_3   0.117785 0.383265 0.702683 -0.763950
H10   H     H_    0.070760 0.446023 0.755774 0.390372
N3    N     N_R   0.111986 0.738687 0.505988 0.265011
O10   O     O_R   0.184591 0.819455 0.571837 -0.340661
O11   O     O_R   0.055924 0.774505 0.397320 -0.196646
N4    N     N_R   0.872138 0.734730 0.563679 0.218865
O12   O     O_R   0.897872 0.834763 0.640795 -0.249810
O13   O     O_R   0.790983 0.744553 0.466066 -0.360460
O14   O     O_3   0.423327 0.115894 0.265274 -0.741124
H11   H     H_    0.408095 0.052909 0.189944 0.396328
N5    N     N_R   0.545117 0.919863 0.005528 0.211685
O15   O     O_R   0.628994 0.961088 0.093601 -0.325619
O16   O     O_R   0.461363 0.841283 0.043681 -0.315553
N6    N     N_R   0.358386 0.840126 0.797225 0.253167
O17   O     O_R   0.263541 0.907771 0.831361 -0.285223
O18   O     O_R   0.356545 0.720632 0.819344 -0.329968
N7    N     N_R   0.314089 0.875821 0.303795 0.252840
O19   O     O_R   0.311819 0.757027 0.265975 -0.256768
O20   O     O_R   0.221984 0.944850 0.266346 -0.240379
O21   O     O_3   0.656292 0.652632 0.160376 -0.658761
H12   H     H_    0.714359 0.698190 0.103934 0.397838
O22   O     O_3   0.137526 0.271704 0.505556 -0.748139
H13   H     H_    0.121077 0.198182 0.560840 0.411659
O23   O     O_3   0.174662 0.178370 0.112709 -0.637504
H14   H     H_    0.180906 0.193952 0.211817 0.386042
O24   O     O_3   0.650289 0.666279 0.880383 -0.775241
H15   H     H_    0.639059 0.657590 0.782595 0.386314
N8    N     N_R   0.889121 0.261862 0.449418 0.212325
O25   O     O_R   0.775317 0.220848 0.450071 -0.388672
O26   O     O_R   0.958801 0.217286 0.353773 -0.309491
N9    N     N_R   0.886772 0.316669 0.683062 0.208698
O27   O     O_R   0.822818 0.384273 0.767914 -0.367531
O28   O     O_R   0.918611 0.204683 0.717728 -0.310076
O29   O     O_3   0.918574 0.594572 0.731604 -0.745746
H16   H     H_    0.841086 0.633268 0.762058 0.407233
O30   O     O_3   0.117666 0.577231 0.263606 -0.619166
H17   H     H_    0.090869 0.551511 0.169861 0.367228

loop_
_geom_bond_atom_site_label_1
_geom_bond_atom_site_label_2
_geom_bond_distance
_ccdc_geom_bond_type
O30   H17   0.993424 S    
C13   C14   1.389400 A    
O22   H13   0.993326 S    
C8    C9    1.562813 S    
C23   C24   1.401427 A    
O24   H15   0.976227 S    
C26   H9    1.059342 S    
Zn1   O7    2.046320 S    
C14   H6    1.082530 S    
C20   C21   1.398803 A    
C8    H2    1.111036 S    
C21   C22   1.409373 A    
C12   H4    1.108526 S    
C8    O30   1.404884 S    
O4    C2    1.289435 A    
O7    C4    1.293989 A    
N4    O13   1.301283 A    
C5    C6    1.595391 S    
C21   N7    1.446904 S    
Zn1   O5    2.002026 S    
C18   C19   1.411606 A    
C24   C25   1.382917 A    
O5    C3    1.293123 A    
N5    O16   1.299408 A    
C27   C28   1.430959 A    
C15   C16   1.420398 A    
N7    O19   1.298755 A    
N6    O18   1.298856 A    
C15   N5    1.443765 S    
C25   C26   1.390266 A    
O3    Zn1   2.028827 S    
C26   C27   1.407032 A    
C30   N2    1.385301 A    
C13   C18   1.407526 A    
C5    C9    1.586135 S    
N3    O11   1.301263 A    
C7    C11   1.562714 S    
C12   H3    1.112456 S    
O3    C2    1.298984 A    
C23   H7    1.061541 S    
N8    O26   1.301086 A    
O29   H16   0.984811 S    
C27   N2    1.379125 A    
N9    O27   1.297899 A    
O14   H11   0.988766 S    
O1    C1    1.296599 A    
C19   C20   1.407798 A    
O23   H14   0.991275 S    
Zn2   N1    2.027348 S    
N5    O15   1.301923 A    
C24   O23   1.379126 S    
C28   N1    1.372805 A    
C1    C19   1.453215 S    
Zn2   O8    2.028830 S    
C6    N9    1.487903 S    
H1    C7    1.114762 S    
C5    O9    1.414372 S    
C3    C22   1.455898 S    
N7    O20   1.301594 A    
N1    C29   1.358374 A    
C5    O22   1.410433 S    
O8    C4    1.299030 A    
N6    O17   1.300919 A    
N9    O28   1.302669 A    
C11   O29   1.406279 S    
C10   C12   1.583943 S    
C25   H8    1.083446 S    
C30   O24   1.371037 S    
O9    H10   0.983588 S    
C23   C28   1.406389 A    
C11   N4    1.490993 S    
N3    O10   1.297889 A    
C6    C10   1.614961 S    
O1    Zn1   1.965269 S    
O2    Zn2   2.002026 S    
C20   O14   1.379466 S    
O6    C3    1.307644 A    
O4    Zn2   2.046319 S    
C2    C9    1.474246 S    
C17   C22   1.413766 A    
C6    N8    1.491671 S    
C16   C17   1.424801 A    
C4    C10   1.481214 S    
O2    C1    1.298583 A    
Zn1   N2    2.028771 S    
O21   H12   0.989074 S    
C14   C15   1.400884 A    
N4    O12   1.302641 A    
C17   C18   1.388779 A    
C8    C12   1.534568 S    
C7    C9    1.574511 S    
C7    N3    1.477045 S    
N8    O25   1.299965 A    
Zn2   O6    1.965269 S    
C29   C30   1.429708 A    
C29   O21   1.380919 S    
C13   H5    1.077230 S    
C10   C11   1.601335 S    
C16   N6    1.434821 S    
