data_mof_unit_64885.cif
_audit_creation_date              2012-12-10T21:03:45-0500
_audit_creation_method            fapswitch 2.2
_symmetry_space_group_name_H-M    P1
_symmetry_Int_Tables_number       1
_space_group_crystal_system       triclinic
_cell_length_a                    15.862151
_cell_length_b                    15.069355
_cell_length_c                    23.27198
_cell_angle_alpha                 90.013308
_cell_angle_beta                  89.996275
_cell_angle_gamma                 90.101963
_cell_volume                      5562.74790091

loop_
_atom_site_label
_atom_site_type_symbol
_atom_type_description
_atom_site_fract_x
_atom_site_fract_y
_atom_site_fract_z
_atom_type_partial_charge
C1    C     C_R   0.338953 0.499939 0.499978 0.940860
C2    C     C_R   0.542538 0.458123 0.709238 0.340101
C3    C     C_R   0.406904 0.545531 0.244407 -0.154843
C4    C     C_R   0.528433 0.459094 0.768140 -0.169305
C5    C     C_R   0.463893 0.501774 0.208808 0.059633
C6    C     C_R   0.457168 0.501072 0.790498 0.058611
C7    C     C_R   0.956112 0.501114 0.552673 0.319807
C8    C     C_R   0.043980 0.499467 0.447461 0.324626
C9    C     C_R   0.043959 0.501126 0.552681 0.324777
C10   C     C_R   0.956136 0.499443 0.447453 0.321896
C11   C     C_R   0.913020 0.500269 0.500059 -0.218886
C12   C     C_R   0.661059 0.500064 0.499979 0.922395
C13   C     C_R   0.087060 0.500232 0.500074 -0.222911
C14   C     C_1   0.824017 0.500239 0.500042 0.194310
C15   C     C_1   0.176042 0.500019 0.500068 0.199860
C16   C     C_1   0.250765 0.499881 0.500028 -0.031936
C17   C     C_1   0.749278 0.500190 0.500011 -0.054328
C18   C     C_R   0.499069 0.500031 0.389068 1.012503
C19   C     C_R   0.498773 0.500052 0.610909 1.014399
C20   C     C_R   0.489685 0.953080 0.448601 -0.114736
C21   C     C_R   0.510229 0.046916 0.551393 -0.115176
C22   C     C_R   0.510210 0.953156 0.551394 -0.114898
C23   C     C_R   0.533190 0.456227 0.231871 0.415440
C24   C     C_R   0.489705 0.046841 0.448599 -0.115573
C25   C     C_R   0.499944 0.905039 0.499998 0.043467
C26   C     C_R   0.499979 0.094958 0.499995 0.044088
C27   C     C_1   0.499969 0.807174 0.499999 0.133687
C28   C     C_1   0.499994 0.192825 0.499997 0.129614
C29   C     C_R   0.474209 0.579291 0.879154 0.625556
C30   C     C_R   0.412725 0.439396 0.120607 0.630415
C31   C     C_R   0.411516 0.435048 0.879354 0.634492
C32   C     C_R   0.482777 0.579826 0.119901 0.631009
C33   C     C_R   0.402291 0.436874 0.939784 -0.153557
C34   C     C_R   0.398349 0.541660 0.754189 0.427574
C35   C     C_R   0.473437 0.587207 0.059764 -0.153711
C36   C     C_R   0.435989 0.511530 0.969547 -0.045732
C37   C     C_R   0.437789 0.513502 0.030100 -0.043872
C38   C     C_R   0.469942 0.583651 0.938840 -0.083440
C39   C     C_R   0.405596 0.440577 0.060899 -0.082844
C40   C     C_R   0.363316 0.367477 0.971991 0.435933
C41   C     C_R   0.499909 0.662932 0.027735 0.437310
C42   C     C_R   0.367308 0.369981 0.031884 -0.173141
C43   C     C_R   0.499395 0.658734 0.967892 -0.172428
C44   C     C_R   0.545302 0.455113 0.291460 0.264755
C45   C     C_R   0.412119 0.541561 0.694888 0.258205
C46   C     C_R   0.487994 0.500352 0.327170 -0.305061
C47   C     C_R   0.484949 0.500385 0.672524 -0.302283
C48   C     C_R   0.418338 0.545118 0.303434 0.338388
Cl1   Cl    Cl    0.605158 0.402733 0.185624 -0.403016
Cl2   Cl    Cl    0.099945 0.498571 0.381667 -0.399213
Cl3   Cl    Cl    0.307797 0.592236 0.783629 -0.379847
Cl4   Cl    Cl    0.633839 0.400328 0.320867 -0.429920
Cl5   Cl    Cl    0.336315 0.590288 0.648943 -0.451890
Cl6   Cl    Cl    0.342093 0.598685 0.346299 -0.502006
Cl7   Cl    Cl    0.634478 0.406568 0.683035 -0.485691
Cl8   Cl    Cl    0.099895 0.502278 0.618482 -0.375130
Cl9   Cl    Cl    0.900226 0.498294 0.381649 -0.392129
Cl10  Cl    Cl    0.900168 0.502071 0.618466 -0.398903
H1    H     H_    0.340481 0.315711 0.056286 0.239086
H2    H     H_    0.484627 0.849650 0.127446 0.406199
H3    H     H_    0.522589 0.714920 0.943576 0.239332
H4    H     H_    0.353695 0.580191 0.225829 0.215228
H5    H     H_    0.573390 0.428301 0.796908 0.211175
H6    H     H_    0.481670 0.081817 0.408317 0.166793
H7    H     H_    0.518247 0.918181 0.591676 0.166886
H8    H     H_    0.518279 0.081951 0.591674 0.167915
H9    H     H_    0.481636 0.918044 0.408320 0.167098
H10   H     H_    0.212325 0.263576 0.874183 0.409188
N1    N     N_R   0.446679 0.505410 0.851222 -0.337910
N2    N     N_R   0.452548 0.507124 0.148199 -0.338660
N3    N     N_1   0.500000 0.270550 0.500000 -0.068450
N4    N     N_1   0.500000 0.729450 0.500000 -0.064925
O1    O     O_R   0.378020 0.573650 0.500020 -0.569569
O2    O     O_2   0.381596 0.370478 0.151071 -0.491455
O3    O     O_2   0.388400 0.363547 0.848461 -0.434561
O4    O     O_2   0.524140 0.642205 0.150289 -0.433826
O5    O     O_2   0.366057 0.214688 0.912782 -0.201026
O6    O     O_2   0.257194 0.228451 0.986623 -0.243878
O7    O     O_3   0.237139 0.317047 0.892330 -0.455918
O8    O     O_2   0.616478 0.756861 0.085178 -0.190998
O9    O     O_2   0.533609 0.837693 0.013780 -0.242389
O10   O     O_3   0.460376 0.795780 0.109447 -0.481474
O11   O     O_R   0.621980 0.426350 0.499980 -0.585938
O12   O     O_R   0.621980 0.573650 0.499980 -0.618801
O13   O     O_R   0.378020 0.426350 0.500020 -0.624740
O14   O     O_R   0.499980 0.573680 0.416160 -0.587168
O15   O     O_R   0.500020 0.426320 0.583840 -0.589885
O16   O     O_R   0.500020 0.573680 0.583840 -0.589434
O17   O     O_R   0.499980 0.426320 0.416160 -0.590038
O18   O     O_2   0.507014 0.647661 0.848951 -0.495229
S1    S     S_3+6 0.305751 0.277806 0.941214 0.126336
S2    S     S_3+6 0.530470 0.766083 0.058725 0.123361
Zn1   Zn    Zn3+2 0.500000 0.598370 0.500000 1.084453
Zn2   Zn    Zn3+2 0.500000 0.401630 0.500000 1.075914

loop_
_geom_bond_atom_site_label_1
_geom_bond_atom_site_label_2
_ccdc_geom_bond_type
C6    N1    S    
C21   C26   A    
C8    C13   A    
C21   H8    S    
C20   H9    S    
O1    Zn1   S    
N3    Zn2   S    
C48   Cl6   S    
C4    H5    S    
C34   Cl3   S    
C18   O14   A    
C36   C37   A    
C35   C37   A    
C24   C26   A    
C19   O15   A    
C2    Cl7   S    
C30   O2    S    
C11   C14   S    
C19   C47   S    
C23   Cl1   S    
C20   C25   A    
C15   C16   T    
O15   Zn2   S    
C3    C48   A    
C33   C36   A    
O10   S2    S    
C12   O12   A    
C1    C16   S    
O17   Zn2   S    
C9    C13   A    
O9    S2    D    
H2    O10   S    
C20   C24   A    
C22   C25   A    
C29   C38   A    
C31   C33   A    
C7    Cl10  S    
O7    S1    S    
C44   Cl4   S    
H10   O7    S    
C40   C42   A    
C45   Cl5   S    
C24   H6    S    
C21   C22   A    
C41   C43   A    
C14   C17   T    
C18   C46   S    
C29   O18   S    
C30   N2    A    
C44   C46   A    
C7    C11   A    
C39   C42   A    
C29   N1    A    
C45   C47   A    
C1    O13   A    
C46   C48   A    
C33   C40   A    
C32   C35   A    
C10   Cl9   S    
C4    C6    A    
C19   O16   A    
C9    Cl8   S    
C32   N2    A    
O11   Zn2   S    
C23   C44   A    
C6    C34   A    
C12   O11   A    
O8    S2    D    
C2    C4    A    
C22   H7    S    
C5    N2    S    
O14   Zn1   S    
O13   Zn2   S    
C31   O3    S    
C5    C23   A    
C34   C45   A    
N4    Zn1   S    
C13   C15   S    
O6    S1    D    
C28   N3    T    
C8    Cl2   S    
C43   H3    S    
C3    H4    S    
C7    C9    A    
O16   Zn1   S    
O5    S1    D    
C18   O17   A    
C3    C5    A    
C42   H1    S    
C32   O4    S    
C2    C47   A    
C25   C27   S    
C26   C28   S    
C1    O1    A    
C36   C38   A    
C38   C43   A    
C37   C39   A    
C12   C17   S    
C30   C39   A    
O12   Zn1   S    
C40   S1    S    
C35   C41   A    
C10   C11   A    
C31   N1    A    
C41   S2    S    
C8    C10   A    
C27   N4    T    
