data_mof_unit_9715.cif
_audit_creation_date              2012-12-11T18:07:24-0500
_audit_creation_method            fapswitch 2.2
_symmetry_space_group_name_H-M    P1
_symmetry_Int_Tables_number       1
_space_group_crystal_system       triclinic
_cell_length_a                    8.247647
_cell_length_b                    12.713008
_cell_length_c                    26.961708
_cell_angle_alpha                 96.588281
_cell_angle_beta                  92.891094
_cell_angle_gamma                 81.374372
_cell_volume                      2774.97748743

loop_
_atom_site_label
_atom_site_type_symbol
_atom_type_description
_atom_site_fract_x
_atom_site_fract_y
_atom_site_fract_z
_atom_type_partial_charge
Ba1   Ba    Ba6+2 0.859560 0.448380 0.523550 1.671318
Ba2   Ba    Ba6+2 0.330270 0.551530 0.476440 1.675890
C1    C     C_3   0.636975 0.082558 0.663500 -0.383182
C2    C     C_R   0.924253 0.599282 0.180079 0.587752
C3    C     C_2   0.761516 0.555052 0.270890 -0.038598
C4    C     C_3   0.167789 0.219395 0.661212 0.285183
C5    C     C_3   0.737530 0.601828 0.324955 -0.023793
C6    C     C_1   0.990663 0.484044 0.343678 0.050467
C7    C     C_2   0.036074 0.475722 0.296363 -0.088761
C8    C     C_2   0.913320 0.510479 0.256281 0.190738
C9    C     C_R   0.036676 0.503917 0.102642 -0.078971
C10   C     C_R   0.075938 0.411177 0.127507 -0.035648
C11   C     C_R   0.154037 0.317691 0.100887 -0.061674
C12   C     C_3   0.658067 0.183503 0.640752 0.345448
C13   C     C_R   0.960188 0.598359 0.129336 -0.036806
C14   C     C_2   0.854971 0.543487 0.360442 -0.287337
C15   C     C_2   0.350737 0.474890 0.641271 -0.215343
C16   C     C_3   0.137645 0.196024 0.713712 -0.322772
C17   C     C_R   0.199533 0.408016 0.974055 0.019406
C18   C     C_R   0.059734 0.593669 0.974518 0.019928
C19   C     C_R   0.148132 0.500415 0.948835 0.050325
C20   C     C_R   0.292906 0.318978 0.947188 -0.099975
C21   C     C_R   0.331354 0.319954 0.897443 -0.060371
C22   C     C_R   0.278218 0.409456 0.871812 -0.030906
C23   C     C_3   0.534156 0.721353 0.633124 0.638311
C24   C     C_R   0.185746 0.499733 0.897382 -0.077396
C25   C     C_R   0.131355 0.589555 0.871550 -0.036204
C26   C     C_R   0.169915 0.588143 0.820831 0.593718
C27   C     C_R   0.316289 0.410484 0.821163 0.576565
C28   C     C_3   0.246003 0.219914 0.409826 0.691516
C29   C     C_2   0.459370 0.480607 0.729319 -0.077606
C30   C     C_3   0.499262 0.486490 0.675295 -0.019013
C31   C     C_1   0.206964 0.522351 0.656969 0.105428
C32   C     C_2   0.168390 0.523883 0.704440 -0.123656
C33   C     C_2   0.301168 0.499698 0.743728 0.208973
C34   C     C_3   0.638188 0.740164 0.680976 -0.328684
C35   C     C_R   0.157108 0.407831 0.024999 0.019401
C36   C     C_R   0.074279 0.502553 0.051142 0.050581
C37   C     C_R   0.028757 0.596169 0.026393 0.020034
C38   C     C_R   0.194012 0.315923 0.051021 -0.099972
C39   C     C_R   0.921810 0.690913 0.104970 -0.062567
C40   C     C_3   0.321400 0.111766 0.385300 -0.245528
C41   C     C_R   0.004157 0.681449 0.947036 -0.100490
C42   C     C_R   0.039335 0.679292 0.896924 -0.062180
C43   C     C_R   0.954884 0.690011 0.054838 -0.101215
C44   C     C_R   0.757147 0.820244 0.479499 -0.277052
C45   C     C_3   0.908769 0.859554 0.347603 0.287018
C46   C     C_R   0.436252 0.189168 0.521425 -0.250494
C47   C     C_R   0.409968 0.009712 0.536508 -0.092415
C48   C     C_R   0.349010 0.117986 0.540444 0.036241
C49   C     C_R   0.577877 0.152445 0.494631 0.044889
C50   C     C_R   0.640651 0.041286 0.489241 -0.061926
C51   C     C_R   0.555269 0.969518 0.510964 -0.052504
C52   C     C_3   0.980266 0.776996 0.581007 0.310457
C53   C     C_R   0.615984 0.858996 0.505764 0.059115
C54   C     C_R   0.846728 0.889737 0.460676 -0.047154
C55   C     C_R   0.786308 0.999197 0.463635 -0.097609
C56   C     C_3   0.925057 0.869029 0.292517 -0.299556
C57   C     C_3   0.973294 0.897297 0.592902 -0.344528
C58   C     C_3   0.701633 0.310660 0.375935 0.289778
C59   C     C_3   0.714056 0.281573 0.319828 -0.354950
C60   C     C_3   0.467219 0.795979 0.304701 0.684123
C61   C     C_3   0.344821 0.892700 0.293199 -0.311372
C62   C     C_R   0.034805 0.413611 0.178295 0.592100
H1    H     H_    0.766539 0.165689 0.616661 0.079890
H2    H     H_    0.820197 0.332251 0.391417 0.034771
H3    H     H_    0.604057 0.380038 0.383162 0.083797
H4    H     H_    0.617157 0.018100 0.633364 0.083068
H5    H     H_    0.814068 0.213667 0.311819 0.132022
H6    H     H_    0.740940 0.350921 0.301945 0.066273
H7    H     H_    0.596248 0.258421 0.303686 0.127938
H8    H     H_    0.545820 0.207012 0.617879 -0.053083
H9    H     H_    0.529379 0.098149 0.687795 0.136634
H10   H     H_    0.585479 0.642261 0.613997 0.045818
H11   H     H_    0.589611 0.817292 0.702522 0.107139
H12   H     H_    0.395570 0.121651 0.353343 0.063736
H13   H     H_    0.637491 0.674459 0.704700 0.075250
H14   H     H_    0.766611 0.743310 0.671701 0.115210
H15   H     H_    0.748198 0.055906 0.686328 0.128533
H16   H     H_    0.162658 0.264363 0.740946 0.118261
H17   H     H_    0.856228 0.785500 0.351175 -0.011585
H18   H     H_    0.824022 0.930643 0.363129 -0.013846
H19   H     H_    0.009849 0.799496 0.275602 0.164506
H20   H     H_    0.803269 0.871109 0.272972 0.153904
H21   H     H_    0.973214 0.944216 0.287879 0.090647
H22   H     H_    0.550102 0.823084 0.335908 -0.058518
H23   H     H_    0.400271 0.066178 0.412352 0.050917
H24   H     H_    0.267254 0.872617 0.259587 0.099787
H25   H     H_    0.410644 0.959522 0.286427 0.076322
H26   H     H_    0.093572 0.297137 0.655018 0.090714
H27   H     H_    0.265256 0.918064 0.325033 0.125198
H28   H     H_    0.162060 0.445898 0.286712 0.126059
H29   H     H_    0.185036 0.244692 0.118632 0.120481
H30   H     H_    0.558997 0.467481 0.756829 0.101700
H31   H     H_    0.403615 0.249419 0.878990 0.121894
H32   H     H_    0.341152 0.247142 0.963757 0.068789
H33   H     H_    0.251839 0.240004 0.033677 0.068557
H34   H     H_    0.219972 0.066701 0.371935 0.121987
H35   H     H_    0.666053 0.572970 0.242804 0.117091
H36   H     H_    0.864891 0.765326 0.124682 0.123161
H37   H     H_    0.929975 0.753210 0.962857 0.068740
H38   H     H_    0.299546 0.225735 0.658408 -0.026948
H39   H     H_    0.993645 0.749117 0.878009 0.121908
H40   H     H_    0.041604 0.543713 0.715165 0.121678
H41   H     H_    0.923449 0.765573 0.039812 0.068737
H42   H     H_    0.842753 0.569413 0.400035 0.077018
H43   H     H_    0.361064 0.426983 0.605208 0.038040
H44   H     H_    0.339489 0.958107 0.552601 0.098291
H45   H     H_    0.855914 0.757831 0.571519 -0.039330
H46   H     H_    0.856048 0.049440 0.446371 0.132920
H47   H     H_    0.803976 0.735629 0.476692 0.052426
H48   H     H_    0.388158 0.273563 0.525064 0.053238
H49   H     H_    0.007735 0.184492 0.716600 0.144493
H50   H     H_    0.219192 0.122542 0.722846 0.120265
H51   H     H_    0.346574 0.265255 0.423882 -0.053239
H52   H     H_    0.326386 0.791260 0.660054 0.317729
H53   H     H_    0.482409 0.731027 0.235939 0.303061
H54   H     H_    0.140453 0.269154 0.471854 0.313510
H55   H     H_    0.060525 0.750285 0.548798 0.075588
H56   H     H_    0.903959 0.924891 0.627257 0.116153
H57   H     H_    0.911850 0.939405 0.561866 0.078905
H58   H     H_    0.099545 0.917661 0.599027 0.137706
N1    N     N_R   0.958137 0.507004 0.204075 -0.424753
N2    N     N_R   0.261469 0.499154 0.795993 -0.425063
O1    O     O_2   0.907040 0.557650 0.617910 -0.499532
O2    O     O_2   0.188805 0.883788 0.462011 -0.465977
O3    O     O_3   0.064134 0.856294 0.371741 -0.577973
O4    O     O_3   0.139040 0.557570 0.557730 -0.485598
O5    O     O_3   0.571310 0.369620 0.475470 -0.497663
O6    O     O_2   0.348200 0.764910 0.523260 -0.453479
O7    O     O_3   0.537967 0.806349 0.604370 -0.676028
O8    O     O_2   0.455195 0.512702 0.327379 -0.497193
O9    O     O_3   0.382553 0.715234 0.318297 -0.580143
O10   O     O_2   0.065581 0.332276 0.199217 -0.597755
O11   O     O_2   0.397490 0.331961 0.799420 -0.599013
O12   O     O_3   0.664154 0.222283 0.397155 -0.649447
O13   O     O_2   0.863609 0.683165 0.203095 -0.587488
O14   O     O_2   0.123972 0.667056 0.799039 -0.593059
O15   O     O_3   0.684960 0.360550 0.588460 -0.490429
O16   O     O_2   0.839776 0.422608 0.673038 -0.506671
O17   O     O_3   0.039915 0.729080 0.623623 -0.599862
O18   O     O_3   0.681168 0.264580 0.679240 -0.586627
O19   O     O_2   0.841490 0.235060 0.476710 -0.422630
O20   O     O_3   0.099640 0.305100 0.564190 -0.506488
O21   O     O_2   0.012453 0.115603 0.534556 -0.456255
O22   O     O_3   0.372302 0.718240 0.645385 -0.758083
O23   O     O_3   0.121642 0.136656 0.626847 -0.616483
O24   O     O_3   0.558339 0.760031 0.261992 -0.748727
O25   O     O_3   0.151023 0.202658 0.448638 -0.722706
O26   O     O_2   0.282660 0.442310 0.382060 -0.461298
O27   O     O_3   0.050670 0.442340 0.442260 -0.509552
O28   O     O_3   0.504750 0.639360 0.411530 -0.463331
O29   O     O_3   0.145150 0.271314 0.373985 -0.641786
O30   O     O_3   0.618400 0.630290 0.524520 -0.487795
O31   O     O_3   0.090070 0.694820 0.435810 -0.465709
P1    P     P_3+3 0.072810 0.589830 0.610360 1.041422
P2    P     P_3+3 0.661990 0.251250 0.462170 0.978725
P3    P     P_3+3 0.146513 0.167465 0.566350 0.960604
P4    P     P_3+3 0.116900 0.410080 0.389630 0.980494
P5    P     P_3+3 0.046525 0.833433 0.433724 0.992233
P6    P     P_3+3 0.675830 0.385740 0.653608 0.956159
P7    P     P_3+3 0.532935 0.764401 0.540050 0.951378
P8    P     P_3+3 0.521558 0.618006 0.345812 0.973174

loop_
_geom_bond_atom_site_label_1
_geom_bond_atom_site_label_2
_ccdc_geom_bond_type
C59   H6    S    
Ba2   O26   S    
C19   C24   A    
C12   O18   S    
C57   H57   S    
C57   H56   S    
O21   P3    D    
C61   H24   S    
Ba1   P1    S    
C1    H4    S    
Ba1   O4    S    
C1    H15   S    
C16   H50   S    
O18   P6    S    
O5    P2    S    
C31   P1    S    
C48   P3    S    
C60   H22   S    
C24   C25   A    
Ba2   O31   S    
H53   O24   S    
C60   O9    S    
C33   N2    S    
C17   C19   A    
Ba1   O1    S    
Ba1   Ba2   S    
C35   C38   A    
Ba1   O5    S    
C34   H13   S    
C40   H34   S    
C36   C37   A    
C10   C62   A    
C27   N2    Am   
Ba2   O5    S    
C54   C55   A    
C7    H28   S    
C23   H10   S    
C45   H18   S    
C22   C27   A    
C11   C38   A    
C17   C35   A    
C2    O13   D    
C9    C13   A    
C25   C42   A    
C46   C49   A    
C3    H35   S    
C58   H3    S    
C6    C7    D    
C44   C53   A    
C21   C22   A    
C23   O22   S    
C7    C8    S    
C58   O12   S    
C52   C57   S    
Ba1   O15   S    
O1    P1    D    
C14   H42   S    
C37   C43   A    
C59   H7    S    
C57   H58   S    
C46   C48   A    
C58   H2    S    
C6    C14   D    
C60   O24   S    
C52   H55   S    
C15   C31   D    
C32   C33   S    
O9    P8    S    
C16   H49   S    
C42   H39   S    
C43   H41   S    
O19   P2    D    
C47   H44   S    
C28   H51   S    
C51   C53   A    
Ba2   O28   S    
C4    C16   S    
C62   O10   D    
O26   P4    D    
C49   C50   A    
O15   P6    S    
C17   C20   A    
C26   O14   D    
C13   C39   A    
C8    N1    S    
C38   H33   S    
C3    C5    S    
C18   C37   A    
Ba2   P4    S    
C28   O25   S    
O7    P7    S    
O16   P6    D    
C4    H26   S    
C5    P8    S    
C49   P2    S    
C32   H40   S    
C52   H45   S    
C11   H29   S    
C58   C59   S    
O27   P4    S    
O29   P4    S    
H54   O25   S    
C41   C42   A    
C41   H37   S    
C35   C36   A    
Ba1   O19   S    
C34   H11   S    
C56   H20   S    
C29   C30   S    
C30   P6    S    
C61   H25   S    
C60   C61   S    
C31   C32   D    
C39   H36   S    
C18   C19   A    
C55   H46   S    
C1    C12   S    
O12   P2    S    
C16   H16   S    
C5    C14   S    
C27   O11   D    
C29   C33   D    
O20   P3    S    
C23   O7    S    
C56   H21   S    
C18   C41   A    
C50   C51   A    
C59   H5    S    
Ba2   O27   S    
C46   H48   S    
O31   P5    S    
C20   H32   S    
O30   P7    S    
C53   P7    S    
C22   C24   A    
C44   C54   A    
C9    C10   A    
C26   N2    Am   
O17   P1    S    
C45   O3    S    
O2    P5    D    
C29   H30   S    
C40   H12   S    
C12   H8    S    
C2    C13   A    
C15   H43   S    
O8    P8    D    
C3    C8    D    
C54   P5    S    
Ba1   O20   S    
C34   H14   S    
C56   H19   S    
C45   C56   S    
H52   O22   S    
C4    O23   S    
C6    P4    S    
O6    P7    D    
C45   H17   S    
C47   C51   A    
Ba1   P2    S    
Ba2   O6    S    
C12   H1    S    
C21   H31   S    
Ba1   O27   S    
C4    H38   S    
Ba1   O30   S    
C1    H9    S    
C28   O29   S    
O28   P8    S    
C50   C55   A    
O4    P1    S    
C23   C34   S    
C62   N1    Am   
C52   O17   S    
C10   C11   A    
C2    N1    Am   
Ba2   O30   S    
C47   C48   A    
C61   H27   S    
C25   C26   A    
C15   C30   S    
C39   C43   A    
C20   C21   A    
C28   C40   S    
C9    C36   A    
C40   H23   S    
C44   H47   S    
O23   P3    S    
O3    P5    S    
Ba2   O4    S    
