data_mof_unit_61075.cif
_audit_creation_date              2012-12-10T17:44:23-0500
_audit_creation_method            fapswitch 2.2
_symmetry_space_group_name_H-M    P1
_symmetry_Int_Tables_number       1
_space_group_crystal_system       monoclinic
_cell_length_a                    43.95792
_cell_length_b                    30.42662
_cell_length_c                    31.953817
_cell_angle_alpha                 90.0
_cell_angle_beta                  136.25154
_cell_angle_gamma                 90.0
_cell_volume                      29553.0139274

loop_
_atom_site_label
_atom_site_type_symbol
_atom_type_description
_atom_site_fract_x
_atom_site_fract_y
_atom_site_fract_z
_atom_type_partial_charge
C1    C     C_R   0.584894 0.999944 0.086208 0.780147
C2    C     C_R   0.415106 0.999944 0.913792 0.780147
C3    C     C_R   0.084894 0.499944 0.086208 0.780147
C4    C     C_R   0.915106 0.499944 0.913792 0.780148
C5    C     C_3   0.500738 0.000813 0.292027 0.090413
C6    C     C_3   0.499262 0.000813 0.707973 0.090413
C7    C     C_3   0.000738 0.500813 0.292027 0.090412
C8    C     C_3   0.999262 0.500813 0.707973 0.090412
C9    C     C_3   0.458593 0.006200 0.195035 -0.185471
C10   C     C_3   0.541408 0.006200 0.804965 -0.185471
C11   C     C_3   0.958592 0.506200 0.195035 -0.185471
C12   C     C_3   0.041408 0.506200 0.804965 -0.185471
C13   C     C_3   0.484223 0.039361 0.248311 -0.222172
C14   C     C_3   0.515777 0.039361 0.751689 -0.222171
C15   C     C_3   0.984224 0.539361 0.248311 -0.222171
C16   C     C_3   0.015777 0.539361 0.751689 -0.222171
C17   C     C_1   0.499451 0.000274 0.162142 -0.073285
C18   C     C_1   0.500549 0.000274 0.837858 -0.073285
C19   C     C_1   0.999451 0.500274 0.162142 -0.073285
C20   C     C_1   0.000549 0.500274 0.837858 -0.073285
C21   C     C_1   0.500590 0.001004 0.337800 -0.082856
C22   C     C_1   0.499410 0.001004 0.662200 -0.082856
C23   C     C_1   0.000590 0.501004 0.337800 -0.082856
C24   C     C_1   0.999410 0.501004 0.662200 -0.082856
C25   C     C_R   0.701749 0.026257 0.174991 -0.173224
C26   C     C_R   0.298250 0.026257 0.825009 -0.173224
C27   C     C_R   0.201749 0.526258 0.174991 -0.173224
C28   C     C_R   0.798250 0.526257 0.825009 -0.173225
C29   C     C_R   0.655994 0.025955 0.129917 -0.221083
C30   C     C_R   0.344006 0.025955 0.870083 -0.221083
C31   C     C_R   0.155994 0.525955 0.129917 -0.221083
C32   C     C_R   0.844006 0.525955 0.870083 -0.221082
C33   C     C_R   0.633044 0.999992 0.136014 -0.043259
C34   C     C_R   0.366956 0.999992 0.863986 -0.043259
C35   C     C_R   0.133044 0.499992 0.136014 -0.043260
C36   C     C_R   0.866956 0.499992 0.863986 -0.043259
C37   C     C_R   0.656549 0.974703 0.189225 0.148067
C38   C     C_R   0.343451 0.974703 0.810775 0.148068
C39   C     C_R   0.156549 0.474703 0.189225 0.148067
C40   C     C_R   0.843451 0.474703 0.810775 0.148068
C41   C     C_R   0.702642 0.975010 0.233871 -0.193749
C42   C     C_R   0.297358 0.975010 0.766129 -0.193749
C43   C     C_R   0.202642 0.475009 0.233871 -0.193749
C44   C     C_R   0.797358 0.475010 0.766129 -0.193748
C45   C     C_R   0.499576 0.999977 0.079714 0.813726
C46   C     C_R   0.500424 0.999977 0.920286 0.813726
C47   C     C_R   0.999576 0.499978 0.079714 0.813726
C48   C     C_R   0.000424 0.499978 0.920286 0.813726
C49   C     C_R   0.725399 0.000685 0.227170 0.064866
C50   C     C_R   0.274601 0.000685 0.772830 0.064866
C51   C     C_R   0.225399 0.500685 0.227170 0.064866
C52   C     C_R   0.774601 0.500685 0.772830 0.064866
C53   C     C_R   0.797299 0.003273 0.336194 -0.172450
C54   C     C_R   0.202701 0.003274 0.663806 -0.172450
C55   C     C_R   0.297299 0.503273 0.336194 -0.172450
C56   C     C_R   0.702701 0.503274 0.663806 -0.172450
C57   C     C_R   0.843110 0.002934 0.381627 -0.186564
C58   C     C_R   0.156890 0.002934 0.618372 -0.186564
C59   C     C_R   0.343110 0.502934 0.381628 -0.186564
C60   C     C_R   0.656890 0.502934 0.618372 -0.186564
C61   C     C_R   0.866312 0.000505 0.366766 -0.032386
C62   C     C_R   0.133688 0.000505 0.633234 -0.032385
C63   C     C_R   0.366312 0.500505 0.366766 -0.032386
C64   C     C_R   0.633688 0.500505 0.633234 -0.032385
C65   C     C_R   0.842888 0.998596 0.305648 -0.188292
C66   C     C_R   0.157112 0.998596 0.694352 -0.188292
C67   C     C_R   0.342888 0.498596 0.305648 -0.188292
C68   C     C_R   0.657112 0.498596 0.694352 -0.188292
C69   C     C_R   0.797041 0.998868 0.260200 -0.170796
C70   C     C_R   0.202959 0.998868 0.739800 -0.170796
C71   C     C_R   0.297041 0.498868 0.260200 -0.170796
C72   C     C_R   0.702959 0.498868 0.739800 -0.170796
C73   C     C_R   0.773888 0.001074 0.275126 0.117992
C74   C     C_R   0.226112 0.001074 0.724874 0.117992
C75   C     C_R   0.273888 0.501074 0.275126 0.117992
C76   C     C_R   0.726112 0.501073 0.724874 0.117992
C77   C     C_R   0.500000 0.914772 0.500000 0.786321
C78   C     C_R   1.000000 0.414772 0.500000 0.786321
C79   C     C_R   0.500086 0.000377 0.419915 0.826307
C80   C     C_R   0.499914 0.000377 0.580085 0.826307
C81   C     C_R   0.000086 0.500377 0.419915 0.826307
C82   C     C_R   0.999914 0.500377 0.580085 0.826307
C83   C     C_R   0.500000 0.084999 0.500000 0.784231
C84   C     C_R   1.000000 0.584998 0.500000 0.784231
C85   C     C_3   0.541653 0.995390 0.304673 0.102135
C86   C     C_3   0.458347 0.995390 0.695327 0.102134
C87   C     C_3   0.041653 0.495390 0.304673 0.102134
C88   C     C_3   0.958347 0.495390 0.695327 0.102134
C89   C     C_R   0.000000 0.085145 0.500000 0.799014
C90   C     C_R   0.500000 0.585145 0.500000 0.799014
C91   C     C_R   0.914687 0.000088 0.414807 0.797190
C92   C     C_R   0.085313 0.000088 0.585193 0.797190
C93   C     C_R   0.414687 0.500088 0.414807 0.797190
C94   C     C_R   0.585313 0.500088 0.585193 0.797190
C95   C     C_R   1.000000 0.914698 0.500000 0.795580
C96   C     C_R   0.500000 0.414698 0.500000 0.795580
C97   C     C_R   0.473464 0.796720 0.501700 -0.197944
C98   C     C_R   0.526536 0.796720 0.498300 -0.197944
C99   C     C_R   0.973464 0.296720 0.501700 -0.197944
C100  C     C_R   0.026536 0.296720 0.498300 -0.197944
C101  C     C_R   0.473103 0.842677 0.502068 0.065294
C102  C     C_R   0.526896 0.842677 0.497932 0.065294
C103  C     C_R   0.973103 0.342677 0.502068 0.065295
C104  C     C_R   0.026896 0.342677 0.497932 0.065294
C105  C     C_R   0.500000 0.866295 0.500000 -0.069502
C106  C     C_R   1.000000 0.366296 0.500000 -0.069501
C107  C     C_R   0.500000 0.773757 0.500000 0.044477
C108  C     C_R   0.000000 0.273757 0.500000 0.044477
C109  C     C_R   0.997764 0.202292 0.459890 -0.172555
C110  C     C_R   0.002236 0.202292 0.540110 -0.172556
C111  C     C_R   0.497764 0.702292 0.459890 -0.172555
C112  C     C_R   0.502236 0.702292 0.540110 -0.172556
C113  C     C_R   0.997800 0.156565 0.459912 -0.189252
C114  C     C_R   0.002200 0.156565 0.540088 -0.189252
C115  C     C_R   0.497800 0.656566 0.459912 -0.189253
C116  C     C_R   0.502200 0.656566 0.540088 -0.189252
C117  C     C_R   0.000000 0.133347 0.500000 -0.030933
C118  C     C_R   0.500000 0.633347 0.500000 -0.030933
C119  C     C_3   0.525274 0.033758 0.260854 0.133186
C120  C     C_3   0.474726 0.033758 0.739146 0.133186
C121  C     C_3   0.025274 0.533758 0.260855 0.133186
C122  C     C_3   0.974726 0.533758 0.739146 0.133186
C123  C     C_R   0.000000 0.225453 0.500000 0.126795
C124  C     C_R   0.500000 0.725453 0.500000 0.126795
C125  C     C_R   0.462624 0.202469 0.449648 -0.171767
C126  C     C_R   0.537376 0.202469 0.550352 -0.171767
C127  C     C_R   0.962624 0.702469 0.449648 -0.171767
C128  C     C_R   0.037376 0.702469 0.550352 -0.171767
C129  C     C_R   0.462483 0.156632 0.449836 -0.186056
C130  C     C_R   0.537517 0.156632 0.550164 -0.186055
C131  C     C_R   0.962483 0.656632 0.449836 -0.186056
C132  C     C_R   0.037517 0.656632 0.550164 -0.186056
C133  C     C_R   0.500000 0.133343 0.500000 -0.027057
C134  C     C_R   1.000000 0.633343 0.500000 -0.027057
C135  C     C_R   0.500000 0.225668 0.500000 0.101237
C136  C     C_R   1.000000 0.725668 0.500000 0.101237
C137  C     C_R   0.013177 0.797240 0.548894 -0.170277
C138  C     C_R   0.986823 0.797240 0.451106 -0.170277
C139  C     C_R   0.513177 0.297240 0.548894 -0.170277
C140  C     C_R   0.486823 0.297240 0.451106 -0.170277
C141  C     C_R   0.012831 0.843077 0.548677 -0.185406
C142  C     C_R   0.987169 0.843077 0.451323 -0.185406
C143  C     C_R   0.512831 0.343077 0.548677 -0.185406
C144  C     C_R   0.487169 0.343077 0.451323 -0.185407
C145  C     C_R   0.000000 0.866361 0.500000 -0.030248
C146  C     C_R   0.500000 0.366361 0.500000 -0.030247
C147  C     C_R   1.000000 0.774041 0.500000 0.101436
C148  C     C_R   0.500000 0.274041 0.500000 0.101436
C149  C     C_1   0.499416 0.000054 0.124417 -0.190470
C150  C     C_1   0.500584 0.000054 0.875583 -0.190470
C151  C     C_1   0.999416 0.500054 0.124417 -0.190470
C152  C     C_1   0.000584 0.500054 0.875583 -0.190470
C153  C     C_1   0.500369 0.000843 0.375297 -0.171956
C154  C     C_1   0.499630 0.000843 0.624703 -0.171956
C155  C     C_1   0.000369 0.500843 0.375297 -0.171956
C156  C     C_1   0.999631 0.500843 0.624703 -0.171956
C157  C     C_3   0.516255 0.962031 0.251838 -0.225361
C158  C     C_3   0.483745 0.962031 0.748162 -0.225362
C159  C     C_3   0.016255 0.462031 0.251838 -0.225362
C160  C     C_3   0.983745 0.462031 0.748162 -0.225361
C161  C     C_3   0.499790 0.000692 0.208326 0.107610
C162  C     C_3   0.500210 0.000692 0.791674 0.107611
C163  C     C_3   0.999790 0.500692 0.208326 0.107610
C164  C     C_3   0.000210 0.500692 0.791674 0.107611
C165  C     C_3   0.475358 0.968058 0.239380 0.129638
C166  C     C_3   0.524642 0.968058 0.760619 0.129638
C167  C     C_3   0.975358 0.468058 0.239380 0.129639
C168  C     C_3   0.024642 0.468057 0.760619 0.129638
Cu1   Cu    Cu3+1 0.500000 0.955920 0.000000 0.926814
Cu2   Cu    Cu3+1 0.000000 0.455920 0.000000 0.926814
Cu3   Cu    Cu3+1 0.500000 0.044010 0.000000 0.943940
Cu4   Cu    Cu3+1 1.000000 0.544010 0.000000 0.943940
Cu5   Cu    Cu3+1 0.544020 0.999870 0.544020 0.931669
Cu6   Cu    Cu3+1 0.455980 0.999870 0.455980 0.931669
Cu7   Cu    Cu3+1 0.044020 0.499870 0.544020 0.931669
Cu8   Cu    Cu3+1 0.955980 0.499870 0.455980 0.931670
Cu9   Cu    Cu3+1 0.999970 0.999960 0.541410 0.933054
Cu10  Cu    Cu3+1 0.000030 0.999960 0.458590 0.933054
Cu11  Cu    Cu3+1 0.499970 0.499960 0.541410 0.933054
Cu12  Cu    Cu3+1 0.500030 0.499960 0.458590 0.933054
H1    H     H_    0.720940 0.955383 0.274366 0.127234
H2    H     H_    0.279060 0.955383 0.725634 0.127234
H3    H     H_    0.220940 0.455383 0.274366 0.127235
H4    H     H_    0.779060 0.455383 0.725633 0.127234
H5    H     H_    0.780157 0.005666 0.348788 0.126302
H6    H     H_    0.219843 0.005666 0.651212 0.126302
H7    H     H_    0.280157 0.505666 0.348788 0.126302
H8    H     H_    0.719843 0.505666 0.651212 0.126302
H9    H     H_    0.859939 0.996636 0.292895 0.150499
H10   H     H_    0.140061 0.996636 0.707105 0.150499
H11   H     H_    0.359939 0.496637 0.292894 0.150499
H12   H     H_    0.640061 0.496636 0.707105 0.150499
H13   H     H_    0.779671 0.996681 0.213419 0.126212
H14   H     H_    0.220329 0.996681 0.786581 0.126212
H15   H     H_    0.279671 0.496681 0.213419 0.126212
H16   H     H_    0.720329 0.496681 0.786581 0.126212
H17   H     H_    0.452923 0.778512 0.502929 0.129956
H18   H     H_    0.547077 0.778512 0.497071 0.129956
H19   H     H_    0.952923 0.278512 0.502929 0.129956
H20   H     H_    0.047077 0.278512 0.497071 0.129956
H21   H     H_    0.995485 0.219580 0.428071 0.126238
H22   H     H_    0.004515 0.219580 0.571929 0.126238
H23   H     H_    0.495485 0.719580 0.428071 0.126238
H24   H     H_    0.504515 0.719580 0.571929 0.126238
H25   H     H_    0.995917 0.139454 0.428377 0.151357
H26   H     H_    0.004083 0.139454 0.571623 0.151357
H27   H     H_    0.495917 0.639454 0.428377 0.151357
H28   H     H_    0.504083 0.639454 0.571623 0.151357
H29   H     H_    0.433384 0.219860 0.410523 0.128857
H30   H     H_    0.566616 0.219860 0.589477 0.128857
H31   H     H_    0.933384 0.719860 0.410523 0.128857
H32   H     H_    0.066616 0.719860 0.589477 0.128857
H33   H     H_    0.433193 0.139433 0.410519 0.148828
H34   H     H_    0.566807 0.139433 0.589481 0.148828
H35   H     H_    0.933193 0.639433 0.410519 0.148828
H36   H     H_    0.066807 0.639433 0.589481 0.148828
H37   H     H_    0.022998 0.860284 0.586831 0.147598
H38   H     H_    0.977002 0.860283 0.413169 0.147598
H39   H     H_    0.522998 0.360283 0.586831 0.147598
H40   H     H_    0.477002 0.360283 0.413169 0.147599
H41   H     H_    0.471166 0.070993 0.247392 0.138537
H42   H     H_    0.528834 0.070993 0.752608 0.138537
H43   H     H_    0.971166 0.570993 0.247393 0.138537
H44   H     H_    0.028835 0.570993 0.752608 0.138537
H45   H     H_    0.529130 0.930295 0.252634 0.129427
H46   H     H_    0.470870 0.930295 0.747365 0.129428
H47   H     H_    0.029129 0.430295 0.252634 0.129428
H48   H     H_    0.970870 0.430295 0.747365 0.129427
H49   H     H_    0.718680 0.046809 0.169312 0.134181
H50   H     H_    0.281320 0.046809 0.830688 0.134181
H51   H     H_    0.218680 0.546809 0.169312 0.134181
H52   H     H_    0.781320 0.546808 0.830688 0.134181
O1    O     O_R   0.564270 0.962770 0.064270 -0.592073
O2    O     O_R   0.435730 0.962770 0.935730 -0.592074
O3    O     O_R   0.064270 0.462770 0.064270 -0.592074
O4    O     O_R   0.935730 0.462770 0.935730 -0.592074
O5    O     O_R   0.935700 0.999950 0.470690 -0.589521
O6    O     O_R   0.064300 0.999950 0.529310 -0.589522
O7    O     O_R   0.435700 0.499950 0.470690 -0.589521
O8    O     O_R   0.564300 0.499950 0.529310 -0.589522
O9    O     O_R   0.935690 0.999950 0.400690 -0.591540
O10   O     O_R   0.064310 0.999950 0.599310 -0.591542
O11   O     O_R   0.435690 0.499950 0.400690 -0.591540
O12   O     O_R   0.564310 0.499950 0.599310 -0.591542
O13   O     O_R   0.000020 0.935690 0.535010 -0.588621
O14   O     O_R   0.999980 0.935690 0.464990 -0.588622
O15   O     O_R   0.500020 0.435690 0.535010 -0.588622
O16   O     O_R   0.499980 0.435690 0.464990 -0.588622
O17   O     O_R   0.564210 0.037160 0.064210 -0.583066
O18   O     O_R   0.435790 0.037160 0.935790 -0.583065
O19   O     O_R   0.064210 0.537160 0.064210 -0.583066
O20   O     O_R   0.935790 0.537160 0.935790 -0.583065
O21   O     O_R   0.500000 0.962770 0.060460 -0.582109
O22   O     O_R   0.500000 0.962770 0.939540 -0.582110
O23   O     O_R   0.000000 0.462770 0.060460 -0.582110
O24   O     O_R   0.000000 0.462770 0.939540 -0.582110
O25   O     O_R   0.499940 0.037170 0.060400 -0.579874
O26   O     O_R   0.500060 0.037170 0.939600 -0.579873
O27   O     O_R   0.999940 0.537170 0.060400 -0.579874
O28   O     O_R   0.000060 0.537170 0.939600 -0.579873
O29   O     O_R   0.537150 0.935610 0.537150 -0.593561
O30   O     O_R   0.462850 0.935610 0.462850 -0.593560
O31   O     O_R   0.037150 0.435610 0.537150 -0.593561
O32   O     O_R   0.962850 0.435610 0.462850 -0.593560
O33   O     O_R   0.537160 0.999880 0.476700 -0.580891
O34   O     O_R   0.462840 0.999880 0.523300 -0.580891
O35   O     O_R   0.037160 0.499880 0.476700 -0.580892
O36   O     O_R   0.962840 0.499880 0.523300 -0.580891
O37   O     O_R   0.462760 0.999960 0.402300 -0.582562
O38   O     O_R   0.537240 0.999960 0.597700 -0.582562
O39   O     O_R   0.962760 0.499960 0.402300 -0.582562
O40   O     O_R   0.037240 0.499960 0.597700 -0.582562
O41   O     O_R   0.537180 0.064140 0.537190 -0.588627
O42   O     O_R   0.462820 0.064140 0.462810 -0.588626
O43   O     O_R   0.037180 0.564140 0.537190 -0.588627
O44   O     O_R   0.962820 0.564140 0.462810 -0.588626
O45   O     O_R   0.999920 0.064220 0.534910 -0.591113
O46   O     O_R   0.000080 0.064220 0.465090 -0.591113
O47   O     O_R   0.499920 0.564220 0.534910 -0.591113
O48   O     O_R   0.500080 0.564220 0.465090 -0.591113
C169  C     C_3   0.550858 0.072380 0.267622 -0.409224
C170  C     C_3   0.571663 0.101219 0.322235 -0.351973
C171  C     C_3   0.595686 0.140304 0.326837 -0.846174
H53   H     H_    0.622330 0.128722 0.332221 0.253163
H54   H     H_    0.572371 0.161076 0.285625 0.253914
H55   H     H_    0.610535 0.160576 0.366800 0.241280
H56   H     H_    0.545740 0.113636 0.317966 0.218412
H57   H     H_    0.595605 0.081791 0.364544 0.221235
H58   H     H_    0.576549 0.059650 0.271687 0.187650
H59   H     H_    0.527639 0.092502 0.225708 0.203748
C172  C     C_3   0.449142 0.072380 0.732378 -0.409223
C173  C     C_3   0.428338 0.101219 0.677766 -0.351970
C174  C     C_3   0.404314 0.140305 0.673164 -0.846174
H60   H     H_    0.377670 0.128723 0.667779 0.253163
H61   H     H_    0.427630 0.161076 0.714375 0.253914
H62   H     H_    0.389465 0.160576 0.633200 0.241280
H63   H     H_    0.454261 0.113636 0.682035 0.218411
H64   H     H_    0.404395 0.081791 0.635456 0.221234
H65   H     H_    0.423451 0.059650 0.728313 0.187649
H66   H     H_    0.472362 0.092502 0.774292 0.203748
C175  C     C_3   0.050859 0.572380 0.267623 -0.409223
C176  C     C_3   0.071663 0.601218 0.322236 -0.351971
C177  C     C_3   0.095688 0.640303 0.326839 -0.846175
H67   H     H_    0.122332 0.628721 0.332224 0.253163
H68   H     H_    0.072373 0.661075 0.285627 0.253914
H69   H     H_    0.110537 0.660575 0.366802 0.241280
H70   H     H_    0.045740 0.613636 0.317966 0.218411
H71   H     H_    0.095605 0.581790 0.364545 0.221234
H72   H     H_    0.076549 0.559650 0.271688 0.187650
H73   H     H_    0.027640 0.592502 0.225709 0.203748
C178  C     C_3   0.949142 0.572380 0.732378 -0.409223
C179  C     C_3   0.928338 0.601219 0.677766 -0.351972
C180  C     C_3   0.904315 0.640305 0.673164 -0.846175
H74   H     H_    0.877671 0.628723 0.667780 0.253164
H75   H     H_    0.927631 0.661076 0.714376 0.253914
H76   H     H_    0.889466 0.660576 0.633201 0.241280
H77   H     H_    0.954261 0.613636 0.682034 0.218412
H78   H     H_    0.904395 0.581791 0.635456 0.221235
H79   H     H_    0.923452 0.559651 0.728314 0.187650
H80   H     H_    0.972362 0.592502 0.774293 0.203748
H81   H     H_    0.860311 0.004704 0.428352 0.151139
H82   H     H_    0.139689 0.004704 0.571648 0.151138
H83   H     H_    0.360311 0.504703 0.428352 0.151139
H84   H     H_    0.639689 0.504704 0.571648 0.151138
C181  C     C_3   0.445060 0.864594 0.507524 -0.406716
C182  C     C_3   0.473385 0.880741 0.572224 -0.328368
C183  C     C_3   0.444845 0.900345 0.578403 -0.868677
H85   H     H_    0.426552 0.929366 0.548308 0.264104
H86   H     H_    0.421067 0.875556 0.566584 0.248965
H87   H     H_    0.465993 0.910848 0.625838 0.237476
H88   H     H_    0.492379 0.852729 0.604261 0.215245
H89   H     H_    0.497107 0.905958 0.584822 0.211535
H90   H     H_    0.425061 0.891647 0.474448 0.223667
H91   H     H_    0.420595 0.840784 0.495751 0.187585
C184  C     C_3   0.554939 0.864594 0.492476 -0.406716
C185  C     C_3   0.526614 0.880741 0.427776 -0.328368
C186  C     C_3   0.555154 0.900345 0.421596 -0.868675
H92   H     H_    0.573448 0.929366 0.451691 0.264104
H93   H     H_    0.578932 0.875556 0.433416 0.248964
H94   H     H_    0.534007 0.910848 0.374161 0.237476
H95   H     H_    0.507621 0.852729 0.395738 0.215245
H96   H     H_    0.502893 0.905958 0.415177 0.211535
H97   H     H_    0.574938 0.891646 0.525552 0.223667
H98   H     H_    0.579405 0.840784 0.504249 0.187584
C187  C     C_3   0.945060 0.364594 0.507524 -0.406717
C188  C     C_3   0.973385 0.380741 0.572224 -0.328368
C189  C     C_3   0.944845 0.400345 0.578403 -0.868677
H99   H     H_    0.926552 0.429366 0.548308 0.264104
H100  H     H_    0.921067 0.375556 0.566584 0.248965
H101  H     H_    0.965993 0.410848 0.625838 0.237476
H102  H     H_    0.992379 0.352729 0.604261 0.215245
H103  H     H_    0.997106 0.405958 0.584822 0.211535
H104  H     H_    0.925061 0.391647 0.474448 0.223667
H105  H     H_    0.920595 0.340784 0.495751 0.187584
C190  C     C_3   0.054939 0.364594 0.492476 -0.406716
C191  C     C_3   0.026614 0.380741 0.427776 -0.328369
C192  C     C_3   0.055154 0.400344 0.421596 -0.868680
H106  H     H_    0.073448 0.429366 0.451691 0.264105
H107  H     H_    0.078932 0.375555 0.433415 0.248966
H108  H     H_    0.034006 0.410848 0.374161 0.237477
H109  H     H_    0.007621 0.352729 0.395738 0.215245
H110  H     H_    0.002893 0.405958 0.415177 0.211535
H111  H     H_    0.074938 0.391647 0.525551 0.223667
H112  H     H_    0.079405 0.340784 0.504248 0.187585
C193  C     C_3   0.587816 0.986578 0.367733 -0.415625
C194  C     C_3   0.622048 0.982699 0.366743 -0.348726
C195  C     C_3   0.666552 0.968289 0.428215 -0.851211
H113  H     H_    0.678640 0.992423 0.463645 0.254672
H114  H     H_    0.663824 0.935419 0.440412 0.252729
H115  H     H_    0.690765 0.966260 0.426322 0.239515
H116  H     H_    0.611010 0.958362 0.332045 0.222091
H117  H     H_    0.626298 0.014960 0.355405 0.220867
H118  H     H_    0.597155 0.013238 0.398994 0.192226
H119  H     H_    0.586794 0.955338 0.384610 0.207326
C196  C     C_3   0.412184 0.986578 0.632267 -0.415625
C197  C     C_3   0.377952 0.982699 0.633257 -0.348726
C198  C     C_3   0.333447 0.968290 0.571785 -0.851210
H120  H     H_    0.321359 0.992423 0.536355 0.254672
H121  H     H_    0.336176 0.935419 0.559588 0.252728
H122  H     H_    0.309235 0.966261 0.573678 0.239515
H123  H     H_    0.388990 0.958363 0.667955 0.222091
H124  H     H_    0.373701 0.014961 0.644595 0.220867
H125  H     H_    0.402845 0.013238 0.601006 0.192226
H126  H     H_    0.413206 0.955338 0.615390 0.207325
C199  C     C_3   0.087816 0.486577 0.367732 -0.415624
C200  C     C_3   0.122048 0.482698 0.366743 -0.348726
C201  C     C_3   0.166552 0.468286 0.428213 -0.851210
H127  H     H_    0.178640 0.492418 0.463645 0.254673
H128  H     H_    0.163822 0.435415 0.440408 0.252728
H129  H     H_    0.190764 0.466258 0.426321 0.239514
H130  H     H_    0.111009 0.458364 0.332042 0.222092
H131  H     H_    0.126300 0.514961 0.355408 0.220867
H132  H     H_    0.097155 0.513237 0.398995 0.192225
H133  H     H_    0.086794 0.455336 0.384609 0.207327
C202  C     C_3   0.912184 0.486578 0.632267 -0.415625
C203  C     C_3   0.877951 0.482699 0.633257 -0.348725
C204  C     C_3   0.833447 0.468291 0.571785 -0.851212
H134  H     H_    0.821359 0.492425 0.536356 0.254672
H135  H     H_    0.836175 0.435421 0.559586 0.252729
H136  H     H_    0.809235 0.466261 0.573677 0.239514
H137  H     H_    0.888989 0.458362 0.667954 0.222090
H138  H     H_    0.873702 0.514960 0.644596 0.220867
H139  H     H_    0.902845 0.513239 0.601006 0.192226
H140  H     H_    0.913206 0.455338 0.615390 0.207325
H141  H     H_    0.023203 0.779850 0.586859 0.128159
H142  H     H_    0.976797 0.779850 0.413141 0.128159
H143  H     H_    0.523203 0.279850 0.586859 0.128159
H144  H     H_    0.476797 0.279850 0.413141 0.128159
H145  H     H_    0.424424 0.010438 0.149503 0.133118
H146  H     H_    0.575576 0.010438 0.850497 0.133118
H147  H     H_    0.924424 0.510439 0.149503 0.133118
H148  H     H_    0.075576 0.510437 0.850497 0.133118
C205  C     C_3   0.446662 0.930849 0.227723 -0.409358
C206  C     C_3   0.425924 0.904351 0.171452 -0.339874
C207  C     C_3   0.397517 0.867070 0.160211 -0.850664
H149  H     H_    0.417765 0.844218 0.199420 0.252379
H150  H     H_    0.370449 0.880448 0.152892 0.253392
H151  H     H_    0.382923 0.848442 0.119248 0.241200
H152  H     H_    0.405103 0.926217 0.131156 0.217969
H153  H     H_    0.452195 0.890148 0.177488 0.218838
H154  H     H_    0.467265 0.908884 0.267825 0.194638
H155  H     H_    0.420412 0.945242 0.221591 0.201730
C208  C     C_3   0.553338 0.930849 0.772276 -0.409358
C209  C     C_3   0.574076 0.904351 0.828548 -0.339875
C210  C     C_3   0.602482 0.867069 0.839788 -0.850664
H156  H     H_    0.582234 0.844218 0.800579 0.252379
H157  H     H_    0.629550 0.880448 0.847107 0.253391
H158  H     H_    0.617077 0.848441 0.880751 0.241201
H159  H     H_    0.594897 0.926217 0.868844 0.217969
H160  H     H_    0.547805 0.890147 0.822512 0.218839
H161  H     H_    0.532735 0.908884 0.732175 0.194638
H162  H     H_    0.579587 0.945241 0.778408 0.201729
C211  C     C_3   0.946662 0.430850 0.227723 -0.409359
C212  C     C_3   0.925923 0.404352 0.171451 -0.339872
C213  C     C_3   0.897516 0.367070 0.160210 -0.850664
H163  H     H_    0.917764 0.344219 0.199419 0.252379
H164  H     H_    0.870448 0.380449 0.152891 0.253391
H165  H     H_    0.882922 0.348443 0.119247 0.241200
H166  H     H_    0.905102 0.426218 0.131155 0.217969
H167  H     H_    0.952194 0.390148 0.177487 0.218838
H168  H     H_    0.967264 0.408885 0.267824 0.194639
H169  H     H_    0.920412 0.445242 0.221591 0.201730
C214  C     C_3   0.053337 0.430849 0.772276 -0.409358
C215  C     C_3   0.074075 0.404351 0.828547 -0.339873
C216  C     C_3   0.102482 0.367069 0.839788 -0.850665
H170  H     H_    0.082234 0.344218 0.800579 0.252379
H171  H     H_    0.129550 0.380447 0.847107 0.253391
H172  H     H_    0.117076 0.348441 0.880751 0.241200
H173  H     H_    0.094897 0.426216 0.868844 0.217969
H174  H     H_    0.047805 0.390147 0.822511 0.218838
H175  H     H_    0.032734 0.408884 0.732174 0.194638
H176  H     H_    0.079587 0.445241 0.778408 0.201730
H177  H     H_    0.638370 0.045700 0.089694 0.146682
H178  H     H_    0.361630 0.045700 0.910306 0.146682
H179  H     H_    0.138370 0.545700 0.089695 0.146682
H180  H     H_    0.861630 0.545700 0.910306 0.146681
C217  C     C_3   0.634001 0.949082 0.201495 -0.424576
C218  C     C_3   0.614935 0.979424 0.216457 -0.329758
C219  C     C_3   0.650841 0.001956 0.277814 -0.821777
H181  H     H_    0.671940 0.977093 0.314434 0.244443
H182  H     H_    0.671514 0.023202 0.278077 0.262095
H183  H     H_    0.635429 0.022912 0.286828 0.223458
H184  H     H_    0.593552 0.004887 0.180925 0.210160
H185  H     H_    0.594259 0.959494 0.217430 0.204116
H186  H     H_    0.607581 0.928106 0.162135 0.192621
H187  H     H_    0.657364 0.925810 0.239781 0.186777
C220  C     C_3   0.365999 0.949082 0.798505 -0.424577
C221  C     C_3   0.385065 0.979424 0.783543 -0.329756
C222  C     C_3   0.349159 0.001957 0.722186 -0.821777
H188  H     H_    0.328060 0.977093 0.685566 0.244443
H189  H     H_    0.328486 0.023202 0.721923 0.262094
H190  H     H_    0.364571 0.022912 0.713172 0.223458
H191  H     H_    0.406448 0.004887 0.819075 0.210160
H192  H     H_    0.405741 0.959494 0.782570 0.204115
H193  H     H_    0.392419 0.928106 0.837865 0.192621
H194  H     H_    0.342636 0.925810 0.760219 0.186777
C223  C     C_3   0.134001 0.449081 0.201495 -0.424576
C224  C     C_3   0.114935 0.479423 0.216457 -0.329755
C225  C     C_3   0.150841 0.501955 0.277814 -0.821778
H195  H     H_    0.171940 0.477092 0.314434 0.244443
H196  H     H_    0.171514 0.523201 0.278077 0.262094
H197  H     H_    0.135429 0.522911 0.286828 0.223458
H198  H     H_    0.093552 0.504886 0.180925 0.210160
H199  H     H_    0.094258 0.459493 0.217430 0.204115
H200  H     H_    0.107581 0.428106 0.162134 0.192621
H201  H     H_    0.157364 0.425809 0.239781 0.186777
C226  C     C_3   0.865999 0.449082 0.798505 -0.424576
C227  C     C_3   0.885065 0.479424 0.783543 -0.329758
C228  C     C_3   0.849159 0.501957 0.722186 -0.821778
H202  H     H_    0.828060 0.477094 0.685566 0.244443
H203  H     H_    0.828486 0.523203 0.721923 0.262094
H204  H     H_    0.864571 0.522913 0.713172 0.223459
H205  H     H_    0.906448 0.504888 0.819075 0.210160
H206  H     H_    0.905741 0.459495 0.782570 0.204116
H207  H     H_    0.892419 0.428107 0.837865 0.192621
H208  H     H_    0.842636 0.425810 0.760219 0.186777

loop_
_geom_bond_atom_site_label_1
_geom_bond_atom_site_label_2
_ccdc_geom_bond_type
C99   C103  A    
C219  H181  S    
C4    C36   S    
C192  H106  S    
C23   C155  T    
C4    O4    A    
C210  H156  S    
C200  H130  S    
C201  H129  S    
C119  C161  S    
C186  H92   S    
C193  H118  S    
C177  H68   S    
C222  H188  S    
C26   H50   S    
C170  C171  S    
C77   O29   A    
C30   H178  S    
C112  C124  A    
C55   C59   A    
C26   C50   A    
C95   O14   A    
C197  H124  S    
C29   C33   A    
C100  C104  A    
C102  C184  S    
C139  H143  S    
C9    C13   S    
C198  H122  S    
C8    C168  S    
C3    O3    A    
Cu10  O14   S    
C11   C15   S    
C199  H133  S    
C172  C173  S    
C1    O1    A    
C70   C74   A    
C182  C183  S    
C132  H36   S    
C83   O42   A    
C158  H46   S    
C5    C13   S    
C141  C145  A    
C87   C199  S    
C7    C15   S    
C8    C16   S    
C218  H185  S    
C11   C167  S    
C173  H63   S    
C107  C124  S    
C103  C187  S    
C104  C106  A    
Cu6   O37   S    
C101  C181  S    
C25   C29   A    
C209  H159  S    
C131  H35   S    
C28   C32   A    
C127  C136  A    
C4    O20   A    
C88   C122  S    
C111  H23   S    
C62   C66   A    
Cu9   O45   S    
C98   C102  A    
C187  H104  S    
C90   O47   A    
C97   H17   S    
C110  C123  A    
Cu6   O30   S    
Cu10  O46   S    
C177  H67   S    
C224  H199  S    
C68   C72   A    
C115  C118  A    
C84   C134  S    
C178  H80   S    
C91   O5    A    
C69   H13   S    
C138  H142  S    
C80   C154  S    
C129  C133  A    
Cu12  O16   S    
C65   H9    S    
C192  H108  S    
C84   O44   A    
C210  H158  S    
C49   C73   S    
C16   H44   S    
C112  H24   S    
C201  H127  S    
C90   C118  S    
C217  H187  S    
C186  H94   S    
Cu9   O5    S    
C222  H190  S    
C48   O28   A    
C125  H29   S    
C214  H175  S    
C111  C124  A    
C78   O32   A    
C58   H82   S    
Cu3   O26   S    
C39   C223  S    
C185  C186  S    
C72   H16   S    
C196  C197  S    
C57   C61   A    
C11   H147  S    
Cu2   O3    S    
Cu3   O17   S    
C59   C63   A    
C110  H22   S    
C60   C64   A    
C204  H135  S    
C64   C94   S    
C193  C194  S    
Cu6   O42   S    
C221  H192  S    
C43   H3    S    
C122  C178  S    
C116  C118  A    
C130  H34   S    
C195  H115  S    
C88   C160  S    
C216  H170  S    
Cu7   O43   S    
Cu8   O36   S    
C184  C185  S    
C97   C107  A    
C125  C129  A    
C5    C21   S    
C132  C134  A    
C126  C130  A    
C120  C172  S    
C18   C150  T    
C194  H116  S    
C212  H167  S    
C24   C156  T    
C208  H162  S    
C213  H164  S    
C6    C22   S    
C46   O26   A    
C176  H71   S    
Cu12  O48   S    
C184  H97   S    
C188  H102  S    
C119  C169  S    
C66   C70   A    
C40   C226  S    
C99   C108  A    
C219  H182  S    
C92   O6    A    
C191  H109  S    
C79   O37   A    
Cu1   O1    S    
Cu2   O23   S    
C80   O34   A    
C64   C68   A    
C167  C211  S    
C3    O19   A    
C144  H40   S    
C50   C74   S    
C166  C208  S    
C1    O17   A    
C180  H75   S    
C79   C153  S    
C109  H21   S    
C121  C163  S    
C122  C164  S    
C179  C180  S    
C226  H207  S    
C157  C161  S    
C85   C119  S    
C142  H38   S    
C16   C122  S    
Cu7   O31   S    
C139  C143  A    
Cu8   O32   S    
C207  H149  S    
C57   H81   S    
C19   C151  T    
C207  H150  S    
C28   H52   S    
C96   O15   A    
C206  H153  S    
Cu10  O9    S    
C5    C85   S    
C44   C52   A    
C160  C168  S    
C215  H174  S    
C170  H56   S    
C32   H180  S    
C54   C74   A    
C171  H55   S    
C227  H206  S    
Cu1   Cu3   S    
C181  H91   S    
C11   C163  S    
C27   C51   A    
C127  C131  A    
Cu9   O13   S    
C139  C148  A    
C100  C108  A    
C218  C219  S    
C30   C34   A    
C12   C16   S    
C10   C14   S    
C157  C165  S    
C183  H86   S    
C37   C217  S    
C109  C123  A    
C211  H169  S    
C215  C216  S    
C8    C88   S    
C113  H25   S    
C216  H172  S    
C174  H60   S    
C61   C65   A    
C6    C14   S    
C71   H15   S    
C3    C35   S    
C10   C166  S    
C10   H146  S    
C89   O45   A    
C19   C163  S    
Cu4   O27   S    
C9    C161  S    
C172  H66   S    
C228  H203  S    
C116  H28   S    
C17   C161  S    
C42   C50   A    
C113  C117  A    
C100  H20   S    
C209  C210  S    
C89   C117  S    
C175  H73   S    
C26   C30   A    
C182  H89   S    
C179  H78   S    
C190  C191  S    
C112  C116  A    
Cu12  O11   S    
C127  H31   S    
C217  C218  S    
C7    C167  S    
C21   C153  T    
C200  H131  S    
C13   H41   S    
C52   C76   S    
C205  H155  S    
C32   C36   A    
C86   C196  S    
C38   C220  S    
C96   C146  S    
C140  H144  S    
Cu4   O19   S    
C81   C155  S    
C204  H134  S    
C95   O13   A    
C189  H101  S    
C137  H141  S    
C93   O7    A    
C7    C23   S    
C66   H10   S    
C8    C24   S    
C96   O16   A    
C37   C41   A    
C224  C225  S    
C198  H121  S    
C114  C117  A    
C143  H39   S    
C40   C44   A    
C199  H132  S    
C221  C222  S    
C104  C190  S    
C10   C162  S    
C165  C205  S    
C171  H53   S    
C81   O35   A    
C82   O36   A    
C83   O41   A    
Cu7   O40   S    
C91   O9    A    
Cu8   O39   S    
C58   C62   A    
C143  C146  A    
C6    C166  S    
C88   C202  S    
C205  C206  S    
C173  H64   S    
C225  H195  S    
C95   C145  S    
C131  C134  A    
Cu5   O33   S    
C212  C213  S    
C225  H197  S    
C42   H2    S    
C209  H160  S    
C190  H112  S    
C25   H49   S    
C125  C135  A    
C160  C164  S    
C174  H62   S    
C29   H177  S    
C128  C136  A    
C54   C58   A    
Cu12  O8    S    
C20   C164  S    
C102  C105  A    
C90   O48   A    
C41   C49   A    
C194  C195  S    
Cu11  O7    S    
C141  H37   S    
C2    O2    A    
C7    C87   S    
C47   O27   A    
C178  H79   S    
C223  H201  S    
C69   C73   A    
C157  H45   S    
C169  H59   S    
C196  H126  S    
C192  H107  S    
C210  H157  S    
C142  C145  A    
C41   H1    S    
C85   C157  S    
C217  H186  S    
C186  H93   S    
C193  H119  S    
C177  H69   S    
C222  H189  S    
C53   C73   A    
C77   O30   A    
Cu3   O25   S    
C203  C204  S    
C80   O38   A    
C144  C146  A    
C138  C142  A    
C204  H136  S    
Cu7   O35   S    
C189  H99   S    
C87   C121  S    
C53   C57   A    
C197  H123  S    
C201  H128  S    
Cu2   O4    S    
C176  H70   S    
C33   C37   A    
C98   C107  A    
C160  H48   S    
C35   C39   A    
C47   O23   A    
C223  C224  S    
C220  H194  S    
C12   C164  S    
Cu1   O21   S    
Cu11  O15   S    
C70   H14   S    
C202  H139  S    
C195  H114  S    
C60   H84   S    
C94   O8    A    
C47   C151  S    
C126  C135  A    
C14   C120  S    
C218  H184  S    
C48   C152  S    
C27   C31   A    
C93   O11   A    
C206  C207  S    
C31   C35   A    
C130  C133  A    
C108  C123  S    
C203  H138  S    
C194  H117  S    
Cu10  O6    S    
C158  C166  S    
C208  H161  S    
C199  C200  S    
C137  C141  A    
C59   H83   S    
C2    C34   S    
C137  C147  A    
C175  C176  S    
C140  C144  A    
C6    C86   S    
C203  H137  S    
C202  C203  S    
C188  H103  S    
C220  H193  S    
C63   C93   S    
C191  H110  S    
Cu2   O24   S    
C187  H105  S    
C77   C105  S    
C200  C201  S    
C9    H145  S    
C183  H85   S    
C168  C214  S    
C128  H32   S    
C18   C162  S    
C43   C51   A    
C180  H74   S    
Cu2   Cu4   S    
C224  H198  S    
C87   C159  S    
C65   C69   A    
C78   C106  S    
C67   C71   A    
C15   H43   S    
C181  C182  S    
C25   C49   A    
Cu11  Cu12  S    
C56   C60   A    
C20   C152  T    
Cu9   Cu10  S    
C54   H6    S    
C84   O43   A    
C99   H19   S    
C46   O22   A    
C178  C179  S    
C170  H57   S    
C56   C76   A    
C115  H27   S    
C214  H176  S    
C171  H54   S    
C78   O31   A    
C181  H90   S    
C195  H113  S    
C72   C76   A    
C140  C148  A    
C1    C33   S    
Cu5   Cu6   S    
Cu3   O18   S    
C173  C174  S    
C51   C75   S    
C38   C42   A    
C45   O25   A    
C2    O18   A    
Cu5   O38   S    
C67   H11   S    
C221  H191  S    
C68   H12   S    
C81   O39   A    
C211  H168  S    
C82   O40   A    
C216  H171  S    
C53   H5    S    
C89   O46   A    
C94   O12   A    
C92   O10   A    
Cu7   Cu8   S    
C62   C92   S    
C185  H96   S    
C5    C165  S    
C48   O24   A    
C172  H65   S    
C228  H202  S    
C44   H4    S    
Cu5   O29   S    
Cu11  O12   S    
C109  C113  A    
Cu6   O34   S    
C213  H165  S    
C82   C156  S    
Cu9   O10   S    
Cu11  O47   S    
C129  H33   S    
C159  C167  S    
Cu8   O44   S    
C31   H179  S    
C184  H98   S    
C13   C119  S    
C101  C105  A    
C219  H183  S    
C63   C67   A    
C202  H140  S    
Cu1   O2    S    
C98   H18   S    
C9    C165  S    
C56   H8    S    
C36   C40   A    
C126  H30   S    
C205  H154  S    
C208  C209  S    
C180  H76   S    
C39   C43   A    
C169  C170  S    
Cu4   O20   S    
C121  C175  S    
C114  H26   S    
C226  H208  S    
C185  H95   S    
C189  H100  S    
C220  C221  S    
C138  C147  A    
C207  H151  S    
C86   C158  S    
C198  H120  S    
C206  H152  S    
Cu5   O41   S    
C27   H51   S    
C46   C150  S    
C215  H173  S    
C211  C212  S    
C85   C193  S    
C159  H47   S    
C227  H205  S    
C159  C163  S    
Cu4   O28   S    
C226  C227  S    
C197  C198  S    
C22   C154  T    
C110  C114  A    
C176  C177  S    
C128  C132  A    
C15   C121  S    
C169  H58   S    
C34   C38   A    
Cu1   O22   S    
C14   H42   S    
C17   C149  T    
C212  H166  S    
C12   C168  S    
C183  H87   S    
C86   C120  S    
C55   H7    S    
C225  H196  S    
C120  C162  S    
C190  H111  S    
C227  C228  S    
C55   C75   A    
C214  C215  S    
C174  H61   S    
C71   C75   A    
C28   C52   A    
C188  C189  S    
C12   H148  S    
C191  C192  S    
C79   O33   A    
C103  C106  A    
C45   C149  S    
C228  H204  S    
C83   C133  S    
C136  C147  S    
C158  C162  S    
C175  H72   S    
C213  H163  S    
C135  C148  S    
C223  H200  S    
C182  H88   S    
C179  H77   S    
C111  C115  A    
C187  C188  S    
C97   C101  A    
C61   C91   S    
C45   O21   A    
C196  H125  S    
