data_mof_unit_22657.cif
_audit_creation_date              2012-12-10T19:45:41-0500
_audit_creation_method            fapswitch 2.2
_symmetry_space_group_name_H-M    P1
_symmetry_Int_Tables_number       1
_space_group_crystal_system       triclinic
_cell_length_a                    10.843968
_cell_length_b                    14.644049
_cell_length_c                    14.771358
_cell_angle_alpha                 65.029301
_cell_angle_beta                  102.557442
_cell_angle_gamma                 103.002475
_cell_volume                      2051.89772067

loop_
_atom_site_label
_atom_site_type_symbol
_atom_type_description
_atom_site_fract_x
_atom_site_fract_y
_atom_site_fract_z
_atom_type_partial_charge
C1    C     C_R   0.478885 0.119672 0.312444 0.795899
C2    C     C_R   0.521081 0.880132 0.687511 0.796936
C3    C     C_R   0.870810 0.001624 0.495464 -0.075038
C4    C     C_R   0.129210 0.999026 0.504068 -0.083074
C5    C     C_R   0.908039 0.958771 0.437809 0.006636
C6    C     C_R   0.092032 0.041643 0.562011 -0.002452
C7    C     C_R   0.463754 0.185937 0.204916 -0.079877
C8    C     C_R   0.535565 0.812442 0.794637 -0.064486
C9    C     C_R   0.375070 0.213417 0.032081 -0.165044
C10   C     C_R   0.621309 0.781571 0.968534 -0.131853
C11   C     C_R   0.403002 0.147007 0.131878 -0.202898
C12   C     C_R   0.592669 0.849649 0.869481 -0.190275
C13   C     C_R   0.506014 0.290135 0.175537 -0.169726
C14   C     C_R   0.497359 0.707924 0.821446 -0.231892
C15   C     C_R   0.487473 0.357795 0.074291 0.104716
C16   C     C_R   0.514419 0.638545 0.921874 0.093845
C17   C     C_R   0.411200 0.318899 0.004183 0.117048
C18   C     C_R   0.588472 0.676177 0.993871 0.156982
C19   C     C_R   0.531091 0.464239 0.043574 0.048102
C20   C     C_R   0.472750 0.531873 0.950248 -0.050418
C21   C     C_R   0.377064 0.489815 0.888974 -0.014182
C22   C     C_R   0.629088 0.505939 0.103450 0.059997
C23   C     C_R   0.262745 0.999253 0.502228 0.789256
C24   C     C_R   0.737239 0.000922 0.497582 0.801219
C25   C     C_R   0.359711 0.385379 0.911260 -0.114688
C26   C     C_R   0.643027 0.608951 0.085160 -0.299681
C27   C     C_R   0.730028 0.292128 0.654466 -0.281462
C28   C     C_R   0.272013 0.703140 0.349347 -0.249307
C29   C     C_R   0.690018 0.207778 0.628918 0.034473
C30   C     C_R   0.308302 0.788356 0.373764 0.067558
C31   C     C_R   0.516555 0.284068 0.514626 0.141151
C32   C     C_R   0.487563 0.718518 0.485195 0.047819
C33   C     C_R   0.557099 0.374762 0.533025 -0.026472
C34   C     C_R   0.450553 0.626276 0.469701 -0.068098
C35   C     C_R   0.662132 0.375399 0.608265 0.032085
C36   C     C_R   0.344826 0.622871 0.394786 0.061176
C37   C     C_R   0.494795 0.463178 0.481215 -0.010452
C38   C     C_R   0.518112 0.539961 0.521308 -0.120001
C39   C     C_R   0.609963 0.528045 0.609211 -0.127440
C40   C     C_R   0.409588 0.477406 0.390558 -0.100833
C41   C     C_R   0.695581 0.457434 0.638786 0.498821
C42   C     C_R   0.319261 0.543232 0.361122 0.348708
C43   C     C_R   0.356738 0.060559 0.771347 -0.200324
C44   C     C_R   0.643698 0.930971 0.231343 -0.090335
C45   C     C_R   0.263484 0.019875 0.711090 -0.085213
C46   C     C_R   0.735551 0.974917 0.289780 -0.148028
C47   C     C_R   0.184551 0.082663 0.630997 0.131010
C48   C     C_R   0.815625 0.914737 0.371204 0.127087
C49   C     C_R   0.196693 0.185661 0.614910 -0.225209
C50   C     C_R   0.805399 0.811042 0.391096 -0.163953
C51   C     C_R   0.290140 0.226450 0.674972 -0.138177
C52   C     C_R   0.714191 0.767137 0.332483 -0.252679
C53   C     C_R   0.371922 0.164330 0.752997 0.061004
C54   C     C_R   0.631753 0.826448 0.252799 0.069888
C55   C     C_R   0.962913 0.043387 0.555883 -0.236984
C56   C     C_R   0.037165 0.957472 0.443562 -0.235579
Cu1   Cu    Cu3+1 0.466270 0.918260 0.475690 0.946835
Cu2   Cu    Cu3+1 0.533730 0.081740 0.524310 0.951744
H1    H     H_    0.319277 0.182771 0.978044 0.139406
H2    H     H_    0.675486 0.811026 0.023887 0.136070
H3    H     H_    0.575801 0.731999 0.531084 0.128433
H4    H     H_    0.430213 0.275360 0.464498 0.122614
H5    H     H_    0.252309 0.850124 0.338672 0.122186
H6    H     H_    0.742507 0.143889 0.664620 0.128740
H7    H     H_    0.812187 0.290950 0.711534 0.184706
H8    H     H_    0.189258 0.701486 0.293430 0.184453
H9    H     H_    0.418144 0.011218 0.831559 0.136225
H10   H     H_    0.581504 0.978491 0.170042 0.159688
H11   H     H_    0.254686 0.939956 0.725338 0.111607
H12   H     H_    0.742579 0.055290 0.272960 0.125773
H13   H     H_    0.135517 0.234864 0.554607 0.126483
H14   H     H_    0.866543 0.763972 0.453441 0.127878
H15   H     H_    0.299391 0.306677 0.659608 0.172251
H16   H     H_    0.706692 0.686471 0.350370 0.141638
H17   H     H_    0.934040 0.074800 0.601314 0.155434
H18   H     H_    0.066033 0.925828 0.398317 0.152091
H19   H     H_    0.292237 0.354109 0.861812 0.183057
H20   H     H_    0.711259 0.638900 0.135313 0.129302
H21   H     H_    0.462059 0.680946 0.761925 0.156569
H22   H     H_    0.548279 0.318117 0.233528 0.204628
H23   H     H_    0.622804 0.930514 0.850476 0.145801
H24   H     H_    0.370329 0.066152 0.152718 0.164013
N1    N     N_R   0.584450 0.204570 0.560790 -0.184878
N2    N     N_R   0.415550 0.795430 0.439210 -0.177565
O1    O     O_R   0.455540 0.022090 0.338120 -0.586454
O2    O     O_R   0.544460 0.977910 0.661880 -0.589730
O3    O     O_R   0.512510 0.160150 0.379180 -0.574312
O4    O     O_R   0.487490 0.839850 0.620820 -0.588642
O5    O     O_R   0.291160 0.930970 0.479480 -0.593062
O6    O     O_R   0.708840 0.069030 0.520520 -0.590537
O7    O     O_R   0.348130 0.069020 0.520540 -0.579508
O8    O     O_R   0.651870 0.930980 0.479460 -0.575114
C57   C     C_2   0.474067 0.206555 0.815224 0.320322
H25   H     H_    0.534439 0.156813 0.876471 0.081632
O9    O     O_2   0.492704 0.297231 0.798671 -0.542185
C58   C     C_2   0.533375 0.777883 0.193685 0.317922
H26   H     H_    0.526180 0.697108 0.211506 0.093813
O10   O     O_2   0.459001 0.827072 0.124758 -0.553190
C59   C     C_2   0.280000 0.548124 0.811597 0.299989
H27   H     H_    0.257026 0.614961 0.814873 0.085116
O11   O     O_2   0.223663 0.521359 0.743798 -0.580258
C60   C     C_2   0.733430 0.450708 0.172956 0.369157
H28   H     H_    0.786772 0.473557 0.233210 0.080551
O12   O     O_2   0.765413 0.382906 0.159855 -0.557277
O13   O     O_3   0.807054 0.463080 0.704403 -0.570419
C61   C     C_3   0.898667 0.542070 0.650151 0.117487
H29   H     H_    0.972984 0.563090 0.705762 0.205928
H30   H     H_    0.857157 0.612733 0.599750 0.119574
C62   C     C_3   0.963545 0.506737 0.590207 -0.394404
H31   H     H_    0.017164 0.443927 0.643562 0.255739
H32   H     H_    0.890975 0.477291 0.539424 0.201954
C63   C     C_3   0.054400 0.593536 0.525017 -0.842517
H33   H     H_    0.999411 0.648759 0.460902 0.228304
H34   H     H_    0.111269 0.561820 0.494281 0.254020
H35   H     H_    0.120647 0.634228 0.569295 0.290609
O14   O     O_3   0.214233 0.536761 0.290228 -0.614550
C64   C     C_3   0.123518 0.451795 0.337552 0.000264
H36   H     H_    0.044425 0.480292 0.349879 0.156534
H37   H     H_    0.162343 0.396942 0.412688 0.124392
C65   C     C_3   0.069025 0.393388 0.269238 -0.312648
H38   H     H_    0.012504 0.441892 0.200243 0.254172
H39   H     H_    0.147703 0.375237 0.245698 0.204821
C66   C     C_3   0.985440 0.293294 0.323255 -0.832897
H40   H     H_    0.044404 0.241055 0.386976 0.237868
H41   H     H_    0.941660 0.255482 0.270192 0.280678
H42   H     H_    0.908273 0.307236 0.352351 0.263058
C67   C     C_2   0.602200 0.572802 0.681007 0.430084
H43   H     H_    0.513298 0.595871 0.679191 0.069915
O15   O     O_2   0.692082 0.581679 0.744307 -0.505678
C68   C     C_2   0.432287 0.445452 0.313575 0.304479
H44   H     H_    0.357817 0.440481 0.253095 0.112650
O16   O     O_2   0.539013 0.432219 0.312699 -0.608113

loop_
_geom_bond_atom_site_label_1
_geom_bond_atom_site_label_2
_ccdc_geom_bond_type
C1    O3    A    
C57   H25   S    
C56   H18   S    
Cu1   O8    S    
C27   C29   A    
C5    C56   A    
C36   C42   A    
C19   C20   A    
C18   C26   A    
C6    C55   A    
Cu2   O3    S    
C63   H34   S    
C66   H40   S    
C39   C41   A    
C15   C19   A    
C26   H20   S    
Cu1   O5    S    
C25   H19   S    
C32   H3    S    
C29   N1    A    
C37   C40   A    
C52   H16   S    
C64   H37   S    
C38   C39   A    
C21   C59   S    
C66   H41   S    
C61   H29   S    
Cu2   N1    S    
Cu2   O2    S    
C31   N1    A    
O14   C64   S    
C50   H14   S    
C40   C68   S    
C3    C55   A    
C43   C53   A    
C65   H39   S    
C49   C51   A    
C58   O10   D    
C50   C52   A    
C23   O5    A    
C2    O4    A    
C68   O16   D    
C14   C16   A    
Cu2   O7    S    
C54   C58   S    
C65   C66   S    
C8    C12   A    
C55   H17   S    
C52   C54   A    
C48   C50   A    
C29   H6    S    
C57   O9    D    
C1    C7    S    
C30   H5    S    
C4    C56   A    
C31   H4    S    
C3    C24   S    
C24   O8    A    
C63   H33   S    
C44   C46   A    
C7    C11   A    
C10   C12   A    
C45   C47   A    
C11   H24   S    
C1    O1    A    
C32   N2    A    
C5    C48   S    
C46   C48   A    
C39   C67   S    
C6    C47   S    
C45   H11   S    
C19   C22   A    
C4    C6    A    
C62   C63   S    
C4    C23   S    
C13   H22   S    
C66   H42   S    
C27   C35   A    
C53   C57   S    
C33   C37   A    
C51   C53   A    
C32   C34   A    
C28   H8    S    
C67   O15   D    
C43   H9    S    
C37   C38   A    
C27   H7    S    
C43   C45   A    
C59   H27   S    
C16   C20   A    
C58   H26   S    
C31   C33   A    
Cu1   N2    S    
C14   H21   S    
C60   O12   D    
C9    C11   A    
C41   O13   S    
Cu2   O6    S    
C9    C17   A    
C59   O11   D    
C13   C15   A    
C49   H13   S    
C23   O7    A    
C64   C65   S    
C67   H43   S    
C65   H38   S    
C42   O14   S    
C15   C17   A    
C21   C25   A    
C10   H2    S    
C8    C14   A    
C34   C38   A    
C2    C8    S    
C51   H15   S    
C40   C42   A    
C3    C5    A    
C24   O6    A    
C47   C49   A    
O13   C61   S    
C22   C60   S    
Cu1   O4    S    
C17   C25   A    
C62   H32   S    
C68   H44   S    
C64   H36   S    
Cu1   Cu2   S    
C61   H30   S    
C10   C18   A    
C28   C30   A    
C33   C35   A    
Cu1   O1    S    
C12   H23   S    
C2    O2    A    
C34   C36   A    
C30   N2    A    
C60   H28   S    
C35   C41   A    
C46   H12   S    
C44   H10   S    
C44   C54   A    
C7    C13   A    
C20   C21   A    
C28   C36   A    
C16   C18   A    
C22   C26   A    
C9    H1    S    
C62   H31   S    
C63   H35   S    
C61   C62   S    
