data_mof_unit_19258.cif
_audit_creation_date              2012-12-10T16:43:24-0500
_audit_creation_method            fapswitch 2.2
_symmetry_space_group_name_H-M    P1
_symmetry_Int_Tables_number       1
_space_group_crystal_system       triclinic
_cell_length_a                    10.742704
_cell_length_b                    8.705169
_cell_length_c                    7.447164
_cell_angle_alpha                 102.688424
_cell_angle_beta                  94.333051
_cell_angle_gamma                 92.464389
_cell_volume                      676.214655438

loop_
_atom_site_label
_atom_site_type_symbol
_atom_type_description
_atom_site_fract_x
_atom_site_fract_y
_atom_site_fract_z
_atom_type_partial_charge
C1    C     C_R   0.486928 0.200400 0.454086 0.865419
C2    C     C_R   0.076713 0.643705 0.618453 0.092111
C3    C     C_R   0.129645 0.514181 0.506846 -0.090244
C4    C     C_R   0.054467 0.393856 0.387536 -0.198478
C5    C     C_R   0.926141 0.395989 0.382719 -0.198346
C6    C     C_R   0.871390 0.518436 0.497302 -0.095328
C7    C     C_2   0.461806 0.033737 0.429632 -0.021370
C8    C     C_2   0.505591 0.967084 0.565987 -0.383215
C9    C     C_R   0.262882 0.504385 0.502690 0.774933
C10   C     C_R   0.501053 0.799828 0.545542 0.859008
C11   C     C_R   0.737415 0.506382 0.498834 0.788119
C12   C     C_R   0.150959 0.773126 0.729484 -0.177082
C13   C     C_R   0.095610 0.900393 0.835100 -0.135905
C14   C     C_R   0.966028 0.902519 0.830231 -0.134423
C15   C     C_R   0.890998 0.777409 0.719630 -0.177658
C16   C     C_R   0.945076 0.645905 0.613392 0.096500
Cu1   Cu    Cu3+1 0.513920 0.517380 0.684380 0.938449
Cu2   Cu    Cu3+1 0.486080 0.482620 0.315620 0.944182
H1    H     H_    0.095598 0.296238 0.299802 0.143387
H2    H     H_    0.597512 0.622065 0.051397 0.226382
H3    H     H_    0.251815 0.779097 0.733878 0.152326
H4    H     H_    0.153492 0.998721 0.919264 0.129252
H5    H     H_    0.923420 0.002468 0.910690 0.133338
H6    H     H_    0.790835 0.786651 0.715682 0.139732
H7    H     H_    0.869207 0.299276 0.293064 0.148581
H8    H     H_    0.553248 0.037311 0.693609 0.150403
H9    H     H_    0.402444 0.377991 0.948611 0.226894
N1    N     N_2   0.465100 0.456430 0.038520 -0.215437
N2    N     N_2   0.534900 0.543570 0.961480 -0.217797
O1    O     O_R   0.509050 0.286130 0.619770 -0.596318
O2    O     O_R   0.485540 0.256780 0.308360 -0.580724
O3    O     O_R   0.331410 0.514680 0.655740 -0.592510
O4    O     O_R   0.307900 0.485330 0.344330 -0.580390
O5    O     O_R   0.514460 0.743220 0.691640 -0.603161
O6    O     O_R   0.490950 0.713870 0.380230 -0.573011
O7    O     O_R   0.692100 0.514670 0.655670 -0.577333
O8    O     O_R   0.668590 0.485320 0.344260 -0.582183
C17   C     C_3   0.381877 0.946645 0.256868 -0.772223
H10   H     H_    0.332699 0.029632 0.186491 0.206394
H11   H     H_    0.441028 0.877331 0.156563 0.251967
H12   H     H_    0.307979 0.868448 0.293343 0.235756

loop_
_geom_bond_atom_site_label_1
_geom_bond_atom_site_label_2
_ccdc_geom_bond_type
C14   H5    S    
C9    O4    A    
C10   O6    A    
C3    C9    S    
Cu1   O7    S    
C2    C16   A    
Cu2   O6    S    
C2    C12   A    
Cu1   Cu2   S    
Cu2   N1    S    
C7    C8    D    
C10   O5    A    
C13   C14   A    
C17   H11   S    
Cu1   O1    S    
N1    N2    D    
C5    C6    A    
C5    H7    S    
C1    O1    A    
Cu2   O8    S    
C13   H4    S    
C2    C3    A    
H2    N2    S    
C17   H10   S    
Cu2   O4    S    
Cu1   O5    S    
C6    C16   A    
C3    C4    A    
Cu1   N2    S    
C1    O2    A    
C8    H8    S    
C12   C13   A    
C17   H12   S    
C8    C10   S    
C6    C11   S    
C11   O8    A    
Cu1   O3    S    
C14   C15   A    
C15   H6    S    
Cu2   O2    S    
C9    O3    A    
C1    C7    S    
C4    H1    S    
C12   H3    S    
C7    C17   S    
C15   C16   A    
C4    C5    A    
H9    N1    S    
C11   O7    A    
