data_mof_unit_43003.cif
_audit_creation_date              2012-12-10T17:20:23-0500
_audit_creation_method            fapswitch 2.2
_symmetry_space_group_name_H-M    P1
_symmetry_Int_Tables_number       1
_space_group_crystal_system       triclinic
_cell_length_a                    11.702412
_cell_length_b                    10.830994
_cell_length_c                    9.694489
_cell_angle_alpha                 89.149764
_cell_angle_beta                  89.890234
_cell_angle_gamma                 95.265937
_cell_volume                      1223.43697841

loop_
_atom_site_label
_atom_site_type_symbol
_atom_type_description
_atom_site_fract_x
_atom_site_fract_y
_atom_site_fract_z
_atom_type_partial_charge
C1    C     C_R   0.510715 0.263682 0.501204 0.839094
C2    C     C_R   0.522967 0.039058 0.879217 -0.452692
C3    C     C_R   0.448547 0.930100 0.873414 0.424400
C4    C     C_R   0.419326 0.879611 0.745147 0.439909
C5    C     C_R   0.470809 0.935520 0.623616 -0.201866
C6    C     C_R   0.516514 0.060048 0.629303 -0.036055
C7    C     C_R   0.525867 0.129732 0.504028 -0.040498
C8    C     C_R   0.532695 0.066152 0.378911 0.137846
C9    C     C_R   0.517990 0.937555 0.378935 -0.250733
C10   C     C_R   0.486073 0.871024 0.499569 -0.102214
C11   C     C_R   0.644810 0.673387 0.148966 -0.137677
C12   C     C_R   0.284331 0.499255 0.500114 0.798932
C13   C     C_R   0.709876 0.771286 0.086890 0.121662
C14   C     C_R   0.712313 0.778721 0.946452 -0.232784
C15   C     C_R   0.653521 0.688292 0.864863 0.186430
C16   C     C_R   0.573793 0.589717 0.925511 0.161473
C17   C     C_R   0.572171 0.586674 0.075135 0.077083
C18   C     C_R   0.428770 0.419791 0.076729 0.260259
C19   C     C_R   0.429096 0.418157 0.929785 0.428886
C20   C     C_R   0.492556 0.736629 0.499485 0.783501
C21   C     C_R   0.715615 0.499848 0.499816 0.817028
C22   C     C_1   0.162503 0.499461 0.500268 -0.145655
C23   C     C_1   0.059941 0.499635 0.500111 0.022185
C24   C     C_1   0.940009 0.499749 0.499777 0.015600
C25   C     C_1   0.837443 0.499776 0.499598 -0.162045
C26   C     C_R   0.555685 0.106411 0.758370 0.439269
Cu1   Cu    Cu3+1 0.499990 0.499990 0.640660 1.009758
Cu2   Cu    Cu3+1 0.500010 0.500010 0.359340 0.975366
H1    H     H_    0.768229 0.852629 0.898350 0.166077
H2    H     H_    0.554945 0.072254 0.977131 0.139825
H3    H     H_    0.532181 0.890119 0.283780 0.164426
H4    H     H_    0.654814 0.669221 0.256595 0.202685
N1    N     N_R   0.501070 0.501210 0.147910 -0.211785
N2    N     N_R   0.501110 0.501290 0.852040 -0.228336
O1    O     O_R   0.499990 0.319640 0.618810 -0.567681
O2    O     O_R   0.500000 0.319660 0.381240 -0.532493
O3    O     O_R   0.337190 0.500000 0.618790 -0.575959
O4    O     O_R   0.337200 0.500030 0.381210 -0.545727
O5    O     O_R   0.500000 0.680340 0.618760 -0.527729
O6    O     O_R   0.500010 0.680360 0.381190 -0.605271
O7    O     O_R   0.662800 0.499970 0.618790 -0.529173
O8    O     O_R   0.662810 0.500000 0.381210 -0.602178
N3    N     N_3   0.558281 0.131478 0.251783 -0.563713
H5    H     H_    0.489446 0.109679 0.185708 0.206394
H6    H     H_    0.632053 0.099778 0.209265 0.201245
N4    N     N_3   0.689114 0.698486 0.724760 -0.507810
H7    H     H_    0.681055 0.788900 0.688551 0.194828
H8    H     H_    0.776753 0.686006 0.720534 0.203825
O9    O     O_3   0.353289 0.329772 0.870458 -0.756378
H9    H     H_    0.354748 0.341066 0.770438 0.380598
O10   O     O_3   0.636222 0.207948 0.763258 -0.701781
H10   H     H_    0.654034 0.227741 0.860890 0.323881
O11   O     O_3   0.405522 0.869103 0.990970 -0.677598
H11   H     H_    0.432892 0.917114 0.072463 0.308156
O12   O     O_3   0.336360 0.780403 0.742015 -0.653652
H12   H     H_    0.304213 0.774653 0.647540 0.306680
N5    N     N_3   0.348616 0.336853 0.152403 -0.499173
H13   H     H_    0.265849 0.356816 0.125056 0.232024
H14   H     H_    0.358453 0.246329 0.122080 0.226308
N6    N     N_3   0.780291 0.860289 0.165405 -0.566368
H15   H     H_    0.768426 0.843939 0.271277 0.207270
H16   H     H_    0.752465 0.947538 0.144547 0.212122

loop_
_geom_bond_atom_site_label_1
_geom_bond_atom_site_label_2
_ccdc_geom_bond_type
C11   H4    S    
O12   H12   S    
C6    C7    A    
N3    H6    S    
C9    C10   A    
C19   O9    S    
C18   N5    S    
C26   O10   S    
C14   C15   A    
C8    N3    S    
Cu2   O4    S    
C1    O2    A    
C2    H2    S    
Cu1   O1    S    
N6    H15   S    
C2    C3    A    
C5    C10   A    
C2    C26   A    
C13   N6    S    
C1    C7    S    
O11   H11   S    
C3    O11   S    
C1    O1    A    
N5    H13   S    
C6    C26   A    
C17   N1    A    
Cu1   O3    S    
C21   O7    A    
C5    C6    A    
Cu2   O8    S    
Cu2   N1    S    
C18   C19   A    
C9    H3    S    
C7    C8    A    
Cu1   N2    S    
C12   O4    A    
N3    H5    S    
C20   O6    A    
C18   N1    A    
N4    H8    S    
N5    H14   S    
C16   C17   A    
C15   C16   A    
Cu2   O6    S    
C23   C24   S    
C21   O8    A    
C12   C22   S    
C11   C13   A    
C24   C25   T    
Cu2   O2    S    
N6    H16   S    
O9    H9    S    
N4    H7    S    
C10   C20   S    
C12   O3    A    
C20   O5    A    
Cu1   O7    S    
C22   C23   T    
C4    C5    A    
C21   C25   S    
C14   H1    S    
C15   N4    S    
C16   N2    A    
C13   C14   A    
C11   C17   A    
C3    C4    A    
O10   H10   S    
C4    O12   S    
Cu1   O5    S    
C8    C9    A    
Cu1   Cu2   S    
C19   N2    A    
