data_mof_unit_61219.cif
_audit_creation_date              2012-12-10T19:59:44-0500
_audit_creation_method            fapswitch 2.2
_symmetry_space_group_name_H-M    P1
_symmetry_Int_Tables_number       1
_space_group_crystal_system       triclinic
_cell_length_a                    32.016949
_cell_length_b                    32.006472
_cell_length_c                    21.869587
_cell_angle_alpha                 90.158415
_cell_angle_beta                  90.457558
_cell_angle_gamma                 90.088034
_cell_volume                      22410.0226365

loop_
_atom_site_label
_atom_site_type_symbol
_atom_type_description
_atom_site_fract_x
_atom_site_fract_y
_atom_site_fract_z
_atom_type_partial_charge
C1    C     C_R   0.419367 0.999928 0.503185 0.979518
C2    C     C_R   0.999897 0.293271 0.504679 0.133465
C3    C     C_R   0.974020 0.471369 0.217106 -0.075112
C4    C     C_R   0.472975 0.972175 0.780964 -0.080202
C5    C     C_R   0.980508 0.539555 0.781668 -0.083538
C6    C     C_R   0.528636 0.025768 0.782822 -0.076572
C7    C     C_R   0.985923 0.462917 0.779713 -0.047948
C8    C     C_R   0.004792 0.465380 0.722141 -0.099210
C9    C     C_R   0.528553 0.026133 0.718769 -0.081982
C10   C     C_R   0.986563 0.539382 0.717613 -0.051858
C11   C     C_R   0.473733 0.971692 0.716933 -0.076350
C12   C     C_R   0.973500 0.471676 0.281161 -0.080699
C13   C     C_R   0.706711 0.999843 0.494650 0.145350
C14   C     C_R   0.471282 0.025798 0.281462 -0.081997
C15   C     C_R   0.028730 0.525734 0.282826 -0.075279
C16   C     C_R   0.526103 0.971532 0.282862 -0.076579
C17   C     C_R   0.498817 0.998250 0.186279 -0.119632
C18   C     C_R   0.001844 0.498425 0.186184 -0.121872
C19   C     C_R   0.501156 0.998331 0.813722 -0.119438
C20   C     C_R   0.982936 0.500719 0.813813 -0.064159
C21   C     C_R   0.999920 0.502488 0.687997 -0.063896
C22   C     C_R   0.501833 0.998490 0.686125 -0.118893
C23   C     C_R   0.001358 0.498207 0.313788 -0.122148
C24   C     C_R   0.000185 0.706668 0.490176 0.140210
C25   C     C_R   0.497987 0.998218 0.313879 -0.118194
C26   C     C_R   0.228057 0.961861 0.500167 -0.145225
C27   C     C_R   0.032812 0.227891 0.530947 -0.172007
C28   C     C_R   0.771909 0.037759 0.492786 -0.157188
C29   C     C_R   0.962264 0.771790 0.489457 -0.155169
C30   C     C_R   0.771798 0.962004 0.499600 -0.145594
C31   C     C_R   0.966927 0.228370 0.475033 -0.158689
C32   C     C_R   0.228239 0.037615 0.507615 -0.158478
C33   C     C_R   0.037979 0.771820 0.497755 -0.138112
C34   C     C_R   0.728039 0.461885 0.998692 -0.150053
C35   C     C_R   0.793243 0.499816 0.000945 0.137857
C36   C     C_R   0.513659 0.728271 0.052057 -0.161640
C37   C     C_R   0.271670 0.513159 0.049451 -0.168890
C38   C     C_R   0.462111 0.271827 0.999250 -0.150817
C39   C     C_R   0.272051 0.487192 0.944948 -0.152577
C40   C     C_R   0.486038 0.727914 0.948225 -0.160095
C41   C     C_R   0.728186 0.537734 0.003676 -0.155881
C42   C     C_R   0.538008 0.271980 0.000218 -0.149582
C43   C     C_R   0.206499 0.999774 0.503244 0.154031
C44   C     C_R   0.999880 0.206486 0.502378 0.155992
C45   C     C_R   0.793502 0.999899 0.496820 0.153627
C46   C     C_R   0.499829 0.793209 0.999984 0.108664
C47   C     C_R   0.000089 0.793453 0.494999 0.154795
C48   C     C_R   0.706469 0.499812 0.001224 0.152623
C49   C     C_R   0.499862 0.706453 0.000189 0.146727
C50   C     C_R   0.293508 0.500170 0.997647 0.149035
C51   C     C_R   0.500049 0.293543 0.999690 0.155258
C52   C     C_R   0.271742 0.037551 0.508713 -0.127939
C53   C     C_R   0.966946 0.271877 0.476168 -0.123568
C54   C     C_R   0.728294 0.961978 0.498558 -0.150180
C55   C     C_R   0.038020 0.728326 0.495429 -0.166217
C56   C     C_R   0.728404 0.037730 0.491720 -0.127063
C57   C     C_R   0.206722 0.500117 0.995887 0.130638
C58   C     C_R   0.032845 0.271397 0.532044 -0.133245
C59   C     C_R   0.271561 0.961800 0.501241 -0.150004
C60   C     C_R   0.962310 0.728288 0.487123 -0.144634
C61   C     C_R   0.771684 0.537734 0.003544 -0.140260
C62   C     C_R   0.486022 0.771421 0.948121 -0.122691
C63   C     C_R   0.228543 0.487163 0.944064 -0.167485
C64   C     C_R   0.538027 0.228472 0.000326 -0.156643
C65   C     C_R   0.228166 0.513130 0.048571 -0.109562
C66   C     C_R   0.513643 0.771779 0.051956 -0.121941
C67   C     C_R   0.771541 0.461888 0.998541 -0.141108
C68   C     C_R   0.500089 0.206766 0.999867 0.148706
C69   C     C_R   0.462132 0.228320 0.999322 -0.158051
C70   C     C_2   0.421247 0.129498 0.315888 1.082921
C71   C     C_2   0.869257 0.422471 0.313986 1.082590
C72   C     C_2   0.633980 0.939418 0.323648 0.994535
C73   C     C_2   0.062490 0.633391 0.321929 0.999969
C74   C     C_2   0.578550 0.130040 0.685436 1.082715
C75   C     C_2   0.037319 0.352740 0.696533 1.062841
C76   C     C_2   0.365821 0.939365 0.675976 0.994691
C77   C     C_2   0.025640 0.643284 0.684412 0.967062
C78   C     C_2   0.993708 0.655433 0.814289 1.091328
C79   C     C_1   0.162022 0.999856 0.501880 -0.043834
C80   C     C_2   0.367884 0.924778 0.813249 1.083745
C81   C     C_2   0.970882 0.344293 0.785167 1.090395
C82   C     C_2   0.561585 0.133506 0.822098 1.004222
C83   C     C_2   0.078453 0.629985 0.185176 1.084175
C84   C     C_2   0.631980 0.924989 0.186196 1.083744
C85   C     C_2   0.866174 0.438719 0.177011 0.997506
C86   C     C_2   0.438692 0.133331 0.179368 1.004330
C87   C     C_1   0.999902 0.162015 0.501180 -0.042967
C88   C     C_1   0.837979 0.999938 0.498148 -0.043362
C89   C     C_R   0.000036 0.419361 0.503198 0.999838
C90   C     C_1   0.000037 0.837929 0.497650 -0.045839
C91   C     C_1   0.662000 0.499843 0.001022 -0.043957
C92   C     C_1   0.499918 0.661989 0.000251 -0.041018
C93   C     C_1   0.337985 0.500122 0.998557 -0.044860
C94   C     C_1   0.500028 0.338008 0.999698 -0.048123
C95   C     C_1   0.337740 0.999656 0.505484 -0.016144
C96   C     C_1   0.000094 0.337720 0.505078 0.038739
C97   C     C_1   0.662262 0.999868 0.494635 -0.016116
C98   C     C_1   0.000123 0.662205 0.490825 -0.045734
C99   C     C_1   0.837683 0.499848 0.000736 -0.023034
C100  C     C_R   0.580635 0.999975 0.496843 0.980311
C101  C     C_1   0.499850 0.837618 0.999873 0.027586
C102  C     C_1   0.162273 0.499941 0.995234 -0.005114
C103  C     C_1   0.500101 0.162326 0.999944 -0.059737
C104  C     C_1   0.375082 0.999722 0.504861 -0.011265
C105  C     C_1   0.000135 0.375069 0.504710 0.014579
C106  C     C_1   0.624920 0.999891 0.495228 -0.011875
C107  C     C_1   0.000145 0.624875 0.493309 -0.005261
C108  C     C_1   0.875021 0.499889 0.000650 -0.015846
C109  C     C_1   0.499893 0.874946 0.999843 0.089948
C110  C     C_1   0.124928 0.499886 0.995448 -0.038121
C111  C     C_R   0.000045 0.580680 0.497807 0.934307
C112  C     C_1   0.500085 0.124981 0.999988 -0.079340
C113  C     C_1   0.124655 0.999928 0.500922 -0.148320
C114  C     C_1   0.999943 0.124647 0.500445 -0.149898
C115  C     C_1   0.875346 0.999968 0.499085 -0.147896
C116  C     C_1   0.000009 0.875305 0.499254 -0.147587
C117  C     C_1   0.624638 0.499906 0.000716 -0.148399
C118  C     C_1   0.499962 0.624627 0.000222 -0.148467
C119  C     C_1   0.375351 0.500067 0.999203 -0.150041
C120  C     C_1   0.500012 0.375371 0.999766 -0.149334
C121  C     C_R   0.999993 0.919643 0.499880 0.888352
C122  C     C_R   0.919277 0.499963 0.000551 0.960095
C123  C     C_R   0.080343 0.999995 0.500237 0.888418
C124  C     C_R   0.999992 0.080339 0.500092 0.888777
C125  C     C_R   0.919657 0.999994 0.499763 0.888492
C126  C     C_R   0.499998 0.419667 0.999925 0.889625
C127  C     C_R   0.580337 0.499984 0.000220 0.889801
C128  C     C_R   0.500001 0.580332 0.000074 0.891623
C129  C     C_R   0.419659 0.500008 0.999775 0.891032
C130  C     C_R   0.499669 0.999734 0.379785 0.902612
C131  C     C_R   0.000090 0.499828 0.379747 0.907826
C132  C     C_R   0.500271 0.999833 0.620217 0.902913
C133  C     C_R   0.499968 0.919285 0.999902 1.094238
C134  C     C_R   0.000210 0.500546 0.620867 0.876428
C135  C     C_R   0.993253 0.500087 0.880163 0.926522
C136  C     C_R   0.500054 0.999766 0.879729 0.908376
C137  C     C_R   0.000183 0.499822 0.120240 0.908243
C138  C     C_R   0.499944 0.999738 0.120275 0.908353
C139  C     C_R   0.556506 0.946468 0.313574 0.332683
C140  C     C_R   0.054233 0.555962 0.313457 0.340427
C141  C     C_R   0.444891 0.055196 0.310536 0.349893
C142  C     C_R   0.943751 0.445594 0.309951 0.354035
C143  C     C_R   0.443301 0.946559 0.686035 0.332265
C144  C     C_R   0.080634 0.499975 0.996842 0.984752
C145  C     C_R   0.983485 0.577774 0.686304 0.300457
C146  C     C_R   0.554900 0.055667 0.689961 0.349410
C147  C     C_R   0.027742 0.430558 0.701406 0.337400
C148  C     C_R   0.972131 0.422870 0.800093 0.290135
C149  C     C_R   0.554005 0.056059 0.813517 0.345405
C150  C     C_R   0.973925 0.579426 0.809849 0.349717
C151  C     C_R   0.442736 0.946592 0.809562 0.359634
C152  C     C_R   0.943628 0.446130 0.186348 0.334230
C153  C     C_R   0.446033 0.055876 0.187004 0.346323
C154  C     C_R   0.054881 0.555615 0.189885 0.354540
C155  C     C_R   0.500028 0.080725 0.000016 0.890189
C156  C     C_R   0.557151 0.946606 0.190043 0.360282
C157  C     C_R   0.595616 0.943378 0.285296 -0.214030
C158  C     C_R   0.058165 0.594793 0.284338 -0.217561
C159  C     C_R   0.438495 0.093818 0.280956 -0.194823
C160  C     C_R   0.905210 0.439309 0.279541 -0.194426
C161  C     C_R   0.404204 0.943399 0.714325 -0.214650
C162  C     C_R   0.000148 0.612152 0.718012 -0.202050
C163  C     C_R   0.561366 0.094240 0.720007 -0.195245
C164  C     C_R   0.016895 0.390444 0.722743 -0.211299
C165  C     C_R   0.986895 0.386511 0.769561 -0.244904
C166  C     C_R   0.293290 0.999648 0.505480 0.145633
C167  C     C_R   0.557820 0.094890 0.784415 -0.220014
C168  C     C_R   0.990744 0.615147 0.780934 -0.190619
C169  C     C_R   0.404244 0.940810 0.778864 -0.195099
C170  C     C_R   0.904733 0.442529 0.215058 -0.216428
C171  C     C_R   0.442238 0.094635 0.216585 -0.220159
C172  C     C_R   0.061411 0.594177 0.219896 -0.195656
C173  C     C_R   0.595621 0.940899 0.220725 -0.195166
C174  C     C_R   0.526934 0.972111 0.218837 -0.080338
C175  C     C_R   0.028558 0.526105 0.218771 -0.080735
C176  C     C_R   0.471300 0.025555 0.217411 -0.076366
H1    H     H_    0.288206 0.932410 0.498524 0.157075
H2    H     H_    0.524348 0.788671 0.092159 0.199650
H3    H     H_    0.211281 0.523160 0.088772 0.199614
H4    H     H_    0.432712 0.211534 0.998947 0.153073
H5    H     H_    0.211967 0.477058 0.903225 0.161686
H6    H     H_    0.475316 0.788034 0.907834 0.198855
H7    H     H_    0.788462 0.567146 0.005404 0.164834
H8    H     H_    0.567463 0.211808 0.000794 0.153229
H9    H     H_    0.211273 0.932509 0.496785 0.152889
H10   H     H_    0.058373 0.210985 0.552147 0.152889
H11   H     H_    0.788666 0.067152 0.490618 0.152857
H12   H     H_    0.058501 0.287910 0.553908 0.185869
H13   H     H_    0.932873 0.788484 0.487272 0.152494
H14   H     H_    0.788467 0.932637 0.502723 0.152670
H15   H     H_    0.941388 0.211838 0.452879 0.156958
H16   H     H_    0.211597 0.067021 0.510016 0.151837
H17   H     H_    0.067322 0.788531 0.502016 0.151953
H18   H     H_    0.711265 0.432474 0.996757 0.154318
H19   H     H_    0.524381 0.711687 0.092346 0.162266
H20   H     H_    0.288234 0.523225 0.090320 0.163307
H21   H     H_    0.432674 0.288490 0.998856 0.151861
H22   H     H_    0.288917 0.477120 0.904767 0.155555
H23   H     H_    0.711722 0.067102 0.488852 0.162570
H24   H     H_    0.475343 0.711051 0.908004 0.162548
H25   H     H_    0.711529 0.567149 0.005610 0.154453
H26   H     H_    0.567430 0.288762 0.000580 0.152135
H27   H     H_    0.378778 0.175859 0.320552 0.355919
H28   H     H_    0.822442 0.380363 0.318372 0.355965
H29   H     H_    0.659068 0.926327 0.406292 0.336851
H30   H     H_    0.074569 0.658826 0.404718 0.338120
H31   H     H_    0.621007 0.176547 0.681157 0.356678
H32   H     H_    0.063044 0.296133 0.711383 0.347801
H33   H     H_    0.340688 0.926224 0.593246 0.337044
H34   H     H_    0.932948 0.711543 0.483528 0.162455
H35   H     H_    0.050685 0.660591 0.604116 0.347040
H36   H     H_    0.982354 0.717401 0.814499 0.359530
H37   H     H_    0.320191 0.883668 0.817675 0.357990
H38   H     H_    0.945355 0.290388 0.754714 0.359710
H39   H     H_    0.571674 0.158884 0.905486 0.338849
H40   H     H_    0.120788 0.676589 0.180609 0.358653
H41   H     H_    0.679661 0.884018 0.181386 0.357228
H42   H     H_    0.840850 0.427880 0.093673 0.340737
H43   H     H_    0.429234 0.158861 0.096143 0.338863
H44   H     H_    0.536498 0.872092 0.437086 0.364388
H45   H     H_    0.711537 0.932600 0.501036 0.156934
H46   H     H_    0.128793 0.536581 0.438144 0.364250
H47   H     H_    0.406257 0.969517 0.333440 0.384871
H48   H     H_    0.028828 0.405885 0.333715 0.386125
H49   H     H_    0.463275 0.872010 0.562227 0.364415
H50   H     H_    0.943347 0.648143 0.608637 0.369506
H51   H     H_    0.593767 0.970235 0.666533 0.384940
H52   H     H_    0.112031 0.431094 0.588882 0.381966
H53   H     H_    0.972164 0.392289 0.915722 0.351817
H54   H     H_    0.628794 0.037121 0.938022 0.367612
H55   H     H_    0.888760 0.540388 0.833391 0.391639
H56   H     H_    0.941462 0.288801 0.454778 0.182906
H57   H     H_    0.526919 0.904735 0.831044 0.390227
H58   H     H_    0.962640 0.371697 0.062049 0.373487
H59   H     H_    0.371363 0.037120 0.062076 0.367272
H60   H     H_    0.093736 0.470125 0.166557 0.384932
H61   H     H_    0.472880 0.904573 0.168496 0.390314
H62   H     H_    0.288538 0.066910 0.511832 0.161826
H63   H     H_    0.067376 0.711617 0.498326 0.149916
H64   H     H_    0.788206 0.432482 0.996492 0.167429
O1    O     O_R   0.439000 0.034460 0.500000 -0.589491
O2    O     O_R   0.465540 0.939000 0.000000 -0.573674
O3    O     O_2   0.636454 0.039217 0.688837 -0.216411
O4    O     O_3   0.591335 0.986345 0.628062 -0.571929
O5    O     O_2   0.092194 0.483662 0.681750 -0.285599
O6    O     O_2   0.109193 0.412085 0.710791 -0.274463
O7    O     O_3   0.082849 0.424770 0.600410 -0.515386
O8    O     O_2   0.908995 0.459870 0.862865 -0.282377
O9    O     O_2   0.895599 0.391406 0.818564 -0.231489
O10   O     O_3   0.941406 0.395177 0.916184 -0.455070
O11   O     O_2   0.606397 0.992281 0.838922 -0.262369
O12   O     O_2   0.638045 0.060234 0.817206 -0.210023
O13   O     O_R   0.061000 0.465540 0.000000 -0.612867
O14   O     O_3   0.603067 0.050514 0.922092 -0.483276
O15   O     O_2   0.949854 0.602260 0.923003 -0.223181
O16   O     O_2   0.904277 0.621319 0.838173 -0.240519
O17   O     O_3   0.904314 0.544160 0.872362 -0.536917
O18   O     O_2   0.434454 0.896402 0.906192 -0.285814
O19   O     O_2   0.456237 0.864411 0.811008 -0.233706
O20   O     O_3   0.511509 0.907848 0.869885 -0.603161
O21   O     O_2   0.007167 0.393510 0.161613 -0.268404
O22   O     O_2   0.939092 0.362104 0.182827 -0.206837
O23   O     O_3   0.949022 0.397245 0.077906 -0.465859
O24   O     O_R   0.534460 0.061000 0.000000 -0.581850
O25   O     O_2   0.393509 0.992112 0.160687 -0.261946
O26   O     O_2   0.362002 0.060000 0.183162 -0.211114
O27   O     O_3   0.397089 0.050520 0.078253 -0.483940
O28   O     O_2   0.105595 0.563271 0.093838 -0.270487
O29   O     O_2   0.136428 0.539053 0.188977 -0.236899
O30   O     O_3   0.091306 0.486244 0.128093 -0.574265
O31   O     O_2   0.565337 0.896146 0.093333 -0.286620
O32   O     O_2   0.543461 0.864408 0.188439 -0.234606
O33   O     O_3   0.488298 0.907661 0.129675 -0.603242
O34   O     O_R   0.061000 0.534460 0.000000 -0.564268
O35   O     O_R   0.534460 0.939000 0.000000 -0.573771
O36   O     O_R   0.939000 0.465540 0.000000 -0.536240
O37   O     O_R   0.465540 0.061000 0.000000 -0.582178
O38   O     O_R   0.499990 0.034460 0.408410 -0.629666
O39   O     O_R   0.965540 0.499990 0.408410 -0.627927
O40   O     O_R   0.500010 0.965540 0.408410 -0.544376
O41   O     O_R   0.965540 0.439000 0.500000 -0.586154
O42   O     O_R   0.034460 0.500010 0.408410 -0.542066
O43   O     O_R   0.500010 0.034460 0.591590 -0.629637
O44   O     O_R   0.034460 0.499990 0.591590 -0.561928
O45   O     O_R   0.499990 0.965540 0.591590 -0.544068
O46   O     O_R   0.965540 0.500010 0.591590 -0.578889
O47   O     O_R   0.999990 0.534460 0.908410 -0.596704
O48   O     O_R   0.465540 0.999990 0.908410 -0.630387
O49   O     O_R   0.000010 0.465540 0.908410 -0.649569
O50   O     O_R   0.534460 0.000010 0.908410 -0.541944
O51   O     O_R   0.000010 0.534460 0.091590 -0.624892
O52   O     O_R   0.561000 0.965540 0.500000 -0.558665
O53   O     O_R   0.534460 0.999990 0.091590 -0.630275
O54   O     O_R   0.999990 0.465540 0.091590 -0.542452
O55   O     O_R   0.465540 0.000010 0.091590 -0.541986
O56   O     O_R   0.999970 0.939080 0.448210 -0.607554
O57   O     O_R   0.060920 0.999970 0.448210 -0.605256
O58   O     O_R   0.000030 0.060920 0.448210 -0.606414
O59   O     O_R   0.939080 0.000030 0.448210 -0.608529
O60   O     O_R   0.000030 0.939080 0.551790 -0.606129
O61   O     O_R   0.939080 0.999970 0.551790 -0.605309
O62   O     O_R   0.999970 0.060920 0.551790 -0.608514
O63   O     O_R   0.034460 0.561000 0.500000 -0.577812
O64   O     O_R   0.060920 0.000030 0.551790 -0.608809
O65   O     O_R   0.499970 0.439080 0.948210 -0.608335
O66   O     O_R   0.560920 0.499970 0.948210 -0.606223
O67   O     O_R   0.500030 0.560920 0.948210 -0.607917
O68   O     O_R   0.439080 0.500030 0.948210 -0.610123
O69   O     O_R   0.500030 0.439080 0.051790 -0.607351
O70   O     O_R   0.439080 0.499970 0.051790 -0.607362
O71   O     O_R   0.499970 0.560920 0.051790 -0.608496
O72   O     O_R   0.560920 0.500030 0.051790 -0.608408
O73   O     O_2   0.435495 0.137870 0.366506 -0.592373
O74   O     O_R   0.561000 0.034460 0.500000 -0.589279
O75   O     O_R   0.387944 0.152666 0.292014 -0.725662
O76   O     O_2   0.860935 0.436968 0.364216 -0.589834
O77   O     O_R   0.845791 0.389241 0.290169 -0.726489
O78   O     O_2   0.668175 0.948096 0.302620 -0.604885
O79   O     O_R   0.630876 0.927799 0.385000 -0.750451
O80   O     O_2   0.055260 0.667623 0.299572 -0.601414
O81   O     O_R   0.072753 0.630503 0.384012 -0.749813
O82   O     O_2   0.564216 0.138452 0.634968 -0.592184
O83   O     O_R   0.611894 0.153274 0.709455 -0.724835
O84   O     O_2   0.043396 0.350431 0.641532 -0.616688
O85   O     O_R   0.034460 0.439000 0.500000 -0.572111
O86   O     O_R   0.049677 0.319965 0.734729 -0.774755
O87   O     O_2   0.331642 0.947949 0.697118 -0.605001
O88   O     O_R   0.368891 0.927768 0.614520 -0.750465
O89   O     O_2   0.043372 0.671774 0.711480 -0.582606
O90   O     O_R   0.031655 0.638374 0.621668 -0.815907
O91   O     O_2   0.008522 0.656467 0.865968 -0.576430
O92   O     O_R   0.978824 0.692037 0.787066 -0.733008
O93   O     O_2   0.359829 0.939499 0.863439 -0.591576
O94   O     O_R   0.343749 0.892009 0.789493 -0.725729
O95   O     O_2   0.972482 0.331726 0.837837 -0.573612
O96   O     O_R   0.439000 0.965540 0.500000 -0.558768
O97   O     O_R   0.954913 0.318520 0.738823 -0.779750
O98   O     O_2   0.555097 0.167775 0.799389 -0.602039
O99   O     O_R   0.570339 0.130575 0.884662 -0.748622
O100  O     O_2   0.064008 0.638308 0.134741 -0.581168
O101  O     O_R   0.111786 0.653327 0.209002 -0.726460
O102  O     O_2   0.640027 0.939748 0.136130 -0.591524
O103  O     O_R   0.656109 0.892279 0.209650 -0.726879
O104  O     O_2   0.831935 0.445764 0.199118 -0.602849
O105  O     O_R   0.869129 0.429250 0.114761 -0.744798
O106  O     O_2   0.444980 0.167573 0.202620 -0.601591
O107  O     O_R   0.965540 0.561000 0.500000 -0.582771
O108  O     O_R   0.430399 0.130511 0.116634 -0.749887
O109  O     O_2   0.493095 0.893317 0.336888 -0.269261
O110  O     O_2   0.561513 0.862478 0.316581 -0.207394
O111  O     O_3   0.550553 0.897486 0.421570 -0.484696
O112  O     O_2   0.106396 0.491995 0.338843 -0.268664
O113  O     O_2   0.138283 0.559876 0.317402 -0.211366
O114  O     O_3   0.103153 0.550120 0.422178 -0.484700
O115  O     O_2   0.393977 0.062742 0.406429 -0.272905
O116  O     O_2   0.363413 0.038139 0.311059 -0.216396
O117  O     O_3   0.408571 0.985738 0.371964 -0.571761
O118  O     O_R   0.939000 0.534460 0.000000 -0.579998
O119  O     O_2   0.935826 0.395076 0.406523 -0.280880
O120  O     O_2   0.959401 0.363843 0.311721 -0.224489
O121  O     O_3   0.012874 0.408502 0.372156 -0.578867
O122  O     O_2   0.506632 0.893438 0.662611 -0.269000
O123  O     O_2   0.438140 0.862550 0.682651 -0.206995
O124  O     O_3   0.449254 0.897409 0.577841 -0.484706
O125  O     O_2   0.910126 0.550140 0.637228 -0.219212
O126  O     O_2   0.908103 0.612373 0.700790 -0.238765
O127  O     O_3   0.938260 0.619644 0.592410 -0.531546
O128  O     O_2   0.605477 0.063390 0.593767 -0.271961
S1    S     S_3+6 0.539402 0.898494 0.346374 0.113154
S2    S     S_3+6 0.601824 0.038719 0.847174 0.116387
S3    S     S_3+6 0.932602 0.587722 0.862507 0.088591
S4    S     S_3+6 0.460835 0.902623 0.850575 0.031124
S5    S     S_3+6 0.960770 0.398304 0.152929 0.116956
S6    S     S_3+6 0.398207 0.038569 0.153023 0.115933
S7    S     S_3+6 0.098211 0.536412 0.148814 0.046528
S8    S     S_3+6 0.538961 0.902507 0.148954 0.030294
S9    S     S_3+6 0.101959 0.538436 0.347216 0.112252
S10   S     S_3+6 0.401554 0.035819 0.351384 0.058238
S11   S     S_3+6 0.962582 0.402095 0.351491 0.047905
S12   S     S_3+6 0.460343 0.898545 0.653063 0.113345
S13   S     S_3+6 0.933569 0.589168 0.654296 0.082922
S14   S     S_3+6 0.598196 0.036523 0.648765 0.058450
S15   S     S_3+6 0.079493 0.438672 0.674260 0.051309
S16   S     S_3+6 0.928105 0.418135 0.849617 0.091775
Zn1   Zn    Zn3+2 0.500000 0.046010 0.500000 1.116926
Zn2   Zn    Zn3+2 1.000000 1.000000 0.569050 1.019420
Zn3   Zn    Zn3+2 0.500000 0.500000 0.930950 1.014864
Zn4   Zn    Zn3+2 0.500000 0.500000 0.069050 1.015737
Zn5   Zn    Zn3+2 0.953990 0.500000 0.500000 1.146818
Zn6   Zn    Zn3+2 0.500000 0.953990 0.500000 1.165841
Zn7   Zn    Zn3+2 0.046010 0.500000 0.500000 1.140916
Zn8   Zn    Zn3+2 1.000000 0.546010 0.000000 1.176886
Zn9   Zn    Zn3+2 0.453990 0.000000 0.000000 1.145796
Zn10  Zn    Zn3+2 1.000000 0.453990 0.000000 1.117169
Zn11  Zn    Zn3+2 0.546010 0.000000 0.000000 1.146087
Zn12  Zn    Zn3+2 1.000000 1.000000 0.430950 1.020373

loop_
_geom_bond_atom_site_label_1
_geom_bond_atom_site_label_2
_ccdc_geom_bond_type
C33   C55   A    
O55   Zn9   S    
C30   C45   A    
C83   O100  D    
C41   C61   A    
H52   O7    S    
C57   C102  S    
C12   C23   A    
C145  S13   S    
C46   C62   A    
C24   C98   S    
C147  C164  A    
C139  S1    S    
C26   H9    S    
C36   C66   A    
C67   H64   S    
C77   C162  S    
C144  O34   A    
C70   C159  S    
C32   C52   A    
C126  O69   A    
H28   O77   S    
C112  C155  S    
C80   O94   S    
C90   C116  T    
C26   C59   A    
C34   H18   S    
C38   C69   A    
C148  C165  A    
C70   O75   S    
O29   S7    D    
C82   C167  S    
C10   C21   A    
C156  C173  A    
C116  C121  S    
O39   Zn5   S    
C109  C133  S    
C28   H11   S    
C73   O80   D    
C1    O96   A    
C19   C136  S    
O58   Zn12  S    
C140  S9    S    
O21   S5    D    
C103  C112  T    
C18   C137  S    
C127  O72   A    
C152  C170  A    
O107  Zn5   S    
C84   O103  S    
O49   Zn10  S    
O46   Zn5   S    
C150  C168  A    
O109  S1    D    
C135  O49   A    
C159  C171  A    
C72   O78   D    
C39   H22   S    
C33   C47   A    
C29   H13   S    
C8    C147  A    
C34   C48   A    
C84   C173  S    
C95   C166  S    
C42   C64   A    
C13   C54   A    
C156  S8    S    
C16   C25   A    
C137  O54   A    
O68   Zn3   S    
C85   C170  S    
C2    C53   A    
C100  C106  S    
C77   O90   S    
C2    C96   S    
O48   Zn9   S    
C100  O52   A    
C37   C50   A    
C158  C172  A    
H35   O90   S    
C134  O46   A    
C13   C97   S    
O118  Zn8   S    
H29   O79   S    
C132  O43   A    
C139  C157  A    
O53   Zn11  S    
O2    Zn9   S    
C70   O73   D    
O60   Zn2   S    
C143  C161  A    
O114  S9    S    
C63   H5    S    
C89   O85   A    
C68   C103  S    
O37   Zn9   S    
H33   O88   S    
C28   C56   A    
C7    C8    A    
C5    C20   A    
C6    C19   A    
C30   C54   A    
C29   C47   A    
O24   Zn11  S    
C64   C68   A    
C83   O101  S    
C69   H4    S    
C40   C49   A    
O50   Zn11  S    
C121  O60   A    
H31   O83   S    
O31   S8    D    
O121  S11   S    
C92   C118  T    
O42   Zn7   S    
C140  C158  A    
C6    C149  A    
C94   C120  T    
C27   C44   A    
C141  C159  A    
H47   O117  S    
C37   C65   A    
C14   C176  A    
H48   O121  S    
C52   H62   S    
C13   C56   A    
C125  O61   A    
H36   O92   S    
C86   O108  S    
C76   C161  S    
C123  O57   A    
O123  S12   D    
O124  S12   S    
C25   C130  S    
C57   C63   A    
H59   O27   S    
C46   C101  S    
H40   O101  S    
H46   O114  S    
C126  O65   A    
C82   O99   S    
H51   O4    S    
O16   S3    D    
C54   H45   S    
C38   C51   A    
C127  O66   A    
C48   C91   S    
C134  O44   A    
C72   C157  S    
O14   S2    S    
O26   S6    D    
C81   C165  S    
C133  O2    A    
C132  O45   A    
C29   C60   A    
C35   C67   A    
O54   Zn10  S    
C23   C131  S    
C35   C61   A    
C162  C168  A    
O125  S13   D    
C84   O102  D    
C79   C113  T    
O43   Zn1   S    
C47   C90   S    
C42   H26   S    
C143  S12   S    
C124  O58   A    
C76   O88   S    
C16   C174  A    
H43   O108  S    
C107  C111  S    
H61   O33   S    
C138  O55   A    
O51   Zn8   S    
C100  O74   A    
C74   O82   D    
O70   Zn4   S    
C78   C168  S    
C151  C169  A    
C88   C115  T    
C123  O64   A    
C155  O37   A    
C136  O50   A    
C71   O77   S    
C11   C143  A    
O111  S1    S    
O56   Zn12  S    
C119  C129  S    
C32   C43   A    
H37   O94   S    
O116  S10   D    
C30   H14   S    
O6    S15   D    
C53   H56   S    
C64   H8    S    
O71   Zn4   S    
C86   O106  D    
C89   C105  S    
C93   C119  T    
C96   C105  T    
O8    S16   D    
C133  O35   A    
O23   S5    S    
C149  C167  A    
O119  S11   D    
C146  S14   S    
C71   C160  S    
C156  C174  A    
C3    C152  A    
C128  O71   A    
C111  O107  A    
O112  S9    D    
C164  C165  A    
C46   C66   A    
O10   S16   S    
C120  C126  S    
C101  C109  T    
C31   H15   S    
C78   O91   D    
C32   H16   S    
O57   Zn12  S    
O113  S9    D    
O18   S4    D    
C68   C69   A    
O127  S13   S    
C91   C117  T    
C44   C87   S    
O41   Zn5   S    
C131  O39   A    
C71   O76   D    
C153  S6    S    
C33   H17   S    
O61   Zn2   S    
O85   Zn7   S    
C152  S5    S    
O3    S14   D    
H39   O99   S    
C80   C169  S    
C6    C9    A    
C138  O53   A    
C148  S16   S    
H57   O20   S    
C45   C88   S    
C108  C122  S    
O120  S11   D    
O67   Zn3   S    
O47   Zn8   S    
C81   O95   D    
C40   H24   S    
C151  S4    S    
H49   O124  S    
C5    C150  A    
C77   O89   D    
C95   C104  T    
C99   C108  T    
O13   Zn10  S    
C62   H6    S    
O28   S7    D    
O65   Zn3   S    
C113  C123  S    
H32   O86   S    
C83   C172  S    
C80   O93   D    
O69   Zn4   S    
C4    C11   A    
C110  C144  S    
C117  C127  S    
C155  O24   A    
C10   C145  A    
C122  O118  A    
C102  C110  T    
C49   C92   S    
C41   H25   S    
C21   C134  S    
C17   C174  A    
C15   C140  A    
C146  C163  A    
O40   Zn6   S    
O63   Zn7   S    
C57   C65   A    
H54   O14   S    
C27   C58   A    
C34   C67   A    
O62   Zn2   S    
C2    C58   A    
C65   H3    S    
C89   O41   A    
O117  S10   S    
O5    S15   D    
C12   C142  A    
C14   C25   A    
C130  O40   A    
C124  O62   A    
O66   Zn3   S    
C98   C107  T    
O35   Zn11  S    
C7    C20   A    
C75   O86   S    
O17   S3    S    
O12   S2    D    
C36   C49   A    
C157  C173  A    
C149  S2    S    
H30   O81   S    
O44   Zn7   S    
C9    C146  A    
C40   C62   A    
C24   C55   A    
C141  S10   S    
C66   H2    S    
C153  C176  A    
C154  C175  A    
C147  S15   S    
O19   S4    D    
O32   S8    D    
C74   C163  S    
C125  O59   A    
C129  O68   A    
C9    C22   A    
C145  C162  A    
O74   Zn1   S    
C43   C79   S    
O96   Zn6   S    
C3    C18   A    
C85   O104  D    
O36   Zn10  S    
C137  O51   A    
C87   C114  T    
C3    C12   A    
O33   S8    S    
C52   C166  A    
C4    C19   A    
C81   O97   S    
O34   Zn8   S    
C17   C138  S    
O22   S5    D    
O128  S14   D    
H53   O10   S    
C17   C176  A    
C42   C51   A    
H41   O103  S    
C56   H23   S    
C114  C124  S    
C18   C175  A    
H55   O17   S    
C15   C23   A    
O45   Zn6   S    
C14   C141  A    
C128  O67   A    
O25   S6    D    
O64   Zn2   S    
C118  C128  S    
C35   C99   S    
O110  S1    D    
C26   C43   A    
C28   C45   A    
C61   H7    S    
C31   C44   A    
C58   H12   S    
C86   C171  S    
C37   H20   S    
C59   H1    S    
C74   O83   S    
O126  S13   D    
C73   C158  S    
O11   S2    D    
O7    S15   S    
C75   C164  S    
C27   H10   S    
C130  O38   A    
C163  C167  A    
C122  O36   A    
C72   O79   S    
H38   O97   S    
C24   C60   A    
C75   O84   D    
C153  C171  A    
H60   O30   S    
C8    C21   A    
C38   H21   S    
C154  C172  A    
O59   Zn12  S    
O4    S14   S    
C31   C53   A    
C1    C104  S    
O72   Zn4   S    
C59   C166  A    
C1    O1    A    
O115  S10   D    
H58   O23   S    
O30   S7    S    
O38   Zn1   S    
C16   C139  A    
C135  O47   A    
C97   C106  T    
O122  S12   D    
C136  O48   A    
C154  S7    S    
O9    S16   D    
C7    C148  A    
C4    C151  A    
H42   O105  S    
C160  C170  A    
C22   C132  S    
O20   S4    S    
H44   O111  S    
H27   O75   S    
C142  C160  A    
C82   O98   D    
O52   Zn6   S    
C129  O70   A    
C50   C93   S    
C142  S11   S    
C73   O81   S    
C39   C63   A    
C144  O13   A    
C11   C22   A    
C115  C125  S    
C15   C175  A    
C36   H19   S    
C161  C169  A    
C5    C10   A    
O1    Zn1   S    
C111  O63   A    
C150  S3    S    
C41   C48   A    
C78   O92   S    
C20   C135  S    
C51   C94   S    
C39   C50   A    
O15   S3    D    
C121  O56   A    
C85   O105  S    
H50   O127  S    
C55   H63   S    
O27   S6    S    
C60   H34   S    
C131  O42   A    
C76   O87   D    
