data_mof_unit_52619.cif
_audit_creation_date              2012-12-10T16:37:35-0500
_audit_creation_method            fapswitch 2.2
_symmetry_space_group_name_H-M    P1
_symmetry_Int_Tables_number       1
_space_group_crystal_system       triclinic
_cell_length_a                    10.896496
_cell_length_b                    10.814267
_cell_length_c                    15.652561
_cell_angle_alpha                 95.585365
_cell_angle_beta                  74.10027
_cell_angle_gamma                 97.946872
_cell_volume                      1753.43529552

loop_
_atom_site_label
_atom_site_type_symbol
_atom_type_description
_atom_site_fract_x
_atom_site_fract_y
_atom_site_fract_z
_atom_type_partial_charge
C1    C     C_R   0.158911 0.481284 0.520664 0.763178
C2    C     C_R   0.518474 0.505760 0.118854 0.088280
C3    C     C_R   0.674035 0.364234 0.117623 -0.215563
C4    C     C_R   0.842582 0.516582 0.476883 0.968315
C5    C     C_R   0.418392 0.567055 0.839790 -0.119995
C6    C     C_2   0.980589 0.507967 0.460653 -0.036015
C7    C     C_2   0.024300 0.489376 0.531220 -0.207855
C8    C     C_2   0.541261 0.967445 0.467025 -0.178218
C9    C     C_2   0.461518 0.036429 0.527578 -0.324069
C10   C     C_R   0.466797 0.168649 0.522306 0.941822
C11   C     C_R   0.529619 0.833871 0.479124 0.791670
C12   C     C_R   0.245380 0.572942 0.977129 0.225187
C13   C     C_R   0.553403 0.449154 0.259508 0.847562
C14   C     C_R   0.448447 0.555667 0.741509 0.810666
C15   C     C_R   0.718990 0.365398 0.025389 -0.001559
C16   C     C_R   0.576644 0.434739 0.163942 -0.057289
C17   C     C_R   0.295106 0.596158 0.886792 -0.183748
C18   C     C_2   0.952138 0.513069 0.626104 0.437514
C19   C     C_2   0.640886 0.018822 0.387920 0.405575
C20   C     C_3   0.757291 0.316200 0.822888 -0.462659
C21   C     C_3   0.702090 0.258981 0.745802 -0.762106
C22   C     C_2   0.850348 0.329435 0.985324 0.360084
C23   C     C_R   0.323546 0.526279 0.020843 -0.276455
C24   C     C_3   0.454577 0.620431 0.167289 -0.449200
C25   C     C_3   0.550045 0.723170 0.195982 -0.794871
C26   C     C_3   0.108977 0.591556 0.029749 -0.418914
C27   C     C_3   0.029463 0.648921 0.980413 -0.859489
C28   C     C_3   0.072003 0.508349 0.366460 -0.431712
C29   C     C_3   0.015017 0.527410 0.290271 -0.816687
C30   C     C_R   0.453974 0.514045 0.979056 0.075556
C31   C     C_R   0.499962 0.527755 0.886718 0.042776
C32   C     C_R   0.537480 0.478896 0.025894 0.035157
C33   C     C_R   0.645883 0.416453 0.977290 -0.023403
C34   C     C_R   0.677937 0.412353 0.882944 0.114910
C35   C     C_R   0.622571 0.492431 0.843453 -0.163483
H1    H     H_    0.725306 0.320859 0.154966 0.189980
H2    H     H_    0.753602 0.178273 0.712679 0.237434
H3    H     H_    0.856956 0.359424 0.795788 0.190198
H4    H     H_    0.758808 0.235477 0.860966 0.228151
H5    H     H_    0.912314 0.373288 0.927105 0.062618
H6    H     H_    0.542633 0.720822 0.267797 0.260246
H7    H     H_    0.650402 0.714278 0.156420 0.267038
H8    H     H_    0.526966 0.817038 0.186528 0.238914
H9    H     H_    0.412699 0.667880 0.124593 0.226653
H10   H     H_    0.374998 0.591375 0.225813 0.188425
H11   H     H_    0.076386 0.742815 0.958985 0.270430
H12   H     H_    0.392819 0.995635 0.585016 0.143897
H13   H     H_    0.016711 0.587353 0.921725 0.244686
H14   H     H_    0.932749 0.659579 0.025643 0.257823
H15   H     H_    0.057386 0.499642 0.052476 0.229884
H16   H     H_    0.113344 0.653662 0.090034 0.209282
H17   H     H_    0.931672 0.456112 0.288814 0.270951
H18   H     H_    0.986722 0.623257 0.296016 0.277527
H19   H     H_    0.088995 0.516699 0.226067 0.223732
H20   H     H_    0.153539 0.582907 0.365441 0.204161
H21   H     H_    0.111437 0.416989 0.350662 0.243632
H22   H     H_    0.234616 0.626951 0.850610 0.173956
H23   H     H_    0.281644 0.499946 0.088656 0.141885
H24   H     H_    0.671054 0.514436 0.776120 0.218640
H25   H     H_    0.971548 0.463146 0.676718 0.030876
H26   H     H_    0.692571 0.955143 0.337206 0.093219
H27   H     H_    0.598349 0.225404 0.770789 0.264266
H28   H     H_    0.715062 0.327826 0.695084 0.282409
O1    O     O_3   0.500000 0.500000 0.500000 -0.489874
O2    O     O_R   0.463530 0.379110 0.309170 -0.630224
O3    O     O_R   0.388210 0.611730 0.699360 -0.645327
O4    O     O_R   0.624720 0.532760 0.292120 -0.652294
O5    O     O_R   0.523540 0.476390 0.699360 -0.656951
O6    O     O_2   0.881831 0.595798 0.648925 -0.586053
O7    O     O_2   0.667888 0.130889 0.378325 -0.580394
O8    O     O_2   0.892286 0.252443 0.018547 -0.563149
O9    O     O_R   0.537910 0.240570 0.564270 -0.637674
O10   O     O_R   0.438950 0.782540 0.540270 -0.624220
O11   O     O_R   0.222350 0.398740 0.468260 -0.646268
O12   O     O_R   0.800790 0.578160 0.427210 -0.646154
O13   O     O_R   0.212140 0.566330 0.564260 -0.638906
O14   O     O_R   0.764730 0.456770 0.540270 -0.638452
O15   O     O_R   0.412790 0.208310 0.468260 -0.614275
O16   O     O_R   0.610350 0.768590 0.427210 -0.670689
Zn1   Zn    Zn3+2 0.580150 0.419820 0.574680 0.988351
Zn2   Zn    Zn3+2 0.401380 0.373730 0.437510 0.991377
Zn3   Zn    Zn3+2 0.631680 0.593260 0.413140 0.969691
Zn4   Zn    Zn3+2 0.386790 0.613180 0.574670 0.975608

loop_
_geom_bond_atom_site_label_1
_geom_bond_atom_site_label_2
_ccdc_geom_bond_type
C27   H13   S    
O5    Zn1   S    
C23   H23   S    
C25   H8    S    
C10   O15   A    
C13   O2    A    
C12   C23   A    
C26   C27   S    
C1    O11   A    
C2    C32   A    
C28   C29   S    
C26   H15   S    
C30   C31   A    
C5    C17   A    
C29   H19   S    
C35   H24   S    
C34   C35   A    
C4    O12   A    
O3    Zn4   S    
C15   C22   S    
C6    C28   S    
C8    C9    D    
C12   C17   A    
C2    C16   A    
C9    C10   S    
C20   C34   S    
C18   O6    D    
O1    Zn1   S    
O13   Zn4   S    
C28   H20   S    
C28   H21   S    
C8    C19   S    
C23   C30   A    
C24   C25   S    
C4    C6    S    
C11   O10   A    
C25   H6    S    
C20   H4    S    
C5    C14   S    
C12   C26   S    
O1    Zn4   S    
C20   H3    S    
O2    Zn2   S    
C7    C18   S    
C22   H5    S    
C33   C34   A    
C14   O3    A    
O1    Zn3   S    
C21   H27   S    
C11   O16   A    
C27   H11   S    
C18   H25   S    
C9    H12   S    
C2    C24   S    
C24   H9    S    
C31   C35   A    
C24   H10   S    
O11   Zn2   S    
C22   O8    D    
C3    C15   A    
C13   O4    A    
O14   Zn1   S    
C1    C7    S    
C1    O13   A    
C25   H7    S    
O16   Zn3   S    
O12   Zn3   S    
C6    C7    D    
C32   C33   A    
C4    O14   A    
O9    Zn1   S    
C26   H16   S    
C30   C32   A    
O15   Zn2   S    
C29   H18   S    
C3    H1    S    
C19   H26   S    
C8    C11   S    
O10   Zn4   S    
O1    Zn2   S    
C21   H28   S    
C21   H2    S    
C20   C21   S    
O4    Zn3   S    
C13   C16   S    
C14   O5    A    
C19   O7    D    
C15   C33   A    
C3    C16   A    
C27   H14   S    
C17   H22   S    
C5    C31   A    
C29   H17   S    
C10   O9    A    
