data_mof_unit_49386.cif
_audit_creation_date              2012-12-11T17:37:46-0500
_audit_creation_method            fapswitch 2.2
_symmetry_space_group_name_H-M    P1
_symmetry_Int_Tables_number       1
_space_group_crystal_system       triclinic
_cell_length_a                    12.92081
_cell_length_b                    12.988928
_cell_length_c                    15.334606
_cell_angle_alpha                 116.145126
_cell_angle_beta                  64.211788
_cell_angle_gamma                 96.891937
_cell_volume                      2071.96025447

loop_
_atom_site_label
_atom_site_type_symbol
_atom_type_description
_atom_site_fract_x
_atom_site_fract_y
_atom_site_fract_z
_atom_type_partial_charge
C1    C     C_R   0.000510 0.832808 0.053058 -0.106871
C2    C     C_R   0.296909 0.597595 0.793531 -0.156353
C3    C     C_R   0.259563 0.415881 0.047596 -0.115298
C4    C     C_R   0.679814 0.461144 0.220007 -0.129973
C5    C     C_R   0.049039 0.279047 0.685049 -0.144009
C6    C     C_R   0.361948 0.433833 0.974614 0.155205
C7    C     C_R   0.032487 0.170328 0.680886 0.050542
C8    C     C_R   0.293242 0.569256 0.697743 0.057184
C9    C     C_R   0.008517 0.152034 0.045130 0.072173
C10   C     C_R   0.452688 0.791789 0.162809 -0.076378
C11   C     C_R   0.349173 0.817002 0.256391 0.011942
C12   C     C_R   0.674797 0.526666 0.321765 0.048261
C13   C     C_R   0.279128 0.920412 0.302052 -0.099632
C14   C     C_R   0.315337 0.996815 0.252518 -0.018760
C15   C     C_R   0.420645 0.969482 0.160246 -0.040234
C16   C     C_R   0.755016 0.519823 0.893022 -0.185523
C17   C     C_R   0.488186 0.867768 0.115780 -0.215140
C18   C     C_R   0.154521 0.040350 0.496195 -0.249956
C19   C     C_R   0.048249 0.067603 0.586663 0.069355
C20   C     C_R   0.954867 0.000198 0.584286 0.014233
C21   C     C_R   0.969551 0.907024 0.490403 -0.242060
C22   C     C_R   0.072810 0.882524 0.398448 0.061238
C23   C     C_R   0.662181 0.459119 0.925398 0.166707
C24   C     C_R   0.167609 0.947454 0.399723 -0.006668
C25   C     C_R   0.791536 0.967889 0.732583 -0.246769
C26   C     C_R   0.675680 0.988109 0.806772 -0.097939
C27   C     C_R   0.601987 0.069442 0.818702 0.043749
C28   C     C_R   0.015475 0.697031 0.301448 -0.146962
C29   C     C_R   0.646806 0.131750 0.757031 -0.245430
C30   C     C_R   0.763297 0.113508 0.684760 -0.096037
C31   C     C_R   0.836087 0.030819 0.671515 0.133821
C32   C     C_R   0.856207 0.321523 0.381436 -0.114533
C33   C     C_R   0.754753 0.367175 0.394809 -0.119282
C34   C     C_R   0.070462 0.793639 0.302964 0.060817
C35   C     C_R   0.699341 0.473034 0.482455 0.114664
C36   C     C_R   0.745407 0.530194 0.557933 -0.188598
C37   C     C_R   0.845683 0.483124 0.545116 -0.126691
C38   C     C_R   0.901492 0.379279 0.456562 -0.100814
C39   C     C_R   0.495864 0.543824 0.592513 -0.231756
C40   C     C_R   0.676383 0.421701 0.990486 -0.078544
C41   C     C_R   0.388062 0.576781 0.607853 0.071447
C42   C     C_R   0.373916 0.595941 0.530079 0.017885
C43   C     C_R   0.471064 0.579322 0.435857 -0.231432
C44   C     C_R   0.577899 0.542799 0.419911 0.060580
C45   C     C_R   0.338170 0.515849 0.950441 -0.101297
C46   C     C_R   0.591156 0.522935 0.497982 0.020777
C47   C     C_R   0.221740 0.569920 0.464114 -0.111544
C48   C     C_R   0.116098 0.604258 0.476061 -0.120527
C49   C     C_R   0.048744 0.700989 0.567530 -0.130116
C50   C     C_R   0.086537 0.763127 0.647704 -0.109178
C51   C     C_R   0.192071 0.728801 0.636293 -0.132754
C52   C     C_R   0.094055 0.800619 0.209333 -0.132210
C53   C     C_R   0.260715 0.631911 0.544159 0.088001
C54   C     C_2   0.475497 0.392926 0.947170 -0.213348
C55   C     C_2   0.567896 0.436377 0.895009 -0.221320
C56   C     C_R   0.970037 0.179671 0.783261 -0.108868
C57   C     C_2   0.833146 0.956475 0.086580 -0.201260
C58   C     C_2   0.817948 0.038745 0.183344 -0.159255
C59   C     C_R   0.783690 0.552948 0.314148 -0.112892
C60   C     C_R   0.901081 0.747782 0.955174 -0.145875
C61   C     C_R   0.912881 0.852142 0.030606 0.128731
C62   C     C_2   0.316763 0.735676 0.306401 0.461129
C63   C     C_2   0.242525 0.103043 0.293582 0.460549
C64   C     C_2   0.477934 0.088203 0.892905 0.461646
C65   C     C_R   0.198817 0.508866 0.695630 -0.119567
C66   C     C_R   0.052340 0.255435 0.088431 -0.136319
C67   C     C_R   0.951133 0.171904 0.994840 -0.128278
H1    H     H_    0.029697 0.895043 0.110695 0.098662
H2    H     H_    0.610168 0.422809 0.198744 0.120082
H3    H     H_    0.450447 0.026389 0.121293 0.185847
H4    H     H_    0.225422 0.093324 0.500126 0.137536
H5    H     H_    0.895821 0.858126 0.487297 0.137400
H6    H     H_    0.846373 0.902814 0.722290 0.112744
H7    H     H_    0.643280 0.938488 0.853010 0.136397
H8    H     H_    0.591148 0.192690 0.762909 0.135596
H9    H     H_    0.795897 0.160890 0.636428 0.115137
H10   H     H_    0.979697 0.343453 0.446282 0.114692
H11   H     H_    0.777381 0.548281 0.830967 0.096753
H12   H     H_    0.939517 0.110896 0.806709 0.100896
H13   H     H_    0.899771 0.241234 0.312960 0.113390
H14   H     H_    0.719964 0.320671 0.336578 0.122931
H15   H     H_    0.703846 0.611420 0.626450 0.114426
H16   H     H_    0.880313 0.527362 0.603733 0.115652
H17   H     H_    0.504562 0.524069 0.650956 0.129238
H18   H     H_    0.272909 0.494680 0.392701 0.149336
H19   H     H_    0.086691 0.555965 0.414150 0.123482
H20   H     H_    0.967203 0.727363 0.576165 0.109934
H21   H     H_    0.220703 0.778189 0.698653 0.119842
H22   H     H_    0.478976 0.348077 0.991027 0.136650
H23   H     H_    0.166299 0.480868 0.635360 0.103598
H24   H     H_    0.565693 0.477149 0.847482 0.129623
H25   H     H_    0.779917 0.964019 0.050715 0.130729
H26   H     H_    0.865483 0.034653 0.225330 0.127921
H27   H     H_    0.630686 0.358531 0.017606 0.088645
H28   H     H_    0.144422 0.861801 0.181638 0.105634
H29   H     H_    0.809715 0.600650 0.378325 0.107093
H30   H     H_    0.837714 0.731325 0.923415 0.097504
H31   H     H_    0.396767 0.554685 0.900395 0.088090
H32   H     H_    0.089337 0.302212 0.618710 0.100879
H33   H     H_    0.246317 0.759625 0.385619 0.050841
H34   H     H_    0.089807 0.274972 0.144096 0.113593
H35   H     H_    0.156278 0.121081 0.358125 0.018435
H36   H     H_    0.421749 0.148890 0.898581 0.013510
H37   H     H_    0.463876 0.595054 0.374781 0.174237
H38   H     H_    0.034223 0.838042 0.718600 0.105566
H39   H     H_    0.993973 0.660743 0.357979 0.095372
H40   H     H_    0.894583 0.114339 0.964608 0.093198
H41   H     H_    0.353855 0.654055 0.824398 0.109286
H42   H     H_    0.249672 0.361459 0.086784 0.113875
H43   H     H_    0.568644 0.847622 0.044245 0.122532
H44   H     H_    0.507399 0.713515 0.126422 0.160241
N1    N     N_R   0.037320 0.720000 0.995830 -0.045362
N2    N     N_R   0.824900 0.517970 0.936430 -0.040364
N3    N     N_R   0.003190 0.648180 0.211390 -0.038336
N4    N     N_R   0.774330 0.457010 0.995830 -0.049048
N5    N     N_R   0.053760 0.709130 0.151980 -0.041406
N6    N     N_R   0.853840 0.498830 0.211390 -0.042907
N7    N     N_R   0.974250 0.667320 0.936430 -0.040659
N8    N     N_R   0.225670 0.542990 0.004170 -0.047072
N9    N     N_R   0.946240 0.290870 0.848020 -0.042321
N10   N     N_R   0.146160 0.501170 0.788610 -0.041004
N11   N     N_R   0.025750 0.332680 0.063570 -0.043887
N12   N     N_R   0.962680 0.280000 0.004170 -0.043104
N13   N     N_R   0.209230 0.553860 0.848010 -0.040710
N14   N     N_R   0.175100 0.482030 0.063570 -0.046320
N15   N     N_R   0.996810 0.351820 0.788610 -0.039770
N16   N     N_R   0.790770 0.446140 0.151990 -0.044461
Ni1   Ni    Ni4+2 0.130310 0.630310 0.000000 0.224384
Ni2   Ni    Ni4+2 0.869690 0.369690 0.000000 0.216296
Ni3   Ni    Ni4+2 0.985660 0.509480 0.863750 0.211782
Ni4   Ni    Ni4+2 0.014340 0.490520 0.136250 0.220020
O1    O     O_2   0.368701 0.640474 0.259515 -0.613268
O2    O     O_2   0.277784 0.171912 0.254996 -0.589685
O3    O     O_2   0.436674 0.035824 0.948082 -0.594211

loop_
_geom_bond_atom_site_label_1
_geom_bond_atom_site_label_2
_ccdc_geom_bond_type
C25   C31   A    
C64   H36   S    
C6    C45   A    
C27   C29   A    
N3    Ni4   S    
C49   H20   S    
C19   C20   A    
N10   Ni3   S    
C3    C6    A    
C16   N2    A    
N16   Ni2   S    
C39   C41   A    
C26   C27   A    
C29   C30   A    
C56   H12   S    
C65   N10   A    
C18   C24   A    
C63   O2    D    
C36   C37   A    
C57   H25   S    
C58   H26   S    
C39   H17   S    
C45   H31   S    
C1    N1    A    
C30   C31   A    
N9    N15   A    
C40   N4    A    
N15   Ni3   S    
C10   C17   A    
C23   C40   A    
C1    H1    S    
C52   H28   S    
C18   C19   A    
C41   C42   A    
C9    C66   A    
N10   N13   A    
C55   H24   S    
C33   C35   A    
C43   H37   S    
C12   C59   A    
C35   C36   A    
C29   H8    S    
C28   H39   S    
C5    N15   A    
C50   H38   S    
C66   N11   A    
C60   N7    A    
C32   C38   A    
C4    C12   A    
C25   H6    S    
C47   C53   A    
N8    Ni1   S    
C45   N8    A    
C28   C34   A    
C8    C65   A    
C59   N6    A    
C21   C22   A    
C17   H43   S    
C56   N9    A    
C66   H34   S    
C7    C56   A    
C6    C54   S    
C63   H35   S    
C4    H2    S    
C44   C46   A    
C52   N5    A    
C65   H23   S    
C22   C34   S    
C64   O3    D    
N2    Ni3   S    
C21   H5    S    
N9    Ni2   S    
C62   O1    D    
C8    C41   S    
C54   H22   S    
C60   H30   S    
C10   C11   A    
C36   H15   S    
C5    C7    A    
C48   H19   S    
C25   C26   A    
C13   C24   S    
C1    C61   A    
C60   C61   A    
C51   C53   A    
C43   C44   A    
C9    C67   A    
C37   C38   A    
N7    Ni3   S    
C32   H13   S    
C30   H9    S    
N14   Ni4   S    
C47   C48   A    
C50   C51   A    
C10   H44   S    
C57   C61   S    
N6    N16   A    
C28   N3    A    
C39   C46   A    
C62   H33   S    
N8    N14   A    
C48   C49   A    
C16   C23   A    
C7    C19   S    
N5    Ni1   S    
C22   C24   A    
C42   C43   A    
C47   H18   S    
N11   Ni4   S    
N4    Ni2   S    
C18   H4    S    
C15   C17   A    
C15   H3    S    
C54   C55   D    
C4    N16   A    
C2    C8    A    
C40   H27   S    
C67   N12   A    
C51   H21   S    
N3    N5    A    
C3    N14   A    
C23   C55   S    
C5    H32   S    
C38   H10   S    
C2    N13   A    
C11   C62   S    
C34   C52   A    
N13   Ni1   S    
C32   C33   A    
C42   C53   S    
N1    N7    A    
C11   C13   A    
C67   H40   S    
C57   C58   D    
C3    H42   S    
C14   C63   S    
C2    H41   S    
C26   H7    S    
C16   H11   S    
N6    Ni4   S    
N1    Ni1   S    
C27   C64   S    
C20   C21   A    
C12   C44   S    
C49   C50   A    
C59   H29   S    
C14   C15   A    
C37   H16   S    
N11   N12   A    
C13   C14   A    
C35   C46   S    
C33   H14   S    
N12   Ni2   S    
N2    N4    A    
C20   C31   S    
