data_mof_unit_17794.cif
_audit_creation_date              2012-12-11T15:12:16-0500
_audit_creation_method            fapswitch 2.2
_symmetry_space_group_name_H-M    P1
_symmetry_Int_Tables_number       1
_space_group_crystal_system       triclinic
_cell_length_a                    31.261449
_cell_length_b                    22.617861
_cell_length_c                    18.056706
_cell_angle_alpha                 90.000579
_cell_angle_beta                  123.509473
_cell_angle_gamma                 89.997671
_cell_volume                      10645.3076397

loop_
_atom_site_label
_atom_site_type_symbol
_atom_type_description
_atom_site_fract_x
_atom_site_fract_y
_atom_site_fract_z
_atom_type_partial_charge
Br1   Br    Br    0.510046 0.571513 0.798711 -0.467197
Br2   Br    Br    0.319483 0.564353 0.035801 -0.447647
Br3   Br    Br    0.313590 0.374500 0.081710 -0.484901
Br4   Br    Br    0.680554 0.564336 0.964211 -0.447769
Br5   Br    Br    0.186496 0.874320 0.918204 -0.485148
Br6   Br    Br    0.819461 0.064310 0.035813 -0.447702
Br7   Br    Br    0.813495 0.874325 0.081786 -0.485123
Br8   Br    Br    0.180638 0.064486 0.964166 -0.448001
Br9   Br    Br    0.492638 0.393711 0.214437 -0.477720
Br10  Br    Br    0.489951 0.571533 0.201287 -0.467070
Br11  Br    Br    0.507326 0.393656 0.785487 -0.478019
Br12  Br    Br    0.010051 0.071513 0.798715 -0.467181
Br13  Br    Br    0.992640 0.893689 0.214449 -0.477847
Br14  Br    Br    0.989951 0.071511 0.201286 -0.467159
Br15  Br    Br    0.007326 0.893658 0.785489 -0.478060
Br16  Br    Br    0.686514 0.374294 0.918169 -0.485212
C1    C     C_R   0.542134 0.589640 0.736486 0.298372
C2    C     C_R   0.272938 0.697053 0.478256 0.077218
C3    C     C_R   0.355660 0.199893 0.126307 0.080977
C4    C     C_R   0.833642 0.242755 0.021029 0.082807
C5    C     C_R   0.144309 0.699748 0.873334 0.081029
C6    C     C_R   0.166313 0.242952 0.978644 0.082767
C7    C     C_R   0.855705 0.699757 0.126645 0.081019
C8    C     C_R   0.252714 0.693489 0.976012 0.048787
C9    C     C_R   0.726846 0.241049 0.916637 0.050812
C10   C     C_R   0.747300 0.693483 0.023985 0.048804
C11   C     C_R   0.273118 0.241268 0.082991 0.050779
C12   C     C_R   0.752697 0.193454 0.975974 0.048796
C13   C     C_R   0.247570 0.358638 0.511736 0.052843
C14   C     C_R   0.226862 0.741088 0.916687 0.050805
C15   C     C_R   0.247261 0.193672 0.023668 0.048815
C16   C     C_R   0.773149 0.741085 0.083305 0.050810
C17   C     C_R   0.754048 0.279554 0.894715 0.032963
C18   C     C_R   0.222998 0.652885 0.990600 0.031521
C19   C     C_R   0.245912 0.279798 0.104887 0.032993
C20   C     C_R   0.777019 0.652886 0.009391 0.031533
C21   C     C_R   0.254067 0.779613 0.894794 0.032978
C22   C     C_R   0.722980 0.152867 0.990585 0.031524
C23   C     C_R   0.745942 0.779603 0.105207 0.032966
C24   C     C_R   0.727146 0.697135 0.522040 0.077215
C25   C     C_R   0.276957 0.153090 0.008999 0.031628
C26   C     C_R   0.807560 0.283441 0.951538 -0.003763
C27   C     C_R   0.168930 0.651852 0.931017 -0.023373
C28   C     C_R   0.192399 0.283685 0.048063 -0.003845
C29   C     C_R   0.831089 0.651858 0.068967 -0.023383
C30   C     C_R   0.307578 0.783509 0.951638 -0.003769
C31   C     C_R   0.668910 0.151843 0.931016 -0.023381
C32   C     C_R   0.692430 0.783491 0.048377 -0.003773
C33   C     C_R   0.331026 0.152037 0.068549 -0.023276
C34   C     C_R   0.574796 0.610356 0.425346 -0.168491
C35   C     C_R   0.252202 0.858595 0.487635 0.052837
C36   C     C_R   0.406013 0.417600 0.575643 -0.126826
C37   C     C_R   0.425234 0.610382 0.574646 -0.168797
C38   C     C_R   0.593959 0.417524 0.424350 -0.126981
C39   C     C_R   0.074794 0.110356 0.425345 -0.168594
C40   C     C_R   0.906012 0.917598 0.575641 -0.126822
C41   C     C_R   0.925235 0.110380 0.574648 -0.168716
C42   C     C_R   0.093959 0.917530 0.424347 -0.126913
C43   C     C_R   0.386850 0.593049 0.265706 -0.141141
C44   C     C_R   0.604644 0.390952 0.705345 -0.116745
C45   C     C_R   0.613154 0.593036 0.734306 -0.141126
C46   C     C_R   0.772924 0.197062 0.478180 0.077214
C47   C     C_R   0.395362 0.390951 0.294656 -0.116804
C48   C     C_R   0.886846 0.093039 0.265694 -0.141135
C49   C     C_R   0.104646 0.890954 0.705350 -0.116770
C50   C     C_R   0.113143 0.093058 0.734282 -0.141061
C51   C     C_R   0.895354 0.890957 0.294645 -0.116775
C52   C     C_R   0.590095 0.614520 0.776322 0.016917
C53   C     C_R   0.421382 0.360992 0.263721 -0.013939
C54   C     C_R   0.409913 0.614542 0.223704 0.016879
C55   C     C_R   0.578629 0.360981 0.736276 -0.013688
C56   C     C_R   0.090077 0.114549 0.776283 0.016949
C57   C     C_R   0.747478 0.858655 0.511480 0.052831
C58   C     C_R   0.921366 0.860992 0.263703 -0.013660
C59   C     C_R   0.909906 0.114525 0.223683 0.016881
C60   C     C_R   0.078632 0.860984 0.736283 -0.013699
C61   C     C_R   0.610917 0.641627 0.498936 0.089926
C62   C     C_R   0.359378 0.401794 0.503435 0.043578
C63   C     C_R   0.389110 0.641656 0.501057 0.089911
C64   C     C_R   0.640578 0.401675 0.496560 0.043704
C65   C     C_R   0.110923 0.141622 0.498932 0.089938
C66   C     C_R   0.859377 0.901790 0.503431 0.043589
C67   C     C_R   0.889117 0.141658 0.501060 0.089931
C68   C     C_R   0.227113 0.197101 0.521865 0.077214
C69   C     C_R   0.140581 0.901684 0.496551 0.043650
C70   C     C_R   0.667878 0.306138 0.482080 -0.035952
C71   C     C_R   0.360807 0.742901 0.492459 -0.036234
C72   C     C_R   0.332121 0.306246 0.517968 -0.035903
C73   C     C_R   0.638944 0.742906 0.506743 -0.036208
C74   C     C_R   0.167899 0.806133 0.482158 -0.035948
C75   C     C_R   0.860904 0.242907 0.492771 -0.036243
C76   C     C_R   0.832143 0.806263 0.518096 -0.035934
C77   C     C_R   0.139031 0.242889 0.506984 -0.036221
C78   C     C_R   0.676578 0.366780 0.491748 0.024207
C79   C     C_R   0.743825 0.296363 0.478268 -0.025114
C80   C     C_R   0.355340 0.682951 0.502353 0.023459
C81   C     C_R   0.323384 0.366883 0.508235 0.024267
C82   C     C_R   0.644681 0.682911 0.497620 0.023513
C83   C     C_R   0.176572 0.866783 0.491716 0.024205
C84   C     C_R   0.855345 0.182937 0.502370 0.023481
C85   C     C_R   0.823374 0.866891 0.508223 0.024259
C86   C     C_R   0.144684 0.182910 0.497612 0.023483
C87   C     C_R   0.716224 0.394073 0.490682 -0.044008
C88   C     C_R   0.313575 0.659968 0.500902 -0.037699
C89   C     C_R   0.283682 0.394149 0.509163 -0.044059
C90   C     C_R   0.280607 0.759108 0.481524 -0.026107
C91   C     C_R   0.686599 0.659945 0.499553 -0.037599
C92   C     C_R   0.216149 0.894078 0.490434 -0.044007
C93   C     C_R   0.813532 0.159948 0.500756 -0.037662
C94   C     C_R   0.783613 0.894162 0.508967 -0.044055
C95   C     C_R   0.186544 0.159941 0.499357 -0.037625
C96   C     C_R   0.256121 0.296422 0.521602 -0.025120
C97   C     C_R   0.464049 0.394213 0.284695 0.326925
C98   C     C_R   0.719263 0.759174 0.518125 -0.026052
C99   C     C_R   0.243766 0.796356 0.478097 -0.025101
C100  C     C_R   0.780663 0.259113 0.481691 -0.026085
C101  C     C_R   0.756084 0.796452 0.521550 -0.025116
C102  C     C_R   0.219297 0.259146 0.518174 -0.026071
C103  C     C_R   0.699110 0.270739 0.468107 0.071838
C104  C     C_R   0.325811 0.783095 0.491575 0.024911
C105  C     C_R   0.300888 0.270835 0.531915 0.071838
C106  C     C_R   0.673879 0.783103 0.507454 0.024963
C107  C     C_R   0.199110 0.770720 0.468148 0.071819
C108  C     C_R   0.457871 0.589655 0.263529 0.298420
C109  C     C_R   0.825931 0.283090 0.491974 0.024940
C110  C     C_R   0.800906 0.770876 0.532059 0.071856
C111  C     C_R   0.173975 0.283088 0.507727 0.024946
C112  C     C_R   0.797220 0.382410 0.497583 0.020596
C113  C     C_R   0.224886 0.673439 0.451916 0.016142
C114  C     C_R   0.202595 0.382421 0.501938 0.020627
C115  C     C_R   0.775316 0.673640 0.548864 0.016114
C116  C     C_R   0.297012 0.882432 0.496877 0.020602
C117  C     C_R   0.724834 0.173481 0.451673 0.016143
C118  C     C_R   0.702431 0.882424 0.501422 0.020619
C119  C     C_R   0.535953 0.394198 0.715291 0.326865
C120  C     C_R   0.275240 0.173572 0.548495 0.016125
C121  C     C_R   0.333689 0.845246 0.500620 0.007356
C122  C     C_R   0.687602 0.210233 0.445514 -0.029341
C123  C     C_R   0.665763 0.845202 0.497631 0.007226
C124  C     C_R   0.312451 0.210352 0.554640 -0.029323
C125  C     C_R   0.833897 0.345219 0.501340 0.007303
C126  C     C_R   0.187642 0.710187 0.445727 -0.029356
C127  C     C_R   0.165928 0.345203 0.498156 0.007254
C128  C     C_R   0.812518 0.710427 0.554989 -0.029292
C129  C     C_R   0.386973 0.655932 0.149762 0.015627
C130  C     C_R   0.042125 0.089653 0.736468 0.298303
C131  C     C_R   0.597672 0.306579 0.788623 0.028257
C132  C     C_R   0.613037 0.655908 0.850267 0.015654
C133  C     C_R   0.402325 0.306643 0.211272 0.028143
C134  C     C_R   0.886959 0.155902 0.149722 0.015641
C135  C     C_R   0.097677 0.806587 0.788637 0.028266
C136  C     C_R   0.113000 0.155973 0.850178 0.015730
C137  C     C_R   0.902324 0.806595 0.211348 0.028232
C138  C     C_R   0.385844 0.750691 0.087166 -0.163195
C139  C     C_R   0.590608 0.202797 0.814617 -0.175197
C140  C     C_R   0.614161 0.750666 0.912866 -0.163141
C141  C     C_R   0.964041 0.894207 0.284689 0.326839
C142  C     C_R   0.409343 0.202892 0.185078 -0.175076
C143  C     C_R   0.885829 0.250640 0.087073 -0.163160
C144  C     C_R   0.090625 0.702799 0.814616 -0.175220
C145  C     C_R   0.114108 0.250777 0.912655 -0.163271
C146  C     C_R   0.909389 0.702811 0.185361 -0.175171
C147  C     C_R   0.411397 0.709942 0.155786 0.006914
C148  C     C_R   0.567516 0.254758 0.766586 0.006860
C149  C     C_R   0.588608 0.709916 0.844250 0.006902
C150  C     C_R   0.432449 0.254800 0.233254 0.006989
C151  C     C_R   0.911382 0.209906 0.155715 0.006932
C152  C     C_R   0.957867 0.089644 0.263519 0.298393
C153  C     C_R   0.067528 0.754759 0.766592 0.006847
C154  C     C_R   0.088547 0.209971 0.844118 0.006851
C155  C     C_R   0.932480 0.754771 0.233390 0.006848
C156  C     C_R   0.337155 0.645030 0.077558 0.289773
C157  C     C_R   0.650284 0.303600 0.852224 0.286181
C158  C     C_R   0.662862 0.645012 0.922458 0.289726
C159  C     C_R   0.349727 0.303742 0.147572 0.286431
C160  C     C_R   0.837138 0.144994 0.077530 0.289741
C161  C     C_R   0.150286 0.803619 0.852251 0.286175
C162  C     C_R   0.162846 0.145136 0.922326 0.289706
C163  C     C_R   0.035954 0.894200 0.715295 0.326868
C164  C     C_R   0.849715 0.803625 0.147733 0.286226
C165  C     C_R   0.307251 0.692683 0.024190 -0.064232
C166  C     C_R   0.674016 0.248275 0.879003 -0.065198
C167  C     C_R   0.692762 0.692669 0.975819 -0.064186
C168  C     C_R   0.325956 0.248450 0.120663 -0.065305
C169  C     C_R   0.807234 0.192640 0.024140 -0.064196
C170  C     C_R   0.174028 0.748299 0.879034 -0.065216
C171  C     C_R   0.192731 0.192833 0.975574 -0.064233
C172  C     C_R   0.825980 0.748303 0.120949 -0.065209
C173  C     C_R   0.625334 0.609281 0.573597 -0.146645
C174  C     C_R   0.752317 0.358589 0.488008 0.052833
C175  C     C_R   0.356876 0.416413 0.427871 -0.175207
C176  C     C_R   0.374668 0.609286 0.426403 -0.146334
C177  C     C_R   0.643106 0.416353 0.572129 -0.175276
C178  C     C_R   0.125347 0.109272 0.573594 -0.146550
C179  C     C_R   0.856876 0.916412 0.427869 -0.175209
C180  C     C_R   0.874678 0.109293 0.426403 -0.146449
C181  C     C_R   0.143108 0.916358 0.572124 -0.175268
C182  C     C_R   0.333658 0.742810 0.021112 0.082809
C183  C     C_R   0.644292 0.199737 0.873325 0.081025
C184  C     C_R   0.666351 0.742790 0.978907 0.082796
H1    H     H_    0.405980 0.790303 0.089260 0.148162
H2    H     H_    0.323578 0.415050 0.360355 0.105286
H3    H     H_    0.181850 0.609608 0.361550 0.116213
H4    H     H_    0.187380 0.460359 0.434142 0.113702
H5    H     H_    0.219042 0.467354 0.548520 0.134949
H6    H     H_    0.797991 0.592873 0.533686 0.118557
H7    H     H_    0.818429 0.610170 0.639895 0.116311
H8    H     H_    0.312260 0.960599 0.564154 0.113713
H9    H     H_    0.280153 0.967199 0.449648 0.135260
H10   H     H_    0.702398 0.092736 0.467451 0.118633
H11   H     H_    0.681777 0.109774 0.361075 0.116240
H12   H     H_    0.687226 0.960245 0.433362 0.113695
H13   H     H_    0.343416 0.618631 0.359168 0.103643
H14   H     H_    0.718712 0.967438 0.547680 0.134858
H15   H     H_    0.297797 0.092830 0.532966 0.118595
H16   H     H_    0.318340 0.109969 0.639273 0.116270
H17   H     H_    0.385753 0.871006 0.471026 0.108727
H18   H     H_    0.411533 0.855182 0.582703 0.107653
H19   H     H_    0.609205 0.212611 0.363453 0.132046
H20   H     H_    0.633201 0.177219 0.463966 0.124346
H21   H     H_    0.613255 0.871126 0.526106 0.108533
H22   H     H_    0.587909 0.854612 0.414788 0.107802
H23   H     H_    0.390838 0.212847 0.636820 0.132050
H24   H     H_    0.676412 0.414994 0.639638 0.105285
H25   H     H_    0.366946 0.177363 0.536408 0.124341
H26   H     H_    0.886138 0.371070 0.472202 0.108646
H27   H     H_    0.911746 0.354940 0.583728 0.107714
H28   H     H_    0.109238 0.712479 0.363785 0.131976
H29   H     H_    0.133324 0.677196 0.464403 0.124358
H30   H     H_    0.113561 0.371070 0.526991 0.108581
H31   H     H_    0.088074 0.354764 0.415561 0.107763
H32   H     H_    0.890896 0.713056 0.637297 0.132106
H33   H     H_    0.867115 0.677401 0.537046 0.124318
H34   H     H_    0.828524 0.322888 0.875126 0.106787
H35   H     H_    0.156599 0.118613 0.640829 0.103641
H36   H     H_    0.822489 0.369472 0.942708 0.123707
H37   H     H_    0.145096 0.605269 0.998107 0.106402
H38   H     H_    0.150938 0.565200 0.924549 0.125588
H39   H     H_    0.171443 0.323212 0.124439 0.106756
H40   H     H_    0.177470 0.369735 0.056789 0.123707
H41   H     H_    0.854922 0.605276 0.001872 0.106398
H42   H     H_    0.849092 0.565208 0.075441 0.125616
H43   H     H_    0.328554 0.822997 0.875270 0.106777
H44   H     H_    0.322496 0.869552 0.942854 0.123746
H45   H     H_    0.645083 0.105290 0.998139 0.106409
H46   H     H_    0.823576 0.915053 0.360353 0.105286
H47   H     H_    0.650904 0.065199 0.924577 0.125599
H48   H     H_    0.671464 0.822974 0.124766 0.106775
H49   H     H_    0.677497 0.869531 0.057157 0.123717
H50   H     H_    0.354826 0.105510 0.001362 0.106410
H51   H     H_    0.349002 0.065388 0.074896 0.125635
H52   H     H_    0.843428 0.118641 0.359169 0.103659
H53   H     H_    0.176415 0.914995 0.639632 0.105292
H54   H     H_    0.559270 0.622158 0.357463 0.148304
H55   H     H_    0.415894 0.419594 0.642790 0.178782
H56   H     H_    0.440782 0.622202 0.642531 0.148214
H57   H     H_    0.566794 0.164681 0.803596 0.148799
H58   H     H_    0.584078 0.419493 0.357202 0.178760
H59   H     H_    0.059259 0.122161 0.357459 0.148279
H60   H     H_    0.915891 0.919592 0.642788 0.178793
H61   H     H_    0.940775 0.122194 0.642532 0.148219
H62   H     H_    0.084076 0.919504 0.357197 0.178751
H63   H     H_    0.346933 0.597634 0.242519 0.123536
H64   H     H_    0.640085 0.377902 0.713183 0.125010
H65   H     H_    0.653070 0.597615 0.757491 0.123560
H66   H     H_    0.359918 0.377902 0.286806 0.124957
H67   H     H_    0.846928 0.097617 0.242504 0.123554
H68   H     H_    0.594021 0.790275 0.910777 0.148169
H69   H     H_    0.140088 0.877906 0.713191 0.124993
H70   H     H_    0.153056 0.097656 0.757457 0.123583
H71   H     H_    0.859913 0.877910 0.286811 0.125005
H72   H     H_    0.493869 0.280647 0.712014 0.152647
H73   H     H_    0.510389 0.269079 0.638042 0.090763
H74   H     H_    0.461532 0.720701 0.288616 0.096385
H75   H     H_    0.488248 0.695932 0.234066 0.148213
H76   H     H_    0.506127 0.280747 0.288232 0.152431
H77   H     H_    0.489467 0.268839 0.361940 0.090785
H78   H     H_    0.538458 0.720668 0.711422 0.096469
H79   H     H_    0.433135 0.164758 0.196065 0.148795
H80   H     H_    0.511758 0.695906 0.766000 0.148241
H81   H     H_    0.993881 0.780635 0.712036 0.152606
H82   H     H_    0.010396 0.769086 0.638052 0.090789
H83   H     H_    0.961519 0.220691 0.288541 0.096412
H84   H     H_    0.988235 0.195906 0.233999 0.148232
H85   H     H_    0.006127 0.780672 0.287994 0.152670
H86   H     H_    0.989597 0.769071 0.361944 0.090759
H87   H     H_    0.038317 0.220609 0.711285 0.096416
H88   H     H_    0.011704 0.195895 0.766031 0.148314
H89   H     H_    0.736562 0.356690 0.825159 0.133607
H90   H     H_    0.905965 0.290245 0.089144 0.148161
H91   H     H_    0.739688 0.296528 0.772827 0.096783
H92   H     H_    0.232487 0.634862 0.108547 0.095735
H93   H     H_    0.235227 0.574828 0.055583 0.154363
H94   H     H_    0.263388 0.356934 0.174440 0.133675
H95   H     H_    0.260264 0.296771 0.226769 0.096761
H96   H     H_    0.767526 0.634868 0.891438 0.095746
H97   H     H_    0.764798 0.574831 0.944406 0.154374
H98   H     H_    0.236581 0.856757 0.825255 0.133639
H99   H     H_    0.239724 0.796606 0.772923 0.096760
H100  H     H_    0.732481 0.134868 0.108549 0.095743
H101  H     H_    0.066816 0.664676 0.803584 0.148801
H102  H     H_    0.735203 0.074820 0.055588 0.154368
H103  H     H_    0.763420 0.856746 0.174744 0.133622
H104  H     H_    0.760295 0.796592 0.227087 0.096798
H105  H     H_    0.267420 0.135152 0.890992 0.095739
H106  H     H_    0.264701 0.075075 0.943901 0.154283
H107  H     H_    0.637136 0.291246 0.554895 0.116402
H108  H     H_    0.593225 0.297029 0.443254 0.115147
H109  H     H_    0.430233 0.780591 0.531105 0.099290
H110  H     H_    0.382896 0.783881 0.417553 0.114056
H111  H     H_    0.362937 0.291356 0.445267 0.116419
H112  H     H_    0.093955 0.290379 0.910545 0.148173
H113  H     H_    0.406801 0.297169 0.556923 0.115202
H114  H     H_    0.569290 0.780365 0.467155 0.099239
H115  H     H_    0.616427 0.784315 0.580741 0.114079
H116  H     H_    0.137257 0.791289 0.555142 0.116387
H117  H     H_    0.093278 0.797009 0.443514 0.115181
H118  H     H_    0.930408 0.280516 0.531750 0.099268
H119  H     H_    0.883130 0.284081 0.418196 0.114077
H120  H     H_    0.863014 0.791297 0.445501 0.116447
H121  H     H_    0.906840 0.797191 0.557156 0.115194
H122  H     H_    0.069453 0.280413 0.467736 0.099256
H123  H     H_    0.933203 0.664690 0.196392 0.148802
H124  H     H_    0.116671 0.284161 0.581302 0.114071
H125  H     H_    0.685906 0.474844 0.439558 0.130363
H126  H     H_    0.723570 0.471955 0.552607 0.104355
H127  H     H_    0.344059 0.590756 0.587462 0.136536
H128  H     H_    0.314009 0.571469 0.478255 0.116056
H129  H     H_    0.313949 0.474917 0.560361 0.130389
H130  H     H_    0.276374 0.472054 0.447305 0.104358
H131  H     H_    0.656392 0.590377 0.413632 0.136285
H132  H     H_    0.686458 0.571531 0.523001 0.115948
H133  H     H_    0.185783 0.974834 0.439311 0.130336
H134  H     H_    0.656581 0.618626 0.640834 0.103673
H135  H     H_    0.223547 0.971977 0.552359 0.104412
H136  H     H_    0.843928 0.090607 0.587084 0.136471
H137  H     H_    0.813872 0.071482 0.477815 0.116024
H138  H     H_    0.813824 0.974958 0.560086 0.130387
H139  H     H_    0.776324 0.972025 0.447032 0.104315
H140  H     H_    0.156240 0.090482 0.413243 0.136348
H141  H     H_    0.186318 0.071502 0.522567 0.115973
H142  H     H_    0.812440 0.460432 0.565188 0.113699
H143  H     H_    0.780590 0.467282 0.450758 0.135140
H144  H     H_    0.202554 0.592722 0.468013 0.118658
N1    N     N_R   0.532970 0.559900 0.665210 -0.074957
N2    N     N_R   0.402100 0.440070 0.454470 -0.046811
N3    N     N_R   0.402100 0.559930 0.454470 -0.045853
N4    N     N_R   0.597900 0.440070 0.545530 -0.046789
N5    N     N_R   0.097900 0.059930 0.545530 -0.045837
N6    N     N_R   0.902100 0.940070 0.454470 -0.046810
N7    N     N_R   0.902100 0.059930 0.454470 -0.045852
N8    N     N_R   0.097900 0.940070 0.545530 -0.046791
N9    N     N_R   0.567170 0.559950 0.454460 -0.037806
N10   N     N_R   0.432830 0.440050 0.545540 -0.051770
N11   N     N_R   0.432830 0.559950 0.545540 -0.037776
N12   N     N_R   0.467030 0.440100 0.334790 -0.069654
N13   N     N_R   0.567170 0.440050 0.454460 -0.051752
N14   N     N_R   0.067170 0.059950 0.454460 -0.037801
N15   N     N_R   0.932830 0.940050 0.545540 -0.051768
N16   N     N_R   0.932830 0.059950 0.545540 -0.037782
N17   N     N_R   0.067170 0.940050 0.454460 -0.051749
N18   N     N_R   0.421470 0.559970 0.334770 -0.057210
N19   N     N_R   0.578530 0.440030 0.665230 -0.053414
N20   N     N_R   0.578530 0.559970 0.665230 -0.057211
N21   N     N_R   0.421470 0.440030 0.334770 -0.053383
N22   N     N_R   0.921470 0.059970 0.334770 -0.057209
N23   N     N_R   0.467030 0.559900 0.334790 -0.074969
N24   N     N_R   0.078530 0.940030 0.665230 -0.053412
N25   N     N_R   0.078530 0.059970 0.665230 -0.057212
N26   N     N_R   0.921470 0.940030 0.334770 -0.053418
N27   N     N_3   0.514335 0.253175 0.695878 -0.217498
N28   N     N_3   0.461373 0.725024 0.230815 -0.214226
N29   N     N_3   0.485605 0.253136 0.304078 -0.217446
N30   N     N_3   0.538627 0.724995 0.769232 -0.214141
N31   N     N_3   0.014347 0.753172 0.695888 -0.217499
N32   N     N_3   0.961358 0.224999 0.230736 -0.214196
N33   N     N_3   0.985660 0.753184 0.304107 -0.217483
N34   N     N_R   0.532970 0.440100 0.665210 -0.069648
N35   N     N_3   0.038534 0.224986 0.769136 -0.214191
N36   N     N_3   0.727244 0.311869 0.812501 -0.221953
N37   N     N_3   0.246297 0.619061 0.071126 -0.205730
N38   N     N_3   0.272709 0.312113 0.187099 -0.221932
N39   N     N_3   0.753721 0.619064 0.928864 -0.205724
N40   N     N_3   0.227270 0.811935 0.812586 -0.221957
N41   N     N_3   0.746281 0.119052 0.071120 -0.205722
N42   N     N_3   0.772740 0.811926 0.187413 -0.221937
N43   N     N_3   0.253630 0.119314 0.928425 -0.205846
N44   N     N_3   0.629257 0.280431 0.492224 -0.225880
N45   N     N_R   0.032970 0.059900 0.665210 -0.074949
N46   N     N_3   0.399315 0.759492 0.476269 -0.214620
N47   N     N_3   0.370785 0.280554 0.507921 -0.225881
N48   N     N_3   0.600226 0.759580 0.522372 -0.214603
N49   N     N_3   0.129330 0.780438 0.492451 -0.225878
N50   N     N_3   0.899478 0.259545 0.476768 -0.214615
N51   N     N_3   0.870838 0.780545 0.508155 -0.225870
N52   N     N_3   0.100392 0.259533 0.522825 -0.214604
N53   N     N_3   0.719669 0.457414 0.494204 -0.226726
N54   N     N_3   0.312527 0.599064 0.523135 -0.207871
N55   N     N_3   0.280216 0.457488 0.505652 -0.226723
N56   N     N_R   0.967030 0.940100 0.334790 -0.069658
N57   N     N_3   0.687875 0.598958 0.477900 -0.207903
N58   N     N_3   0.219578 0.957419 0.493906 -0.226749
N59   N     N_3   0.812412 0.099012 0.522779 -0.207888
N60   N     N_3   0.780119 0.957498 0.505356 -0.226708
N61   N     N_3   0.187745 0.098979 0.477522 -0.207892
N62   N     N_3   0.808690 0.444557 0.507517 -0.205787
N63   N     N_3   0.213003 0.612191 0.427671 -0.210275
N64   N     N_3   0.191036 0.444548 0.491767 -0.205832
N65   N     N_3   0.787358 0.612491 0.573680 -0.210292
N66   N     N_3   0.308378 0.944600 0.506433 -0.205752
N67   N     N_R   0.967030 0.059900 0.334790 -0.074962
N68   N     N_3   0.712904 0.112267 0.427226 -0.210278
N69   N     N_3   0.690793 0.944534 0.490958 -0.205852
N70   N     N_3   0.287234 0.112386 0.573096 -0.210284
N71   N     N_3   0.380824 0.872884 0.523543 -0.206826
N72   N     N_3   0.637897 0.184967 0.411834 -0.221759
N73   N     N_3   0.618412 0.872691 0.473835 -0.206845
N74   N     N_3   0.362196 0.185146 0.588471 -0.221766
N75   N     N_3   0.881118 0.372805 0.524624 -0.206836
N76   N     N_3   0.137967 0.684885 0.412199 -0.221763
N77   N     N_3   0.118642 0.372732 0.474637 -0.206841
N78   N     N_R   0.032970 0.940100 0.665210 -0.069647
N79   N     N_3   0.862304 0.685273 0.589021 -0.221749
N80   N     N_3   0.835607 0.327890 0.938518 -0.219299
N81   N     N_3   0.138802 0.605601 0.934936 -0.218657
N82   N     N_3   0.164355 0.328168 0.061037 -0.219313
N83   N     N_3   0.861221 0.605609 0.065046 -0.218649
N84   N     N_3   0.335624 0.827980 0.938656 -0.219302
N85   N     N_3   0.638779 0.105608 0.934961 -0.218650
N86   N     N_3   0.664381 0.827956 0.061371 -0.219301
N87   N     N_3   0.361138 0.105800 0.064546 -0.218641
N88   N     N_R   0.597900 0.559930 0.545530 -0.045837
Ni1   Ni    Ni4+2 0.483030 0.500000 0.604430 0.277008
Ni2   Ni    Ni4+2 0.516970 0.500000 0.395570 0.277033
Ni3   Ni    Ni4+2 0.983030 0.000000 0.604430 0.277025
Ni4   Ni    Ni4+2 0.016970 0.000000 0.395570 0.277011
Ni5   Ni    Ni4+2 0.587400 0.500000 0.604430 0.216822
Ni6   Ni    Ni4+2 0.412600 0.500000 0.395570 0.216817
Ni7   Ni    Ni4+2 0.087400 0.000000 0.604430 0.216844
Ni8   Ni    Ni4+2 0.912600 0.000000 0.395570 0.216814

loop_
_geom_bond_atom_site_label_1
_geom_bond_atom_site_label_2
_ccdc_geom_bond_type
Br16  C157  S    
C47   N21   A    
H72   N27   S    
C49   N24   A    
C75   N50   S    
H132  N57   S    
C120  C124  A    
C31   C183  A    
H36   N80   S    
H83   N32   S    
C173  N88   A    
C105  C124  A    
C106  C123  A    
N11   Ni1   S    
Br10  C108  S    
C131  C148  A    
C7    C172  A    
C30   C182  A    
C59   C134  S    
H125  N53   S    
H97   N39   S    
N18   Ni6   S    
H136  N59   S    
C50   C56   A    
H9    N66   S    
N2    Ni6   S    
C97   N12   A    
H34   N80   S    
H89   N36   S    
C41   C67   A    
C70   C103  A    
N1    Ni1   S    
C75   C84   A    
C101  C110  A    
C72   C81   A    
C81   C89   A    
C137  C164  A    
N22   Ni8   S    
C84   C93   A    
H28   N76   S    
C77   N52   S    
C132  C149  A    
C86   C95   A    
C40   H60   S    
N6    Ni8   S    
H27   N75   S    
C25   C33   A    
H93   N37   S    
C99   C107  A    
H109  N46   S    
H103  N42   S    
C11   C15   A    
C151  N32   S    
H74   N28   S    
C6    C145  A    
C113  C126  A    
C60   C135  S    
C11   C19   A    
H100  N41   S    
C150  N29   S    
H29   N76   S    
C132  C158  A    
C161  C170  A    
C133  C159  A    
N5    N14   A    
C179  N6    A    
H51   N87   S    
C50   H70   S    
C136  C154  A    
C3    C33   A    
C116  N66   S    
H15   N70   S    
Br3   C159  S    
C51   C58   A    
C2    C88   A    
H47   N85   S    
N10   Ni1   S    
C44   N19   A    
C39   N14   A    
C19   C28   A    
C66   C179  A    
N4    N13   A    
H127  N54   S    
N6    N15   A    
C113  N63   S    
C67   C84   S    
C80   C88   A    
C126  N76   S    
C38   H58   S    
H119  N50   S    
C180  N7    A    
N17   Ni4   S    
Br14  C152  S    
C34   C61   A    
C138  H1    S    
H25   N74   S    
C45   N20   A    
C127  N77   S    
C75   C109  A    
C58   C141  A    
C166  C183  A    
C48   H67   S    
H99   N40   S    
C4    C26   A    
H107  N44   S    
C90   C99   A    
C21   N40   S    
H26   N75   S    
C62   C175  A    
C53   C133  S    
C63   C80   S    
H117  N49   S    
H111  N47   S    
C143  C151  A    
C112  C174  A    
C121  N71   S    
H87   N35   S    
C54   C108  A    
C115  N65   S    
H44   N84   S    
C15   C171  A    
N2    N10   A    
C19   N38   S    
C55   C131  S    
C152  N67   A    
C10   C16   A    
H16   N70   S    
C74   C107  A    
H92   N37   S    
C60   C163  A    
H102  N41   S    
C57   C94   A    
C93   N59   S    
H131  N57   S    
H128  N54   S    
C83   C92   A    
H105  N43   S    
C53   C97   A    
C31   N85   S    
N19   Ni5   S    
C17   C26   A    
C43   H63   S    
C36   H55   S    
C125  N75   S    
N4    Ni5   S    
C138  C182  A    
C88   N54   S    
N7    Ni8   S    
C135  C161  A    
C20   N39   S    
C73   C106  A    
H110  N46   S    
H23   N74   S    
C34   N9    A    
H77   N29   S    
C176  N3    A    
C141  N56   A    
C156  C165  A    
C177  H24   S    
C47   C53   A    
C109  C125  A    
H137  N59   S    
N23   Ni2   S    
C37   H56   S    
C39   C65   A    
N15   Ni3   S    
C52   C132  S    
H116  N49   S    
C129  C156  A    
N25   N45   A    
C13   C89   A    
Br13  C141  S    
H30   N77   S    
C28   N82   S    
C146  C155  A    
H33   N79   S    
C61   C82   S    
H82   N31   S    
C118  C123  A    
N45   Ni3   S    
C129  C147  A    
H114  N48   S    
H12   N69   S    
C2    C90   A    
C69   C83   S    
C140  H68   S    
C79   C100  A    
C45   H65   S    
C180  H52   S    
C62   C81   S    
C37   N11   A    
C24   C115  A    
C154  N35   S    
C100  C109  A    
C91   N57   S    
C102  C111  A    
C74   C83   A    
C139  C183  A    
C9    C166  A    
C25   N43   S    
C144  H101  S    
H78   N30   S    
C163  N78   A    
C15   C25   A    
C8    C165  A    
C103  C122  A    
C18   C27   A    
C3    C168  A    
C40   C66   A    
H21   N73   S    
Br1   C1    S    
C167  C184  A    
C135  C153  A    
C73   C82   A    
Br9   C97   S    
C7    C146  A    
C143  H90   S    
C96   C105  A    
C176  H13   S    
C46   C93   A    
C178  N5    A    
C95   N61   S    
N1    N20   A    
C110  C128  A    
C48   C59   A    
Br7   C164  S    
C39   H59   S    
H141  N61   S    
C43   N18   A    
H121  N51   S    
N12   N21   A    
H122  N52   S    
C57   C118  A    
C130  N45   A    
C68   C102  A    
N3    Ni6   S    
N9    N88   A    
H113  N47   S    
N78   Ni3   S    
N19   N34   A    
Br2   C156  S    
N21   Ni6   S    
N34   Ni1   S    
H130  N55   S    
C7    C29   A    
C44   H64   S    
C48   N22   A    
C178  H35   S    
H10   N68   S    
C160  C169  A    
N7    N16   A    
C9    C12   A    
C64   C177  A    
C41   H61   S    
C49   C60   A    
C32   C184  A    
C46   C117  A    
C112  N62   S    
H91   N36   S    
H17   N71   S    
Br15  C163  S    
C114  N64   S    
H42   N83   S    
C139  H57   S    
C74   N49   S    
C16   C23   A    
C108  N23   A    
H11   N68   S    
C164  C172  A    
C79   C174  A    
N56   Ni4   S    
C56   C136  S    
C89   N55   S    
C144  C153  A    
C59   C152  A    
C23   N42   S    
H7    N65   S    
C112  C125  A    
H98   N40   S    
C181  N8    A    
C51   H71   S    
C10   C167  A    
C117  C122  A    
Br4   C158  S    
C42   H62   S    
C3    C142  A    
H88   N35   S    
C70   N44   S    
C18   N37   S    
C36   C62   A    
H81   N31   S    
C36   N10   A    
H94   N38   S    
H135  N58   S    
C38   C64   A    
N18   N23   A    
C68   C95   A    
H108  N44   S    
C122  N72   S    
C5    C170  A    
C118  N69   S    
H45   N85   S    
C44   C55   A    
C76   N51   S    
C35   C99   A    
C149  N30   S    
C14   C21   A    
H6    N65   S    
C34   H54   S    
Br11  C119  S    
C155  N33   S    
H20   N72   S    
H39   N82   S    
C145  H112  S    
H32   N79   S    
C76   C85   A    
C162  C171  A    
C10   C20   A    
C78   C87   A    
C63   C176  A    
C5    C144  A    
H124  N52   S    
N8    Ni7   S    
C64   C78   S    
H38   N81   S    
N67   Ni4   S    
C142  C150  A    
C68   C120  A    
C1    C52   A    
H80   N30   S    
C175  N2    A    
C72   C105  A    
C76   C110  A    
C77   C86   A    
H138  N60   S    
C35   C116  A    
C131  C157  A    
C173  H134  S    
C79   C103  A    
C116  C121  A    
C61   C173  A    
C73   N48   S    
C46   C100  A    
C153  N31   S    
N5    Ni7   S    
N25   Ni7   S    
C140  C149  A    
C94   N60   S    
C134  C151  A    
C87   N53   S    
C107  C126  A    
C92   N58   S    
C47   H66   S    
C8    C18   A    
H106  N43   S    
C82   C91   A    
C43   C54   A    
H139  N60   S    
C22   N41   S    
C147  N28   S    
C56   C130  A    
C2    C113  A    
C104  C121  A    
N3    N11   A    
C21   C30   A    
C158  C167  A    
H40   N82   S    
C115  C128  A    
H3    N63   S    
C23   C32   A    
C159  C168  A    
C146  H123  S    
C134  C160  A    
N8    N17   A    
N14   Ni4   S    
C13   C96   A    
C45   C52   A    
N12   Ni2   S    
N9    Ni2   S    
N20   Ni5   S    
C14   C170  A    
H5    N64   S    
C37   C63   A    
H37   N81   S    
H142  N62   S    
C55   C119  A    
N16   Ni3   S    
H115  N48   S    
C33   N87   S    
Br12  C130  S    
C67   C180  A    
C41   N16   A    
C11   C168  A    
N13   Ni2   S    
C70   C78   A    
C4    C169  A    
C5    C27   A    
C148  N27   S    
C24   C98   A    
C72   N47   S    
C35   C92   A    
C4    C143  A    
H85   N33   S    
C177  N4    A    
N22   N67   A    
C175  H2    S    
C49   H69   S    
H49   N86   S    
C42   N17   A    
H140  N61   S    
C65   C178  A    
C181  H53   S    
H95   N38   S    
H22   N73   S    
H104  N42   S    
H19   N72   S    
C140  C184  A    
C165  C182  A    
H48   N86   S    
H76   N29   S    
C30   N84   S    
H31   N77   S    
N24   Ni7   S    
C65   C86   S    
N88   Ni5   S    
C179  H46   S    
C6    C28   A    
C57   C101  A    
C16   C172  A    
C98   C101  A    
C138  C147  A    
C40   N15   A    
H84   N32   S    
C87   C174  A    
C111  C127  A    
C128  N79   S    
H96   N39   S    
H143  N62   S    
C58   C137  S    
H43   N84   S    
N26   N56   A    
C77   C111  A    
H8    N66   S    
C50   N25   A    
C117  N68   S    
C38   N13   A    
C13   C114  A    
H86   N33   S    
C12   C22   A    
N24   N78   A    
C71   C80   A    
C137  C155  A    
C27   N81   S    
C1    N1    A    
C20   C29   A    
N26   Ni8   S    
C54   C129  S    
H118  N50   S    
C114  C127  A    
C85   C94   A    
Br5   C161  S    
C22   C31   A    
C6    C171  A    
C145  C154  A    
C51   N26   A    
C24   C91   A    
H14   N69   S    
C42   C69   A    
H73   N27   S    
H129  N55   S    
C69   C181  A    
H126  N53   S    
C90   C104  A    
C133  C150  A    
C157  C166  A    
C17   N36   S    
C139  C148  A    
C120  N70   S    
C71   C104  A    
H41   N83   S    
C12   C169  A    
C96   C102  A    
C71   N46   S    
C142  H79   S    
Br6   C160  S    
H75   N28   S    
C29   N83   S    
H144  N63   S    
C66   C85   S    
C26   N80   S    
C32   N86   S    
C136  C162  A    
C8    C14   A    
H4    N64   S    
C119  N34   A    
H50   N87   S    
C98   C106  A    
Br8   C162  S    
C123  N73   S    
C9    C17   A    
H18   N71   S    
C124  N74   S    
H133  N58   S    
H120  N51   S    
