data_mof_unit_36184.cif
_audit_creation_date              2012-12-10T20:30:07-0500
_audit_creation_method            fapswitch 2.2
_symmetry_space_group_name_H-M    P1
_symmetry_Int_Tables_number       1
_space_group_crystal_system       triclinic
_cell_length_a                    9.926068
_cell_length_b                    10.76076
_cell_length_c                    13.103245
_cell_angle_alpha                 89.864084
_cell_angle_beta                  69.312249
_cell_angle_gamma                 91.11007
_cell_volume                      1309.02920143

loop_
_atom_site_label
_atom_site_type_symbol
_atom_type_description
_atom_site_fract_x
_atom_site_fract_y
_atom_site_fract_z
_atom_type_partial_charge
C1    C     C_R   0.500685 0.739468 0.500580 0.901451
C2    C     C_R   0.440004 0.494264 0.980721 0.048142
C3    C     C_R   0.457351 0.445401 0.877289 -0.043107
C4    C     C_R   0.549312 0.473447 0.024727 0.099087
C5    C     C_R   0.668896 0.399557 0.968302 0.063403
C6    C     C_R   0.675892 0.342059 0.871515 -0.229293
C7    C     C_R   0.566369 0.357924 0.829916 0.551225
C8    C     C_R   0.539365 0.519194 0.126012 -0.306407
C9    C     C_R   0.756383 0.414330 0.120665 0.524645
C10   C     C_R   0.361413 0.480250 0.825109 -0.114457
C11   C     C_R   0.396592 0.932873 0.474541 0.011647
C12   C     C_R   0.418102 0.492386 0.704916 0.924125
C13   C     C_R   0.499101 0.871102 0.504389 -0.023290
C14   C     C_R   0.597730 0.937619 0.538354 -0.267994
C15   C     C_R   0.598989 0.065960 0.535034 -0.203492
C16   C     C_R   0.500364 0.127784 0.499006 -0.098527
C17   C     C_R   0.398630 0.060323 0.469731 -0.049378
C18   C     C_3   0.371351 0.058896 0.363669 -0.252025
C19   C     C_3   0.360702 0.917642 0.373628 0.276762
C20   C     C_R   0.888561 0.539311 0.589141 0.219654
C21   C     C_R   0.964161 0.453443 0.415593 -0.242614
C22   C     C_R   0.106573 0.450997 0.415454 -0.005950
C23   C     C_R   0.500491 0.260188 0.497675 0.915295
C24   C     C_R   0.031049 0.541735 0.588209 0.223307
C25   C     C_3   0.014693 0.669908 0.633889 -0.593970
C26   C     C_3   0.858614 0.664089 0.639797 0.314368
C27   C     C_R   0.581226 0.498551 0.295334 0.942099
C28   C     C_R   0.774739 0.375846 0.013526 -0.260341
C29   C     C_R   0.633219 0.483000 0.177110 -0.130207
C30   C     C_R   0.224150 0.524791 0.889184 -0.028891
C31   C     C_R   0.202420 0.565743 0.994307 -0.231997
C32   C     C_R   0.310890 0.556949 0.037535 -0.185959
H1    H     H_    0.677195 0.116423 0.560338 0.204126
H2    H     H_    0.265771 0.097625 0.370570 0.181076
H3    H     H_    0.249569 0.877651 0.393976 0.069421
H4    H     H_    0.938567 0.416125 0.347873 0.198195
H5    H     H_    0.026466 0.674467 0.714742 0.224490
H6    H     H_    0.081384 0.740029 0.573827 0.161083
H7    H     H_    0.760922 0.277714 0.831967 0.165937
H8    H     H_    0.830884 0.732638 0.586830 0.077313
H9    H     H_    0.866887 0.322387 0.966711 0.167451
H10   H     H_    0.452156 0.576425 0.171892 0.155019
H11   H     H_    0.284677 0.593221 0.118397 0.118451
H12   H     H_    0.100040 0.603981 0.044001 0.156422
H13   H     H_    0.675796 0.891103 0.564415 0.152410
N1    N     N_R   0.856940 0.500860 0.500710 -0.140972
N2    N     N_R   0.142580 0.500820 0.500710 -0.115603
O1    O     O_R   0.385310 0.683210 0.499990 -0.625209
O2    O     O_R   0.614650 0.683240 0.500000 -0.642923
O3    O     O_R   0.328390 0.499940 0.653610 -0.581886
O4    O     O_R   0.557730 0.499980 0.653620 -0.567533
O5    O     O_R   0.385350 0.316760 0.500000 -0.560761
O6    O     O_R   0.614690 0.316790 0.500010 -0.600541
O7    O     O_R   0.442270 0.500020 0.346380 -0.589666
O8    O     O_R   0.671610 0.500060 0.346390 -0.583708
Zn1   Zn    Zn3+2 0.346870 0.499980 0.499990 1.018386
Zn2   Zn    Zn3+2 0.653130 0.500020 0.500010 0.998299
O9    O     O_3   0.853833 0.389903 0.172891 -0.620488
C33   C     C_3   0.933496 0.281477 0.135632 -0.360775
H14   H     H_    0.863685 0.201856 0.129195 0.167722
H15   H     H_    0.022890 0.300104 0.057021 0.188510
H16   H     H_    0.983215 0.254355 0.195822 0.186949
C34   C     C_2   0.498713 0.107901 0.268106 0.575443
H17   H     H_    0.607817 0.095876 0.266483 0.053913
O10   O     O_2   0.480340 0.158115 0.190585 -0.586360
O11   O     O_3   0.469347 0.855480 0.290317 -0.594139
C35   C     C_3   0.420049 0.831873 0.203468 -0.327737
H18   H     H_    0.509578 0.793158 0.134453 0.188140
H19   H     H_    0.386242 0.918169 0.173150 0.187528
H20   H     H_    0.328957 0.763159 0.228646 0.146795
C36   C     C_2   0.209210 0.390351 0.320812 0.450869
H21   H     H_    0.204035 0.404470 0.240274 0.041566
O12   O     O_2   0.292259 0.315465 0.332474 -0.536974
O13   O     O_3   0.760162 0.651919 0.747987 -0.570166
C37   C     C_3   0.710649 0.769994 0.788655 -0.318666
H22   H     H_    0.640312 0.807789 0.746753 0.155600
H23   H     H_    0.801514 0.836011 0.781096 0.159914
H24   H     H_    0.644823 0.760125 0.876619 0.189833
C38   C     C_2   0.097711 0.522715 0.854534 0.378367
H25   H     H_    0.013570 0.590031 0.887452 0.063225
O14   O     O_2   0.079668 0.439801 0.796957 -0.568053
O15   O     O_3   0.557934 0.277981 0.749846 -0.609336
C39   C     C_3   0.463108 0.178663 0.802027 -0.378269
H26   H     H_    0.355237 0.211688 0.854454 0.173248
H27   H     H_    0.510260 0.120665 0.850845 0.174257
H28   H     H_    0.444980 0.118453 0.739707 0.202498

loop_
_geom_bond_atom_site_label_1
_geom_bond_atom_site_label_2
_ccdc_geom_bond_type
C34   O10   D    
C27   C29   S    
C4    C8    A    
C27   O7    A    
C21   H4    S    
C11   C19   S    
C8    C29   A    
C8    H10   S    
C18   C19   S    
C3    C7    A    
C5    C6    A    
C27   O8    A    
C18   C34   S    
C15   C16   A    
C28   H9    S    
O2    Zn2   S    
C19   O11   S    
C2    C32   A    
C9    O9    S    
C25   H5    S    
C31   C32   A    
C16   C17   A    
O4    Zn2   S    
C9    C29   A    
C22   N2    A    
C33   H14   S    
C13   C14   A    
C23   O6    A    
C14   H13   S    
O7    Zn1   S    
C33   H15   S    
C31   H12   S    
C35   H18   S    
C20   C24   A    
C24   C25   S    
O13   C37   S    
C36   O12   D    
O6    Zn2   S    
C25   C26   S    
O3    Zn1   S    
C38   H25   S    
C35   H19   S    
C2    C4    A    
C37   H22   S    
C25   H6    S    
C5    C28   A    
C18   H2    S    
C10   C30   A    
C39   H26   S    
C7    O15   S    
C17   C18   S    
C37   H23   S    
C10   C12   S    
C30   C38   S    
C39   H27   S    
C16   C23   S    
O8    Zn2   S    
N1    Zn2   S    
C1    C13   S    
C22   C36   S    
C12   O4    A    
C38   O14   D    
C21   N1    A    
O1    Zn1   S    
C11   C17   A    
C33   H16   S    
C6    H7    S    
C24   N2    A    
C4    C5    A    
C12   O3    A    
C1    O1    A    
C6    C7    A    
C35   H20   S    
C2    C3    A    
O9    C33   S    
C36   H21   S    
C3    C10   A    
C19   H3    S    
C11   C13   A    
C26   H8    S    
C23   O5    A    
C30   C31   A    
C20   C26   S    
C26   O13   S    
C32   H11   S    
O11   C35   S    
C37   H24   S    
C34   H17   S    
C39   H28   S    
O15   C39   S    
C14   C15   A    
C21   C22   A    
C1    O2    A    
C15   H1    S    
C20   N1    A    
O5    Zn1   S    
C9    C28   A    
N2    Zn1   S    
