data_mof_unit_48906.cif
_audit_creation_date              2012-12-10T18:31:49-0500
_audit_creation_method            fapswitch 2.2
_symmetry_space_group_name_H-M    P1
_symmetry_Int_Tables_number       1
_space_group_crystal_system       triclinic
_cell_length_a                    10.635777
_cell_length_b                    14.991336
_cell_length_c                    15.339864
_cell_angle_alpha                 81.99158
_cell_angle_beta                  89.785887
_cell_angle_gamma                 104.349047
_cell_volume                      2344.57995383

loop_
_atom_site_label
_atom_site_type_symbol
_atom_type_description
_atom_site_fract_x
_atom_site_fract_y
_atom_site_fract_z
_atom_type_partial_charge
C1    C     C_R   0.484750 0.441638 0.662450 0.859789
C2    C     C_3   0.121079 0.500042 0.499878 0.180133
C3    C     C_3   0.067382 0.486046 0.407758 -0.407388
C4    C     C_3   0.104018 0.594811 0.522337 -0.379661
C5    C     C_R   0.491695 0.405325 0.755289 -0.067495
C6    C     C_R   0.555936 0.592680 0.244760 -0.093464
C7    C     C_R   0.449291 0.278923 0.876766 -0.176806
C8    C     C_R   0.443961 0.310554 0.787377 -0.200707
C9    C     C_R   0.551433 0.466835 0.811832 -0.247015
C10   C     C_R   0.558968 0.436486 0.901603 0.090958
C11   C     C_R   0.502282 0.341852 0.934561 0.093012
C12   C     C_R   0.742093 0.500745 0.500037 0.821637
C13   C     C_R   0.609563 0.500050 0.960268 0.015875
C14   C     C_R   0.577300 0.472754 0.051159 -0.078780
C15   C     C_R   0.531663 0.375716 0.083799 0.453060
C16   C     C_R   0.495443 0.311889 0.024935 -0.312178
C17   C     C_R   0.687447 0.590741 0.930944 -0.199657
C18   C     C_R   0.720098 0.656091 0.988445 -0.239044
C19   C     C_R   0.668798 0.634651 0.074657 0.178688
C20   C     C_R   0.591777 0.543872 0.104919 0.095620
C21   C     C_R   0.691570 0.702766 0.131010 -0.215724
C22   C     C_R   0.638397 0.680870 0.217004 -0.199840
C23   C     C_R   0.520455 0.558319 0.337484 0.856870
C24   C     C_R   0.525233 0.528518 0.186040 -0.239351
C25   C     C_R   0.698764 0.843287 0.634410 -0.320043
C26   C     C_R   0.663358 0.753451 0.614052 0.015170
C27   C     C_R   0.515924 0.794352 0.509330 -0.069002
C28   C     C_R   0.547741 0.887047 0.526604 -0.004967
C29   C     C_R   0.641315 0.910507 0.590814 0.182750
C30   C     C_R   0.490042 0.956278 0.483154 0.080926
C31   C     C_R   0.525157 0.047896 0.506494 0.086440
C32   C     C_R   0.620634 0.068315 0.569685 -0.243243
C33   C     C_R   0.677233 0.000712 0.610899 -0.214075
C34   C     C_R   0.257836 0.499641 0.499868 0.824929
C35   C     C_R   0.398528 0.936942 0.417304 -0.240134
C36   C     C_R   0.340867 0.004290 0.376831 -0.216476
C37   C     C_R   0.371077 0.092956 0.400742 0.158556
C38   C     C_R   0.463346 0.116017 0.465817 0.002521
C39   C     C_R   0.309496 0.159105 0.359938 -0.309053
C40   C     C_R   0.338921 0.247275 0.384349 0.055836
C41   C     C_R   0.488170 0.206763 0.487802 -0.080364
C42   C     C_3   0.899515 0.421530 0.569976 -0.400349
C43   C     C_3   0.043655 0.420796 0.569860 -0.401369
C44   C     C_3   0.923480 0.487591 0.407704 -0.399996
C45   C     C_3   0.961453 0.595460 0.522801 -0.399253
C46   C     C_3   0.878850 0.501543 0.500171 0.186786
H1    H     H_    0.840706 0.353091 0.555455 0.175672
H2    H     H_    0.158903 0.653282 0.472908 0.171795
H3    H     H_    0.909462 0.544824 0.357093 0.156675
H4    H     H_    0.123456 0.542158 0.356770 0.153769
H5    H     H_    0.456240 0.238994 0.050580 0.163425
H6    H     H_    0.449774 0.465754 0.205511 0.205870
H7    H     H_    0.663894 0.731626 0.261934 0.159113
H8    H     H_    0.780635 0.724746 0.964273 0.139179
H9    H     H_    0.408032 0.206002 0.901144 0.132667
H10   H     H_    0.399788 0.261487 0.743954 0.154904
H11   H     H_    0.585581 0.539555 0.785505 0.152136
H12   H     H_    0.867385 0.430675 0.636605 0.156032
H13   H     H_    0.727189 0.611774 0.864217 0.135190
H14   H     H_    0.752854 0.771784 0.109334 0.134737
H15   H     H_    0.749626 0.019246 0.659259 0.141763
H16   H     H_    0.555104 0.231144 0.536728 0.128170
H17   H     H_    0.292785 0.299488 0.353134 0.133554
H18   H     H_    0.271063 0.986475 0.326745 0.142048
H19   H     H_    0.770544 0.860142 0.683475 0.139624
H20   H     H_    0.707624 0.700767 0.646587 0.122237
H21   H     H_    0.446351 0.769195 0.462160 0.125314
H22   H     H_    0.082029 0.429995 0.636329 0.157860
H23   H     H_    0.654958 0.136253 0.588890 0.134877
H24   H     H_    0.369034 0.870294 0.394815 0.134044
H25   H     H_    0.239486 0.142786 0.309704 0.146864
H26   H     H_    0.053759 0.352104 0.555398 0.180432
H27   H     H_    0.864626 0.421042 0.389249 0.178053
H28   H     H_    0.077260 0.418405 0.390255 0.177061
H29   H     H_    0.947883 0.654208 0.473775 0.179015
H30   H     H_    0.931185 0.607185 0.589013 0.171282
H31   H     H_    0.142536 0.606955 0.588274 0.180730
N1    N     N_R   0.573860 0.731700 0.552730 -0.097706
N2    N     N_R   0.426060 0.268290 0.447230 -0.105854
O1    O     O_R   0.462770 0.383110 0.605620 -0.614049
O2    O     O_R   0.510160 0.531900 0.639510 -0.615479
O3    O     O_R   0.661510 0.425600 0.483070 -0.631502
O4    O     O_R   0.708900 0.574390 0.516960 -0.628157
O5    O     O_R   0.489840 0.468100 0.360490 -0.615623
O6    O     O_R   0.537230 0.616890 0.394380 -0.613297
O7    O     O_R   0.291100 0.425610 0.483040 -0.625393
O8    O     O_R   0.338490 0.574400 0.516930 -0.625760
Zn1   Zn    Zn3+2 0.468350 0.400660 0.477370 0.925108
Zn2   Zn    Zn3+2 0.531650 0.599340 0.522630 0.926540
O9    O     O_3   0.517507 0.340704 0.172684 -0.665716
C47   C     C_3   0.639973 0.344154 0.209894 0.088509
H32   H     H_    0.639673 0.373143 0.272720 0.189955
H33   H     H_    0.724397 0.389845 0.168494 0.115491
C48   C     C_3   0.658668 0.245521 0.229983 -0.334654
H34   H     H_    0.569809 0.198294 0.264403 0.247930
H35   H     H_    0.674403 0.220136 0.167130 0.209210
C49   C     C_3   0.774055 0.242383 0.288125 -0.973055
H36   H     H_    0.864195 0.290550 0.256295 0.260061
H37   H     H_    0.787609 0.170621 0.298610 0.270415
H38   H     H_    0.756010 0.262095 0.353350 0.264809

loop_
_geom_bond_atom_site_label_1
_geom_bond_atom_site_label_2
_ccdc_geom_bond_type
C44   H3    S    
C24   H6    S    
C43   H26   S    
C19   C20   A    
C16   H5    S    
C7    H9    S    
C27   N1    A    
C42   H12   S    
C49   H36   S    
C7    C8    A    
C45   C46   S    
C7    C11   A    
C26   N1    A    
C40   H17   S    
C30   C35   A    
C45   H30   S    
C1    C5    S    
C36   C37   A    
C19   C21   A    
C18   C19   A    
C42   C46   S    
C30   C31   A    
O7    Zn1   S    
C1    O2    A    
C15   C16   A    
C6    C22   A    
C29   C33   A    
C38   C41   A    
C34   O7    A    
C3    H28   S    
C20   C24   A    
C35   H24   S    
C43   H22   S    
C9    C10   A    
C34   O8    A    
O2    Zn2   S    
C2    C34   S    
C21   C22   A    
O1    Zn1   S    
C8    H10   S    
C48   H34   S    
C41   H16   S    
N2    Zn1   S    
C49   H37   S    
C3    H4    S    
C44   C46   S    
C22   H7    S    
C4    C45   S    
N1    Zn2   S    
C25   C29   A    
O4    Zn2   S    
C3    C44   S    
C23   O5    A    
C26   H20   S    
C14   C20   A    
C25   H19   S    
C21   H14   S    
C12   C46   S    
C47   H32   S    
O6    Zn2   S    
C48   C49   S    
C25   C26   A    
C12   O4    A    
C35   C36   A    
C2    C4    S    
C5    C9    A    
C37   C38   A    
C47   H33   S    
C11   C16   A    
C31   C32   A    
C2    C43   S    
C6    C24   A    
C17   C18   A    
C40   N2    A    
C12   O3    A    
C48   H35   S    
C17   H13   S    
O8    Zn2   S    
C42   C43   S    
C39   C40   A    
C49   H38   S    
C4    H2    S    
C28   C29   A    
O5    Zn1   S    
C10   C13   A    
C41   N2    A    
C5    C8    A    
C32   H23   S    
C31   C38   A    
C13   C17   A    
C45   H29   S    
C32   C33   A    
C28   C30   A    
C2    C3    S    
C4    H31   S    
C37   C39   A    
C36   H18   S    
C15   O9    S    
O9    C47   S    
O3    Zn1   S    
C6    C23   S    
C9    H11   S    
C42   H1    S    
C44   H27   S    
C27   H21   S    
C10   C11   A    
C18   H8    S    
C33   H15   S    
C23   O6    A    
C27   C28   A    
C1    O1    A    
C39   H25   S    
C14   C15   A    
C13   C14   A    
C47   C48   S    
