data_mof_unit_62663.cif
_audit_creation_date              2012-12-10T18:15:18-0500
_audit_creation_method            fapswitch 2.2
_symmetry_space_group_name_H-M    P1
_symmetry_Int_Tables_number       1
_space_group_crystal_system       triclinic
_cell_length_a                    39.036051
_cell_length_b                    32.202422
_cell_length_c                    21.682605
_cell_angle_alpha                 90.000044
_cell_angle_beta                  55.603858
_cell_angle_gamma                 90.0
_cell_volume                      22490.5245952

loop_
_atom_site_label
_atom_site_type_symbol
_atom_type_description
_atom_site_fract_x
_atom_site_fract_y
_atom_site_fract_z
_atom_type_partial_charge
C1    C     C_R   0.920389 0.499995 0.578619 0.883498
C2    C     C_R   0.079611 0.499995 0.421380 0.883489
C3    C     C_R   0.420389 0.999995 0.578620 0.883420
C4    C     C_R   0.579611 0.999995 0.421380 0.883425
C5    C     C_3   0.957130 0.486011 0.330419 -0.190829
C6    C     C_3   0.042864 0.485996 0.669585 -0.190827
C7    C     C_3   0.457119 0.986045 0.330429 -0.190864
C8    C     C_3   0.542883 0.986050 0.669569 -0.190867
C9    C     C_3   0.001668 0.498362 0.309085 -0.129433
C10   C     C_3   0.998330 0.498363 0.690916 -0.129431
C11   C     C_3   0.501666 0.998361 0.309086 -0.129443
C12   C     C_3   0.498334 0.998361 0.690913 -0.129454
C13   C     C_3   0.999296 0.500368 0.189514 -0.103127
C14   C     C_3   0.000704 0.500367 0.810485 -0.103124
C15   C     C_3   0.499296 0.000371 0.189513 -0.103103
C16   C     C_3   0.500704 0.000372 0.810487 -0.103097
C17   C     C_3   0.028691 0.464075 0.182103 -0.282336
C18   C     C_3   0.971297 0.464083 0.817908 -0.282330
C19   C     C_3   0.528663 0.964056 0.182127 -0.282330
C20   C     C_3   0.471340 0.964054 0.817870 -0.282329
C21   C     C_3   0.954110 0.493949 0.262628 -0.192695
C22   C     C_3   0.045887 0.493933 0.737373 -0.192697
C23   C     C_3   0.454106 0.993987 0.262631 -0.192842
C24   C     C_3   0.545895 0.993992 0.737368 -0.192850
C25   C     C_R   0.727836 0.496658 0.826041 -0.156688
C26   C     C_R   0.272164 0.496690 0.173954 -0.156686
C27   C     C_R   0.227836 0.996664 0.826043 -0.156621
C28   C     C_R   0.772164 0.996682 0.173955 -0.156620
C29   C     C_R   0.706282 0.499959 0.792007 0.142193
C30   C     C_R   0.293718 0.499959 0.207993 0.142192
C31   C     C_R   0.206282 0.999960 0.792007 0.142187
C32   C     C_R   0.793718 0.999960 0.207992 0.142188
C33   C     C_R   0.728492 0.503277 0.714020 -0.165722
C34   C     C_R   0.271508 0.503245 0.285984 -0.165720
C35   C     C_R   0.228492 0.003273 0.714020 -0.165804
C36   C     C_R   0.771508 0.003255 0.285982 -0.165807
C37   C     C_R   0.771973 0.503297 0.670366 -0.147054
C38   C     C_R   0.228026 0.503265 0.329638 -0.147057
C39   C     C_R   0.271974 0.003292 0.670366 -0.147023
C40   C     C_R   0.728026 0.003274 0.329636 -0.147025
C41   C     C_R   0.793505 0.500000 0.704441 0.139998
C42   C     C_R   0.206495 0.500000 0.295558 0.140006
C43   C     C_R   0.293505 0.000000 0.704443 0.139993
C44   C     C_R   0.706495 0.000000 0.295557 0.139988
C45   C     C_R   0.001734 0.499696 0.378021 0.846104
C46   C     C_R   0.998265 0.499697 0.621980 0.846126
C47   C     C_R   0.501734 0.999696 0.378021 0.846064
C48   C     C_R   0.498267 0.999696 0.621978 0.846048
C49   C     C_R   0.771302 0.496678 0.782404 -0.157815
C50   C     C_R   0.228699 0.496710 0.217590 -0.157815
C51   C     C_R   0.271301 0.996683 0.782407 -0.157870
C52   C     C_R   0.728699 0.996702 0.217591 -0.157870
C53   C     C_1   0.661471 0.499958 0.837086 -0.051256
C54   C     C_1   0.338529 0.499958 0.162914 -0.051257
C55   C     C_1   0.161471 0.999958 0.837086 -0.051266
C56   C     C_1   0.838529 0.999958 0.162914 -0.051266
C57   C     C_1   0.838288 0.500025 0.659605 -0.038852
C58   C     C_1   0.161712 0.500025 0.340393 -0.038869
C59   C     C_1   0.338288 0.000025 0.659608 -0.038847
C60   C     C_1   0.661712 0.000025 0.340392 -0.038841
C61   C     C_1   0.875767 0.500024 0.622450 -0.111508
C62   C     C_1   0.124233 0.500024 0.377549 -0.111555
C63   C     C_1   0.375767 0.000024 0.622452 -0.111540
C64   C     C_1   0.624233 0.000024 0.377548 -0.111522
C65   C     C_1   0.623965 0.499958 0.875020 -0.149243
C66   C     C_1   0.376035 0.499958 0.124980 -0.149244
C67   C     C_1   0.123965 0.999958 0.875020 -0.149249
C68   C     C_1   0.876035 0.999958 0.124980 -0.149249
C69   C     C_1   0.500000 0.661490 0.000000 -0.052212
C70   C     C_1   1.000000 0.161490 0.000000 -0.052215
C71   C     C_R   0.000000 0.579550 1.000000 0.791131
C72   C     C_R   0.500000 0.079549 0.000000 0.791046
C73   C     C_R   0.999665 0.500458 0.120431 0.746792
C74   C     C_R   0.000335 0.500457 0.879569 0.746787
C75   C     C_R   0.499665 0.000462 0.120430 0.746747
C76   C     C_R   0.500335 0.000463 0.879569 0.746743
C77   C     C_1   1.000000 0.338265 0.999999 -0.031251
C78   C     C_1   0.500000 0.838265 1.000000 -0.031190
C79   C     C_R   0.000000 0.420358 1.000000 0.884976
C80   C     C_R   0.500000 0.920358 0.000000 0.885095
C81   C     C_1   1.000000 0.375746 0.999999 -0.090067
C82   C     C_1   0.500000 0.875746 0.000000 -0.089952
C83   C     C_R   0.500000 0.420713 1.000000 0.812731
C84   C     C_R   0.000000 0.920713 1.000000 0.812698
C85   C     C_R   0.579301 0.499965 0.920403 0.813144
C86   C     C_R   0.420699 0.499965 0.079596 0.813144
C87   C     C_R   0.079301 0.999965 0.920403 0.813132
C88   C     C_R   0.920699 0.999965 0.079597 0.813132
C89   C     C_R   0.500000 0.579343 0.000000 0.813889
C90   C     C_R   1.000000 0.079343 0.000000 0.813885
C91   C     C_R   0.499251 0.271837 0.944877 -0.160818
C92   C     C_R   0.500749 0.271837 0.055123 -0.160822
C93   C     C_R   0.004770 0.771837 0.939703 -0.160724
C94   C     C_R   0.995230 0.771837 0.060297 -0.160722
C95   C     C_R   0.500000 0.293720 1.000000 0.141267
C96   C     C_R   1.000000 0.793720 1.000000 0.141156
C97   C     C_R   0.995233 0.728354 0.060295 -0.150278
C98   C     C_R   0.004767 0.728354 0.939705 -0.150276
C99   C     C_R   0.500750 0.228353 0.055124 -0.150938
C100  C     C_R   0.499250 0.228353 0.944876 -0.150942
C101  C     C_R   1.000000 0.706480 1.000000 0.134301
C102  C     C_R   0.500000 0.206480 0.000000 0.133800
C103  C     C_1   0.500000 0.338535 1.000000 -0.050163
C104  C     C_1   0.000000 0.838536 1.000000 -0.050066
C105  C     C_1   1.000000 0.661681 1.000000 -0.021684
C106  C     C_1   0.500000 0.161681 0.000000 -0.021839
C107  C     C_1   1.000000 0.624185 1.000000 -0.136437
C108  C     C_1   0.500000 0.124185 0.000000 -0.136384
C109  C     C_1   0.500000 0.623991 0.000000 -0.149897
C110  C     C_1   1.000000 0.123991 0.000000 -0.149895
C111  C     C_1   0.500000 0.376046 1.000000 -0.148221
C112  C     C_1   0.000000 0.876046 1.000000 -0.148212
C113  C     C_R   0.501304 0.728158 0.054542 -0.161803
C114  C     C_R   0.498695 0.728158 0.945458 -0.161804
C115  C     C_R   0.001428 0.228158 0.054409 -0.161808
C116  C     C_R   0.998572 0.228157 0.945591 -0.161803
C117  C     C_R   0.500000 0.706286 0.000000 0.143042
C118  C     C_R   1.000000 0.206286 1.000000 0.143045
C119  C     C_R   1.000000 0.293492 0.999999 0.137704
C120  C     C_R   0.500000 0.793492 0.000000 0.137715
C121  C     C_R   0.998572 0.271633 0.945588 -0.152882
C122  C     C_R   0.001427 0.271633 0.054411 -0.152873
C123  C     C_R   0.498696 0.771633 0.945456 -0.152847
C124  C     C_R   0.501304 0.771633 0.054544 -0.152848
C125  C     C_3   0.011954 0.542897 0.272828 -0.306358
C126  C     C_3   0.988060 0.542901 0.727159 -0.306353
C127  C     C_3   0.511987 0.042888 0.272795 -0.306300
C128  C     C_3   0.488009 0.042887 0.727208 -0.306273
C129  C     C_3   0.018550 0.541606 0.195480 -0.199677
C130  C     C_3   0.981464 0.541611 0.804507 -0.199681
C131  C     C_3   0.518583 0.041594 0.195448 -0.199634
C132  C     C_3   0.481414 0.041593 0.804555 -0.199642
C133  C     C_3   0.035654 0.466344 0.247744 -0.174101
C134  C     C_3   0.964333 0.466357 0.752268 -0.174113
C135  C     C_3   0.535627 0.966317 0.247769 -0.174059
C136  C     C_3   0.464377 0.966313 0.752227 -0.174052
Cu1   Cu    Cu3+1 0.000000 0.540990 0.500000 1.035016
Cu2   Cu    Cu3+1 0.500000 0.040990 0.500000 1.034955
Cu3   Cu    Cu3+1 0.000000 0.458960 0.500000 1.077157
Cu4   Cu    Cu3+1 0.500000 0.958960 0.500000 1.077187
Cu5   Cu    Cu3+1 0.958960 0.499950 0.041020 1.001114
Cu6   Cu    Cu3+1 0.041040 0.499950 0.958980 1.001100
Cu7   Cu    Cu3+1 0.458960 0.999950 0.041020 1.001068
Cu8   Cu    Cu3+1 0.541040 0.999950 0.958980 1.001078
Cu9   Cu    Cu3+1 0.499970 0.500020 0.937550 0.986537
Cu10  Cu    Cu3+1 0.500030 0.500020 0.062450 0.986537
Cu11  Cu    Cu3+1 0.999970 0.000020 0.937550 0.986564
Cu12  Cu    Cu3+1 0.000030 0.000020 0.062450 0.986564
H1    H     H_    0.040373 0.555750 0.266004 0.176423
H2    H     H_    0.959646 0.555764 0.733978 0.176437
H3    H     H_    0.540416 0.055718 0.265964 0.176321
H4    H     H_    0.459579 0.055714 0.734041 0.176311
H5    H     H_    0.941012 0.465378 0.254935 0.160007
H6    H     H_    0.058977 0.465357 0.745075 0.159994
H7    H     H_    0.440985 0.965426 0.254961 0.160042
H8    H     H_    0.559018 0.965432 0.745036 0.160045
H9    H     H_    0.787581 0.494111 0.809413 0.151051
H10   H     H_    0.212420 0.494168 0.190578 0.151033
H11   H     H_    0.287580 0.994120 0.809417 0.151018
H12   H     H_    0.712420 0.994152 0.190579 0.151017
H13   H     H_    0.711057 0.494077 0.886242 0.148694
H14   H     H_    0.288944 0.494134 0.113750 0.148692
H15   H     H_    0.211056 0.994086 0.886244 0.148725
H16   H     H_    0.788944 0.994119 0.113751 0.148725
H17   H     H_    0.712217 0.505849 0.687012 0.148116
H18   H     H_    0.287782 0.505792 0.312996 0.148117
H19   H     H_    0.212218 0.005841 0.687011 0.148099
H20   H     H_    0.787782 0.005809 0.312993 0.148100
H21   H     H_    0.788778 0.505881 0.610156 0.163127
H22   H     H_    0.211221 0.505824 0.389851 0.163133
H23   H     H_    0.288779 0.005874 0.610156 0.163167
H24   H     H_    0.711221 0.005841 0.389848 0.163182
H25   H     H_    0.008477 0.711811 0.892767 0.165652
H26   H     H_    0.991523 0.711811 0.107232 0.165645
H27   H     H_    0.498666 0.211810 0.901964 0.166974
H28   H     H_    0.501333 0.211810 0.098036 0.166976
H29   H     H_    0.498668 0.288370 0.901961 0.150097
H30   H     H_    0.501332 0.288370 0.098039 0.150096
H31   H     H_    0.008487 0.788370 0.892757 0.149954
H32   H     H_    0.991513 0.788371 0.107242 0.149954
H33   H     H_    0.002537 0.288183 0.096762 0.153611
H34   H     H_    0.997462 0.288183 0.903237 0.153595
H35   H     H_    0.502317 0.788183 0.096998 0.153569
H36   H     H_    0.497682 0.788182 0.903002 0.153573
H37   H     H_    0.986638 0.564880 0.310350 0.270747
H38   H     H_    0.013384 0.564876 0.689629 0.270742
H39   H     H_    0.486688 0.064892 0.310300 0.270788
H40   H     H_    0.513305 0.064893 0.689705 0.270798
H41   H     H_    0.502320 0.711621 0.096998 0.147817
H42   H     H_    0.497680 0.711621 0.903002 0.147817
H43   H     H_    0.002540 0.211621 0.096762 0.147822
H44   H     H_    0.997460 0.211621 0.903238 0.147820
H45   H     H_    0.052539 0.540931 0.151962 0.189455
H46   H     H_    0.947474 0.540947 0.848025 0.189453
H47   H     H_    0.552572 0.040892 0.151932 0.189396
H48   H     H_    0.447426 0.040890 0.848072 0.189379
H49   H     H_    0.059135 0.469328 0.128493 0.205373
H50   H     H_    0.940855 0.469346 0.871517 0.205377
H51   H     H_    0.559112 0.969287 0.128514 0.205358
H52   H     H_    0.440890 0.969284 0.871483 0.205357
H53   H     H_    0.954014 0.452078 0.338812 0.221838
H54   H     H_    0.045969 0.452062 0.661203 0.221848
H55   H     H_    0.453977 0.952115 0.338846 0.221833
H56   H     H_    0.546028 0.952120 0.661148 0.221828
O1    O     O_R   0.940150 0.534620 0.559830 -0.584210
O2    O     O_R   0.059850 0.534620 0.440170 -0.584210
O3    O     O_R   0.440150 0.034620 0.559830 -0.584257
O4    O     O_R   0.559850 0.034620 0.440170 -0.584256
O5    O     O_R   0.559820 0.500010 0.887440 -0.576082
O6    O     O_R   0.440180 0.500010 0.112560 -0.576081
O7    O     O_R   0.059820 0.000010 0.887440 -0.576170
O8    O     O_R   0.940180 0.000010 0.112560 -0.576169
O9    O     O_R   0.559830 0.499950 0.992950 -0.574902
O10   O     O_R   0.440170 0.499950 0.007050 -0.574902
O11   O     O_R   0.059830 0.999950 0.992950 -0.574811
O12   O     O_R   0.940170 0.999950 0.007050 -0.574810
O13   O     O_R   0.500010 0.559860 0.947320 -0.575901
O14   O     O_R   0.499990 0.559860 0.052680 -0.575900
O15   O     O_R   0.000010 0.059860 0.947320 -0.575900
O16   O     O_R   0.999990 0.059860 0.052680 -0.575900
O17   O     O_R   0.940110 0.465340 0.559870 -0.554034
O18   O     O_R   0.059890 0.465340 0.440130 -0.554012
O19   O     O_R   0.440110 0.965340 0.559870 -0.553972
O20   O     O_R   0.559890 0.965340 0.440130 -0.553980
O21   O     O_R   0.999990 0.534620 0.408860 -0.571133
O22   O     O_R   0.000010 0.534620 0.591140 -0.571129
O23   O     O_R   0.499990 0.034620 0.408860 -0.571137
O24   O     O_R   0.500010 0.034620 0.591140 -0.571141
O25   O     O_R   0.999950 0.465340 0.408890 -0.558693
O26   O     O_R   0.000050 0.465340 0.591110 -0.558711
O27   O     O_R   0.499950 0.965340 0.408890 -0.558655
O28   O     O_R   0.500050 0.965340 0.591110 -0.558642
O29   O     O_R   0.965330 0.559800 0.034660 -0.578456
O30   O     O_R   0.034670 0.559800 0.965340 -0.578460
O31   O     O_R   0.465330 0.059800 0.034660 -0.578461
O32   O     O_R   0.534670 0.059800 0.965340 -0.578452
O33   O     O_R   0.965350 0.499950 0.125800 -0.612117
O34   O     O_R   0.034650 0.499950 0.874200 -0.612126
O35   O     O_R   0.465350 0.999950 0.125800 -0.612067
O36   O     O_R   0.534650 0.999950 0.874200 -0.612064
O37   O     O_R   0.034620 0.500000 0.056540 -0.572382
O38   O     O_R   0.965380 0.500000 0.943460 -0.572374
O39   O     O_R   0.534620 1.000000 0.056540 -0.572450
O40   O     O_R   0.465380 0.000000 0.943460 -0.572455
O41   O     O_R   0.965350 0.440100 0.034640 -0.563222
O42   O     O_R   0.034650 0.440100 0.965360 -0.563232
O43   O     O_R   0.465350 0.940100 0.034640 -0.563239
O44   O     O_R   0.534650 0.940100 0.965360 -0.563239
O45   O     O_R   0.499940 0.440170 0.947210 -0.575131
O46   O     O_R   0.500060 0.440170 0.052790 -0.575133
O47   O     O_R   0.999940 0.940170 0.947210 -0.575108
O48   O     O_R   0.000060 0.940170 0.052790 -0.575109
C137  C     C_2   0.034972 0.421886 0.275484 0.907601
O49   O     O_2   0.066549 0.400710 0.241275 -0.560826
O50   O     O_R   0.998611 0.403760 0.335236 -0.729611
H57   H     H_    0.002915 0.374179 0.345536 0.342641
C138  C     C_2   0.964998 0.421899 0.724541 0.907571
O51   O     O_2   0.933412 0.400737 0.758750 -0.560828
O52   O     O_R   0.001354 0.403759 0.664802 -0.729602
H58   H     H_    0.997039 0.374180 0.654509 0.342642
C139  C     C_2   0.534908 0.921857 0.275540 0.907654
O53   O     O_2   0.566465 0.900652 0.241335 -0.560802
O54   O     O_R   0.498535 0.903763 0.335316 -0.729636
H59   H     H_    0.502815 0.874177 0.345635 0.342637
C140  C     C_2   0.465101 0.921853 0.724453 0.907669
O55   O     O_2   0.433548 0.900643 0.758661 -0.560804
O56   O     O_R   0.501476 0.903764 0.664671 -0.729641
H60   H     H_    0.497200 0.874177 0.654350 0.342637
C141  C     C_2   0.015612 0.421616 0.169951 0.839844
O57   O     O_2   0.037718 0.404211 0.109541 -0.579689
O58   O     O_R   0.979224 0.402142 0.226890 -0.762166
H61   H     H_    0.974573 0.374263 0.211028 0.337111
C142  C     C_2   0.984362 0.421619 0.830070 0.839837
O59   O     O_2   0.962251 0.404221 0.890485 -0.579672
O60   O     O_R   0.020743 0.402134 0.773136 -0.762163
H62   H     H_    0.025386 0.374253 0.789006 0.337107
C143  C     C_2   0.515553 0.921607 0.170004 0.839865
O61   O     O_2   0.537646 0.904188 0.109606 -0.579721
O62   O     O_R   0.479150 0.902161 0.226955 -0.762181
H63   H     H_    0.474478 0.874286 0.211111 0.337099
C144  C     C_2   0.484454 0.921607 0.829992 0.839867
O63   O     O_2   0.462361 0.904187 0.890389 -0.579723
O64   O     O_R   0.520858 0.902163 0.773040 -0.762187
H64   H     H_    0.525532 0.874289 0.788883 0.337100
C145  C     C_2   0.004062 0.581198 0.179269 0.458795
H65   H     H_    0.982988 0.580385 0.161716 0.077460
O65   O     O_2   0.017127 0.614785 0.183472 -0.527644
C146  C     C_2   0.995964 0.581198 0.820706 0.458762
H66   H     H_    0.017040 0.580378 0.838254 0.077496
O66   O     O_2   0.982907 0.614789 0.816500 -0.527652
C147  C     C_2   0.504129 0.081198 0.179203 0.458645
H67   H     H_    0.483048 0.080403 0.161663 0.077835
O67   O     O_2   0.517229 0.114774 0.183361 -0.528588
C148  C     C_2   0.495867 0.081198 0.820799 0.458689
H68   H     H_    0.516936 0.080403 0.838364 0.077791
O68   O     O_2   0.482778 0.114775 0.816615 -0.528575
C149  C     C_2   0.079143 0.483276 0.220290 0.829619
O69   O     O_2   0.104132 0.493862 0.155388 -0.588979
O70   O     O_R   0.090641 0.485859 0.270627 -0.777895
H69   H     H_    0.119783 0.497125 0.246677 0.329878
C150  C     C_2   0.920850 0.483306 0.779719 0.829628
O71   O     O_2   0.895864 0.493895 0.844619 -0.588974
O72   O     O_R   0.909354 0.485899 0.729381 -0.777919
H70   H     H_    0.880216 0.497176 0.753329 0.329880
C151  C     C_2   0.579129 0.983212 0.220306 0.829584
O73   O     O_2   0.604126 0.993783 0.155398 -0.589043
O74   O     O_R   0.590629 0.985777 0.270640 -0.777861
H71   H     H_    0.619781 0.997018 0.246684 0.329855
C152  C     C_2   0.420873 0.983203 0.779690 0.829574
O75   O     O_2   0.395876 0.993776 0.844596 -0.589050
O76   O     O_R   0.409372 0.985760 0.729356 -0.777849
H72   H     H_    0.380219 0.996997 0.753312 0.329854
C153  C     C_2   0.920756 0.502959 0.404944 0.851070
O77   O     O_2   0.891789 0.479977 0.447325 -0.603974
O78   O     O_R   0.920322 0.544140 0.425808 -0.714179
H73   H     H_    0.894491 0.551087 0.476722 0.333420
C154  C     C_2   0.079244 0.502932 0.595055 0.851070
O79   O     O_2   0.108205 0.479941 0.552682 -0.603959
O80   O     O_R   0.079691 0.544112 0.574175 -0.714201
H74   H     H_    0.105524 0.551051 0.523260 0.333417
C155  C     C_2   0.420758 0.003020 0.404942 0.851047
O81   O     O_2   0.391776 0.980057 0.447345 -0.604034
O82   O     O_R   0.420350 0.044202 0.425771 -0.714066
H75   H     H_    0.394527 0.051167 0.476682 0.333479
C156  C     C_2   0.579242 0.003028 0.595058 0.851044
O83   O     O_2   0.608225 0.980068 0.552652 -0.604049
O84   O     O_R   0.579646 0.044211 0.574235 -0.714057
H76   H     H_    0.605469 0.051178 0.523324 0.333483
C157  C     C_2   0.922904 0.527233 0.275737 0.381139
H77   H     H_    0.900668 0.520548 0.262067 0.089322
O85   O     O_2   0.922214 0.561443 0.300598 -0.511143
C158  C     C_2   0.077105 0.527206 0.724252 0.381161
H78   H     H_    0.099340 0.520513 0.737921 0.089320
O86   O     O_2   0.077805 0.561416 0.699381 -0.511150
C159  C     C_2   0.422926 0.027296 0.275712 0.381276
H79   H     H_    0.400687 0.020628 0.262044 0.089334
O87   O     O_2   0.422263 0.061506 0.300548 -0.510756
C160  C     C_2   0.577072 0.027302 0.724291 0.381288
H80   H     H_    0.599311 0.020636 0.737959 0.089329
O88   O     O_2   0.577732 0.061513 0.699460 -0.510734

loop_
_geom_bond_atom_site_label_1
_geom_bond_atom_site_label_2
_ccdc_geom_bond_type
C15   C75   S    
C114  H42   S    
C23   H7    S    
C157  O85   D    
C147  H67   S    
C42   C58   S    
Cu9   Cu10  S    
C150  O71   D    
C84   C112  S    
Cu12  O8    S    
Cu7   Cu8   S    
C29   C33   A    
C36   H20   S    
C1    O17   A    
C71   O30   A    
C39   H23   S    
C75   O35   A    
C99   H28   S    
C95   C103  S    
Cu6   O42   S    
C69   C117  S    
C127  H39   S    
C17   H49   S    
C91   C100  A    
C18   C142  S    
C115  H43   S    
C119  C121  A    
C116  H44   S    
C83   O45   A    
C41   C49   A    
C4    O4    A    
C25   C29   A    
Cu12  O48   S    
C116  C121  A    
C27   C31   A    
O82   H75   S    
C79   O42   A    
Cu7   O35   S    
C28   C32   A    
C130  C146  S    
C133  C137  S    
C159  O87   D    
C94   C97   A    
C72   O32   A    
C78   C120  S    
C78   C82   T    
O72   H70   S    
C16   C20   S    
C115  C118  A    
C100  H27   S    
C80   O43   A    
C13   C21   S    
C45   O21   A    
C94   C96   A    
Cu2   Cu4   S    
C13   C73   S    
C141  O58   S    
C17   C133  S    
C20   C144  S    
C139  O54   S    
C14   C130  S    
C24   C160  S    
C131  H47   S    
C85   O5    A    
C57   C61   T    
C12   C128  S    
C59   C63   T    
Cu5   O38   S    
C131  C147  S    
C60   C64   T    
C3    O3    A    
C26   C50   A    
C145  O65   D    
C113  C124  A    
C129  C145  S    
C116  C118  A    
C127  C131  S    
Cu9   O10   S    
C74   O38   A    
C125  C129  S    
C5    C21   S    
Cu4   O27   S    
Cu5   O29   S    
C155  O81   D    
C88   O8    A    
C21   H5    S    
C24   H8    S    
C121  H34   S    
C9    C133  S    
C52   H12   S    
C7    C155  S    
Cu11  Cu12  S    
C50   H10   S    
C105  C107  T    
C32   C36   A    
Cu9   O45   S    
C147  O67   D    
C37   H21   S    
C139  O53   D    
C48   O24   A    
C153  O78   S    
Cu8   O36   S    
C125  H37   S    
C138  O51   D    
C156  O84   S    
C135  C151  S    
C20   H52   S    
Cu1   O21   S    
C70   C110  T    
C27   H15   S    
C128  H4    S    
C72   C108  S    
C25   H13   S    
C151  O74   S    
C7    H55   S    
C2    O2    A    
C53   C65   T    
C90   O16   A    
C43   C59   S    
C44   C52   A    
O58   H61   S    
C143  O61   D    
C84   O47   A    
C149  O70   S    
C49   H9    S    
C27   C51   A    
Cu9   O5    S    
Cu1   O2    S    
C152  O76   S    
C30   C34   A    
C158  H78   S    
C80   C82   S    
C104  C112  T    
C98   H25   S    
Cu2   O4    S    
Cu4   O20   S    
C56   C68   T    
C9    C125  S    
C159  H79   S    
C146  O66   D    
C74   O34   A    
C11   C127  S    
C86   O10   A    
C5    C9    S    
C8    C12   S    
C73   O37   A    
Cu3   O25   S    
C20   C136  S    
C140  O56   S    
C8    C156  S    
C42   C50   A    
C113  C117  A    
C114  C123  A    
C26   C30   A    
C160  O88   D    
Cu3   O18   S    
C3    O19   A    
C16   C76   S    
C87   O7    A    
C33   H17   S    
C66   C86   S    
O56   H60   S    
C54   C66   T    
C144  O64   S    
C19   H51   S    
C13   C17   S    
C14   C22   S    
Cu8   O44   S    
C126  H2    S    
C106  C108  T    
C70   C118  S    
C7    C23   S    
C142  O60   S    
C18   C134  S    
C71   O29   A    
C37   C41   A    
Cu2   O23   S    
C114  C117  A    
C91   C95   A    
C40   C44   A    
C15   C131  S    
C12   C136  S    
O64   H64   S    
C13   C129  S    
C10   C126  S    
O52   H58   S    
C92   C99   A    
C136  C152  S    
C58   C62   T    
C9    C45   S    
C71   C107  S    
C11   C47   S    
O60   H62   S    
C12   C48   S    
C93   H31   S    
O54   H59   S    
C15   C19   S    
Cu1   Cu3   S    
Cu11  O47   S    
C79   O41   A    
C148  H68   S    
Cu10  O14   S    
C126  C130  S    
C19   C135  S    
C6    C22   S    
C2    O18   A    
C103  C111  T    
C149  O69   D    
C154  O80   S    
C89   O14   A    
C122  H33   S    
C18   H50   S    
O62   H63   S    
C80   O44   A    
C134  C150  S    
C120  C123  A    
O78   H73   S    
C141  O57   D    
C46   O26   A    
Cu11  O7    S    
C8    H56   S    
C38   H22   S    
C150  O72   S    
C87   O11   A    
Cu8   O32   S    
O74   H71   S    
C126  H38   S    
C23   C159  S    
C26   H14   S    
C33   C37   A    
C35   C39   A    
O70   H69   S    
C145  H65   S    
C11   C135  S    
C30   C54   S    
C129  H45   S    
C77   C81   T    
Cu12  O16   S    
C17   C141  S    
C19   C143  S    
Cu4   O28   S    
C83   O46   A    
C31   C35   A    
C14   C74   S    
C40   H24   S    
Cu6   O34   S    
C97   H26   S    
C128  H40   S    
C86   O6    A    
C130  H46   S    
C1    C61   S    
C6    C10   S    
C6    H54   S    
C3    C63   S    
C98   C101  A    
C113  H41   S    
C4    C64   S    
C72   O31   A    
C76   O36   A    
C41   C57   S    
O84   H76   S    
C5    H53   S    
C43   C51   A    
C153  O77   D    
C137  O49   D    
C44   C60   S    
C134  C138  S    
Cu7   O43   S    
C156  O83   D    
C16   C132  S    
C25   C49   A    
Cu10  O9    S    
O80   H74   S    
C99   C102  A    
Cu9   O13   S    
C151  O73   D    
C133  C149  S    
C31   C55   S    
C34   H18   S    
C32   C56   S    
O76   H72   S    
C84   O48   A    
C157  H77   S    
C14   C18   S    
Cu1   O1    S    
C152  O75   D    
C7    C11   S    
C123  H36   S    
Cu10  O46   S    
C76   O40   A    
C158  O86   D    
C38   C42   A    
C47   O27   A    
Cu8   O39   S    
C89   C109  S    
Cu7   O31   S    
C8    C24   S    
C69   C109  T    
C155  O82   S    
C10   C46   S    
C35   H19   S    
C1    O1    A    
C140  O55   D    
C127  H3    S    
C15   C23   S    
C16   C24   S    
C115  C122  A    
C45   O25   A    
C128  C132  S    
Cu10  O6    S    
C101  C105  S    
C36   C40   A    
Cu11  O15   S    
C124  H35   S    
Cu11  O12   S    
C137  O50   S    
C39   C43   A    
C144  O63   D    
C4    O20   A    
C92   C95   A    
C136  C140  S    
C138  O52   S    
C73   O33   A    
Cu1   O22   S    
C85   O9    A    
Cu5   O41   S    
C22   C158  S    
C100  C102  A    
C142  O59   D    
C46   O22   A    
C47   O23   A    
C94   H32   S    
Cu2   O24   S    
C90   O15   A    
C92   H30   S    
C6    C154  S    
C135  C139  S    
C93   C96   A    
C143  O62   S    
C68   C88   S    
C90   C110  S    
O50   H57   S    
Cu12  O11   S    
C21   C157  S    
C28   H16   S    
C22   H6    S    
C119  C122  A    
Cu5   O33   S    
C88   O12   A    
C34   C38   A    
C10   C134  S    
C77   C119  S    
C55   C67   T    
Cu2   O3    S    
C79   C81   S    
Cu4   O19   S    
C65   C85   S    
C5    C153  S    
Cu6   O37   S    
C67   C87   S    
C146  H66   S    
C96   C104  S    
Cu5   Cu6   S    
C148  O68   D    
C28   C52   A    
Cu3   O17   S    
C29   C53   S    
C91   H29   S    
C51   H11   S    
C132  C148  S    
C102  C106  S    
Cu3   O26   S    
C83   C111  S    
C154  O79   D    
C125  H1    S    
C75   O39   A    
C89   O13   A    
C48   O28   A    
C120  C124  A    
Cu6   O30   S    
C160  H80   S    
C132  H48   S    
Cu7   O40   S    
C93   C98   A    
C97   C101  A    
C2    C62   S    
