data_mof_unit_22039.cif
_audit_creation_date              2012-12-11T14:15:51-0500
_audit_creation_method            fapswitch 2.2
_symmetry_space_group_name_H-M    P1
_symmetry_Int_Tables_number       1
_space_group_crystal_system       triclinic
_cell_length_a                    11.12179
_cell_length_b                    12.674889
_cell_length_c                    23.541895
_cell_angle_alpha                 90.49627
_cell_angle_beta                  96.765347
_cell_angle_gamma                 68.863395
_cell_volume                      3071.77119147

loop_
_atom_site_label
_atom_site_type_symbol
_atom_type_description
_atom_site_fract_x
_atom_site_fract_y
_atom_site_fract_z
_atom_type_partial_charge
C1    C     C_R   0.149529 0.616836 0.428863 0.548501
C2    C     C_2   0.181800 0.228596 0.227234 -0.117697
C3    C     C_2   0.154403 0.161226 0.263707 -0.000716
C4    C     C_R   0.747338 0.605209 0.404297 0.546062
C5    C     C_1   0.131962 0.196681 0.321202 -0.034780
C6    C     C_1   0.211137 0.195626 0.169931 -0.023805
C7    C     C_1   0.115896 0.230997 0.368747 0.011798
C8    C     C_1   0.166751 0.748717 0.123303 -0.004995
C9    C     C_2   0.139717 0.684178 0.226907 0.265840
C10   C     C_2   0.232063 0.677322 0.270743 -0.027582
C11   C     C_1   0.216055 0.652998 0.328789 0.027928
C12   C     C_R   0.661315 0.558191 0.311298 -0.169040
C13   C     C_1   0.153790 0.718148 0.169939 -0.040962
C14   C     C_1   0.193366 0.635106 0.375979 0.031064
C15   C     C_1   0.636307 0.755910 0.867175 0.032978
C16   C     C_R   0.101062 0.282066 0.423416 0.549157
C17   C     C_2   0.716233 0.718245 0.764728 -0.129189
C18   C     C_2   0.753752 0.614427 0.743100 -0.007716
C19   C     C_1   0.771286 0.601018 0.683442 -0.045515
C20   C     C_1   0.677319 0.738777 0.821472 -0.014212
C21   C     C_1   0.786529 0.588257 0.633647 0.009139
C22   C     C_R   0.192337 0.187076 0.855529 -0.002537
C23   C     C_R   0.692222 0.738989 0.318974 0.269411
C24   C     C_R   0.106089 0.230678 0.641761 -0.012589
C25   C     C_R   0.001028 0.172663 0.714096 0.020765
C26   C     C_R   0.013534 0.186446 0.656202 0.226461
C27   C     C_R   0.189294 0.254333 0.684335 -0.155698
C28   C     C_R   0.150014 0.617087 0.591187 0.559379
C29   C     C_R   0.179273 0.240520 0.741168 0.004867
C30   C     C_R   0.085438 0.198965 0.757906 -0.027528
C31   C     C_R   0.086782 0.180754 0.817407 -0.029709
C32   C     C_R   0.271793 0.241211 0.838060 -0.119877
C33   C     C_R   0.264148 0.268956 0.781250 -0.116836
C34   C     C_R   0.692439 0.744135 0.259111 0.128609
C35   C     C_R   0.123539 0.742740 0.853918 0.045946
C36   C     C_R   0.191905 0.639171 0.650508 0.029075
C37   C     C_R   0.310479 0.562973 0.744023 -0.021994
C38   C     C_R   0.297455 0.556490 0.683610 0.210546
C39   C     C_R   0.106862 0.731709 0.677467 -0.067999
C40   C     C_R   0.810424 0.570527 0.575149 0.558222
C41   C     C_R   0.105105 0.725229 0.736210 -0.031260
C42   C     C_R   0.210859 0.644894 0.770205 -0.024116
C43   C     C_R   0.218091 0.654419 0.829609 -0.163006
C44   C     C_R   0.006362 0.806126 0.820843 0.243820
C45   C     C_R   0.681378 0.652232 0.226543 -0.051727
C46   C     C_R   0.998982 0.798338 0.761656 -0.116934
C47   C     C_R   0.265758 0.110313 0.069372 0.543619
C48   C     C_R   0.601161 0.774788 0.081064 0.552243
C49   C     C_R   0.189590 0.787724 0.069795 0.548396
C50   C     C_R   0.239648 0.117057 0.908271 0.536384
C51   C     C_R   0.575471 0.776223 0.918684 0.550995
C52   C     C_R   0.099749 0.278440 0.585113 0.519982
C53   C     C_R   0.162562 0.785195 0.908015 0.565455
C54   C     C_R   0.669312 0.755532 0.139238 -0.041823
C55   C     C_R   0.689214 0.639891 0.345053 -0.043382
C56   C     C_R   0.683135 0.655396 0.167738 -0.137371
C57   C     C_R   0.659957 0.562145 0.252704 -0.032994
C58   C     C_1   0.774691 0.514144 0.777621 0.243423
C59   C     C_1   0.982883 0.157788 0.840295 0.253190
C60   C     C_1   0.903342 0.127798 0.725677 0.295752
C61   C     C_1   0.423471 0.484856 0.778772 0.158182
C62   C     C_1   0.023098 0.835266 0.645731 0.231028
C63   C     C_1   0.637885 0.471146 0.220872 0.195147
C64   C     C_1   0.149647 0.052349 0.247555 0.241419
C65   C     C_R   0.685802 0.844782 0.170346 -0.152151
C66   C     C_R   0.701666 0.838755 0.230526 0.290755
C67   C     C_1   0.236213 0.162060 0.123033 0.017305
Cr1   Cr    Cr6+3 0.189770 0.415650 0.511620 1.079818
Cr2   Cr    Cr6+3 0.930400 0.667320 0.496770 1.081310
Cr3   Cr    Cr6+3 0.879870 0.417010 0.491650 1.063904
Cr4   Cr    Cr6+3 0.149500 0.973980 0.985330 1.086806
Cr5   Cr    Cr6+3 0.457000 0.976510 0.994660 1.054442
Cr6   Cr    Cr6+3 0.411170 0.724270 0.995270 1.044882
H1    H     H_    0.677443 0.584565 0.142990 0.167323
H2    H     H_    0.184983 0.309734 0.240961 0.141882
H3    H     H_    0.318133 0.694496 0.263561 0.087985
H4    H     H_    0.974074 0.672160 0.199786 0.325385
H5    H     H_    0.975364 0.139094 0.579554 0.338293
H6    H     H_    0.830090 0.917009 0.817055 0.335596
H7    H     H_    0.445900 0.413212 0.682879 0.337443
H8    H     H_    0.724363 0.984340 0.234612 0.324705
H9    H     H_    0.652671 0.830736 0.385430 0.323204
H10   H     H_    0.703052 0.791435 0.737575 0.126212
H11   H     H_    0.347887 0.253185 0.867595 0.154163
H12   H     H_    0.332311 0.304279 0.768125 0.132312
H13   H     H_    0.259325 0.289934 0.673392 0.163980
H14   H     H_    0.303598 0.600761 0.856698 0.155308
H15   H     H_    0.678045 0.921794 0.148026 0.131629
H16   H     H_    0.911640 0.851917 0.735593 0.127496
H17   H     H_    0.651549 0.485016 0.330918 0.162571
N1    N     N_1   0.792011 0.433766 0.805259 -0.259269
N2    N     N_1   0.900141 0.140077 0.859134 -0.205922
N3    N     N_1   0.824510 0.092199 0.734132 -0.271026
N4    N     N_1   0.513376 0.422394 0.806591 -0.263734
N5    N     N_1   0.956197 0.917448 0.620516 -0.224934
N6    N     N_1   0.620174 0.398414 0.195489 -0.283553
N7    N     N_1   0.145823 0.965236 0.234603 -0.295123
O1    O     O_R   0.196340 0.303200 0.448500 -0.497642
O2    O     O_R   0.555390 0.700940 0.062700 -0.511314
O3    O     O_R   0.295020 0.731920 0.049950 -0.495160
O4    O     O_R   0.199310 0.519670 0.454880 -0.495308
O5    O     O_R   0.094290 0.884230 0.921550 -0.435692
O6    O     O_R   0.168980 0.069410 0.926940 -0.492447
O7    O     O_R   0.358400 0.089990 0.927950 -0.510992
O8    O     O_R   0.544850 0.873850 0.939920 -0.486129
O9    O     O_R   0.536020 0.701900 0.936430 -0.499972
O10   O     O_R   0.277070 0.732810 0.932890 -0.524964
O11   O     O_3   0.339220 0.891590 0.991750 -0.262991
O12   O     O_R   0.811960 0.658090 0.547150 -0.493801
O13   O     O_R   0.045660 0.691380 0.441680 -0.472243
O14   O     O_R   0.811930 0.659460 0.430950 -0.469653
O15   O     O_R   0.757900 0.507620 0.421760 -0.512214
O16   O     O_R   0.988630 0.322990 0.439840 -0.491908
O17   O     O_R   0.196380 0.301720 0.573850 -0.503189
O18   O     O_R   0.199350 0.518300 0.571080 -0.440151
O19   O     O_R   0.045700 0.689900 0.567030 -0.526171
O20   O     O_3   0.030496 0.662573 0.236758 -0.673747
O21   O     O_3   0.932644 0.157678 0.614869 -0.652609
O22   O     O_3   0.904814 0.880086 0.846635 -0.657841
O23   O     O_R   0.757930 0.506140 0.547110 -0.477313
O24   O     O_3   0.385348 0.472466 0.655412 -0.670673
O25   O     O_3   0.719146 0.926520 0.261343 -0.600152
O26   O     O_3   0.696656 0.829569 0.351042 -0.596271
O27   O     O_R   0.988670 0.321620 0.556040 -0.500272
O28   O     O_3   0.000020 0.499990 0.500010 -0.296393
O29   O     O_R   0.113660 0.883270 0.047820 -0.496887
O30   O     O_R   0.186930 0.068530 0.043990 -0.492380
O31   O     O_R   0.377770 0.089040 0.054220 -0.506327
O32   O     O_R   0.562800 0.872960 0.056970 -0.497385

loop_
_geom_bond_atom_site_label_1
_geom_bond_atom_site_label_2
_ccdc_geom_bond_type
C24   C52   S    
Cr6   O3    S    
Cr2   O19   S    
C50   O7    A    
C8    C13   T    
C27   C29   A    
C9    O20   S    
C41   C42   A    
C24   C27   A    
C16   O16   A    
C34   C66   A    
Cr5   O32   S    
C39   C41   A    
C46   H16   S    
C3    C64   S    
C48   C54   S    
C49   O29   A    
C45   C57   A    
C29   C30   A    
C22   C32   A    
Cr5   O31   S    
C12   H17   S    
H5    O21   S    
C24   C26   A    
H4    O20   S    
C30   C31   A    
C11   C14   T    
Cr6   O10   S    
C35   C53   S    
C29   C33   A    
C17   C20   S    
C18   C19   S    
C31   C59   S    
C37   C42   A    
C39   C62   S    
C33   H12   S    
C9    C13   S    
C28   O19   A    
C10   H3    S    
C18   C58   S    
Cr5   O11   S    
C45   C56   A    
Cr3   O23   S    
H6    O22   S    
C41   C46   A    
C66   O25   S    
Cr4   O29   S    
C25   C60   S    
C15   C51   S    
C35   C43   A    
C9    C10   D    
C22   C50   S    
C60   N3    T    
C4    O15   A    
Cr2   O28   S    
C50   O6    A    
C62   N5    T    
Cr4   O30   S    
C2    C6    S    
Cr2   O12   S    
C47   C67   S    
C44   C46   A    
C57   C63   S    
H7    O24   S    
Cr3   O16   S    
C15   C20   T    
C32   H11   S    
C54   C65   A    
C54   C56   A    
C56   H1    S    
C22   C31   A    
C12   C55   A    
C47   O31   A    
Cr1   O4    S    
C5    C7    T    
C61   N4    T    
Cr6   O11   S    
C23   O26   S    
Cr5   O7    S    
C44   O22   S    
C25   C26   A    
C63   N6    T    
C17   H10   S    
C27   H13   S    
C37   C38   A    
C28   O18   A    
C1    O13   A    
Cr2   O13   S    
C53   O10   A    
C53   O5    A    
C51   O8    A    
C23   C34   A    
C17   C18   D    
C34   C45   A    
C47   O30   A    
C35   C44   A    
Cr3   O15   S    
C12   C57   A    
Cr3   O28   S    
C7    C16   S    
C40   O23   A    
C4    O14   A    
C4    C55   S    
C48   O32   A    
C42   C43   A    
C1    O4    A    
H9    O26   S    
C65   H15   S    
C58   N1    T    
C25   C30   A    
Cr6   O2    S    
C48   O2    A    
Cr4   O6    S    
C64   N7    T    
C19   C21   T    
Cr4   O5    S    
C36   C39   A    
C26   O21   S    
C3    C5    S    
C37   C61   S    
C23   C55   A    
C40   O12   A    
C52   O17   A    
H8    O25   S    
C43   H14   S    
C32   C33   A    
C36   C38   A    
C2    C3    D    
C6    C67   T    
C49   O3    A    
C52   O27   A    
C16   O1    A    
Cr6   O9    S    
C21   C40   S    
C51   O9    A    
C8    C49   S    
C59   N2    T    
Cr2   O14   S    
Cr1   O1    S    
C38   O24   S    
C10   C11   S    
Cr1   O18   S    
Cr3   O27   S    
Cr5   O8    S    
C28   C36   S    
C65   C66   A    
C1    C14   S    
Cr4   O11   S    
Cr1   O28   S    
C2    H2    S    
Cr1   O17   S    
