data_mof_unit_57464.cif
_audit_creation_date              2012-12-10T20:48:47-0500
_audit_creation_method            fapswitch 2.2
_symmetry_space_group_name_H-M    P1
_symmetry_Int_Tables_number       1
_space_group_crystal_system       triclinic
_cell_length_a                    15.72319
_cell_length_b                    8.944167
_cell_length_c                    8.117639
_cell_angle_alpha                 89.257287
_cell_angle_beta                  88.25977
_cell_angle_gamma                 90.089536
_cell_volume                      1140.9657949

loop_
_atom_site_label
_atom_site_type_symbol
_atom_type_description
_atom_site_fract_x
_atom_site_fract_y
_atom_site_fract_z
_atom_type_partial_charge
C1    C     C_R   0.500056 0.217996 0.500661 0.927473
C2    C     C_3   0.052582 0.353755 0.361376 0.327324
C3    C     C_3   0.944256 0.411732 0.678177 0.334250
C4    C     C_3   0.953027 0.343788 0.370115 0.353790
C5    C     C_1   0.750779 0.484842 0.491803 -0.229388
C6    C     C_1   0.249080 0.486900 0.508493 -0.209230
C7    C     C_3   0.083065 0.458864 0.502921 0.037845
C8    C     C_3   0.916710 0.456280 0.499591 0.078261
C9    C     C_3   0.952131 0.614568 0.455044 -0.611629
C10   C     C_3   0.049820 0.616273 0.454966 -0.607510
C11   C     C_3   0.830999 0.248212 0.781898 0.133356
C12   C     C_1   0.825648 0.469380 0.492063 -0.070719
C13   C     C_3   0.797605 0.358835 0.912317 -0.453140
C14   C     C_3   0.712601 0.306641 0.988743 -0.891422
C15   C     C_3   0.868959 0.138937 0.299937 0.099896
C16   C     C_3   0.847371 0.977994 0.349639 -0.330085
C17   C     C_3   0.783679 0.908816 0.234609 -0.984661
C18   C     C_3   0.085996 0.165233 0.717325 0.225694
C19   C     C_3   0.070386 0.056915 0.863005 -0.338776
C20   C     C_3   0.059864 0.896581 0.806490 -1.017120
C21   C     C_3   0.173915 0.193343 0.299554 0.052734
C22   C     C_3   0.201311 0.290392 0.148228 -0.424844
C23   C     C_1   0.174120 0.472162 0.508745 -0.009073
C24   C     C_3   0.285713 0.237279 0.071801 -0.864121
C25   C     C_R   0.337738 0.499846 0.502524 0.896190
C26   C     C_R   0.662251 0.499348 0.497461 0.906185
C27   C     C_1   0.500209 0.934847 0.498979 -0.201024
C28   C     C_1   0.500172 0.065167 0.500909 -0.206071
C29   C     C_R   0.500152 0.781995 0.499306 0.937237
C30   C     C_3   0.043527 0.422210 0.679401 0.299663
H1    H     H_    0.071691 0.701964 0.541516 0.224730
H2    H     H_    0.689804 0.389052 0.080896 0.282125
H3    H     H_    0.719687 0.196582 0.051389 0.248214
H4    H     H_    0.898083 0.139346 0.173052 0.143158
H5    H     H_    0.809576 0.206447 0.302207 0.143049
H6    H     H_    0.906901 0.911575 0.345557 0.234607
H7    H     H_    0.820443 0.974709 0.477891 0.219686
H8    H     H_    0.809063 0.912023 0.105374 0.262647
H9    H     H_    0.722351 0.970157 0.242305 0.269141
H10   H     H_    0.771875 0.790436 0.271615 0.273377
H11   H     H_    0.149517 0.141634 0.660383 0.131732
H12   H     H_    0.075335 0.651961 0.331000 0.211823
H13   H     H_    0.037209 0.143887 0.625843 0.258538
H14   H     H_    0.125045 0.060215 0.945925 0.220117
H15   H     H_    0.012157 0.090541 0.934151 0.254116
H16   H     H_    0.005478 0.888314 0.722884 0.275027
H17   H     H_    0.047177 0.822139 0.915053 0.266815
H18   H     H_    0.119327 0.859236 0.742368 0.263840
H19   H     H_    0.182067 0.074418 0.264666 0.172910
H20   H     H_    0.218237 0.209256 0.401277 0.141071
H21   H     H_    0.152027 0.286435 0.054308 0.266517
H22   H     H_    0.209513 0.408700 0.183950 0.224168
H23   H     H_    0.926985 0.697880 0.544878 0.212736
H24   H     H_    0.336441 0.241376 0.163967 0.274386
H25   H     H_    0.304353 0.311120 0.965661 0.276430
H26   H     H_    0.279631 0.121104 0.026876 0.246648
H27   H     H_    0.066948 0.410581 0.241304 0.055210
H28   H     H_    0.055458 0.525715 0.750482 0.097874
H29   H     H_    0.930226 0.380578 0.246741 -0.003894
H30   H     H_    0.920002 0.497658 0.765383 0.034144
H31   H     H_    0.931066 0.649412 0.330524 0.219338
H32   H     H_    0.825718 0.134141 0.837154 0.155024
H33   H     H_    0.789684 0.244543 0.674189 0.155832
H34   H     H_    0.844530 0.369663 0.010773 0.215378
H35   H     H_    0.787195 0.470476 0.855125 0.228230
H36   H     H_    0.664405 0.296833 0.892209 0.279724
N1    N     N_1   0.500000 0.500030 0.073640 -0.037632
N2    N     N_1   0.500000 0.500030 0.926360 -0.038170
O1    O     O_R   0.500000 0.285340 0.636850 -0.619302
O2    O     O_3   0.926757 0.195886 0.413081 -0.591080
O3    O     O_3   0.085706 0.312926 0.777029 -0.667213
O4    O     O_3   0.087927 0.207068 0.358564 -0.641346
O5    O     O_R   0.500000 0.285340 0.363150 -0.620691
O6    O     O_R   0.377140 0.500000 0.636930 -0.612791
O7    O     O_R   0.377140 0.500000 0.363070 -0.616929
O8    O     O_R   0.622860 0.500000 0.636930 -0.616892
O9    O     O_R   0.622860 0.500000 0.363070 -0.625433
O10   O     O_R   0.500000 0.714650 0.636900 -0.612578
O11   O     O_R   0.500000 0.714650 0.363100 -0.612533
O12   O     O_3   0.917893 0.266255 0.732764 -0.621745
Zn1   Zn    Zn3+2 0.500000 0.499990 0.682780 0.972239
Zn2   Zn    Zn3+2 0.500000 0.499990 0.317220 0.966542

loop_
_geom_bond_atom_site_label_1
_geom_bond_atom_site_label_2
_ccdc_geom_bond_type
C7    C10   S    
C10   H12   S    
C2    C7    S    
C4    C8    S    
C11   H32   S    
C14   H3    S    
C21   H19   S    
C30   O3    S    
C2    H27   S    
C13   H35   S    
C24   H25   S    
C9    H31   S    
N2    Zn1   S    
C18   C19   S    
C11   H33   S    
C6    C25   S    
C27   C29   S    
C24   H24   S    
C15   C16   S    
C25   O6    A    
C17   H9    S    
C15   H5    S    
C10   H1    S    
C29   O10   A    
C19   C20   S    
C8    C9    S    
C1    C28   S    
C26   O8    A    
C9    C10   S    
C15   H4    S    
C16   H7    S    
C3    H30   S    
C7    C30   S    
C21   C22   S    
C2    O4    S    
C3    O12   S    
C4    O2    S    
C21   H20   S    
C26   O9    A    
C21   O4    S    
N1    N2    T    
C5    C12   T    
C3    C8    S    
C18   H11   S    
C16   C17   S    
C1    O1    A    
C25   O7    A    
C17   H10   S    
C3    C30   S    
C2    C4    S    
C29   O11   A    
C8    C12   S    
C14   H36   S    
C20   H18   S    
C22   C24   S    
C9    H23   S    
O6    Zn1   S    
O5    Zn2   S    
C19   H14   S    
C22   H22   S    
C18   O3    S    
C15   O2    S    
C14   H2    S    
O8    Zn1   S    
O11   Zn2   S    
C19   H15   S    
O7    Zn2   S    
C24   H26   S    
C1    O5    A    
C18   H13   S    
C16   H6    S    
C11   C13   S    
O10   Zn1   S    
C13   H34   S    
O9    Zn2   S    
C7    C23   S    
C6    C23   T    
C30   H28   S    
C4    H29   S    
C17   H8    S    
C20   H17   S    
O1    Zn1   S    
C11   O12   S    
C5    C26   S    
N1    Zn2   S    
C27   C28   T    
C13   C14   S    
C20   H16   S    
C22   H21   S    
