data_mof_unit_62456.cif
_audit_creation_date              2012-12-10T17:54:00-0500
_audit_creation_method            fapswitch 2.2
_symmetry_space_group_name_H-M    P1
_symmetry_Int_Tables_number       1
_space_group_crystal_system       triclinic
_cell_length_a                    18.834626
_cell_length_b                    18.630134
_cell_length_c                    18.987352
_cell_angle_alpha                 109.410109
_cell_angle_beta                  109.375058
_cell_angle_gamma                 109.102226
_cell_volume                      5161.8053225

loop_
_atom_site_label
_atom_site_type_symbol
_atom_type_description
_atom_site_fract_x
_atom_site_fract_y
_atom_site_fract_z
_atom_type_partial_charge
C1    C     C_R   0.880723 0.380891 0.999232 0.804892
C2    C     C_R   0.814985 0.312629 0.998577 -0.081995
C3    C     C_R   0.745317 0.239281 0.920359 -0.196670
C4    C     C_R   0.680088 0.175431 0.920240 -0.211348
C5    C     C_R   0.685906 0.183290 0.998404 -0.081258
C6    C     C_R   0.760910 0.250387 0.075078 0.139942
C7    C     C_3   0.770159 0.314295 0.154794 -0.485925
C8    C     C_3   0.839190 0.385107 0.154756 -0.454119
C9    C     C_R   0.180664 0.500503 0.254072 0.129027
C10   C     C_R   0.184825 0.499694 0.182353 -0.088466
C11   C     C_R   0.256833 0.498761 0.175262 -0.211851
C12   C     C_R   0.886999 0.505483 0.882854 0.856452
C13   C     C_R   0.322003 0.500088 0.240467 -0.210265
C14   C     C_R   0.314024 0.499431 0.311633 -0.084171
C15   C     C_R   0.241348 0.498583 0.314800 0.122593
C16   C     C_3   0.197290 0.499132 0.367014 -0.470210
C17   C     C_3   0.127416 0.500404 0.297086 -0.480212
C18   C     C_R   0.254235 0.758000 0.074063 0.119828
C19   C     C_R   0.183720 0.685029 0.998837 -0.082490
C20   C     C_R   0.178940 0.676687 0.920508 -0.206789
C21   C     C_R   0.243655 0.741685 0.920471 -0.206587
C22   C     C_R   0.315151 0.813895 0.998822 -0.083984
C23   C     C_R   0.118602 0.618818 0.000124 0.788139
C24   C     C_R   0.317876 0.818458 0.074086 0.113629
C25   C     C_3   0.368626 0.872234 0.169462 -0.455988
C26   C     C_3   0.296435 0.802585 0.169485 -0.462748
C27   C     C_R   0.498509 0.380897 0.380136 0.856403
C28   C     C_R   0.614365 0.498166 0.614167 0.843670
C29   C     C_R   0.496758 0.618723 0.615252 0.797322
C30   C     C_R   0.379134 0.499953 0.378703 0.788970
C31   C     C_R   0.501283 0.881503 0.882325 0.797856
C32   C     C_R   0.618682 0.118860 0.999929 0.791529
C33   C     C_R   0.498310 0.118206 0.117774 0.803060
C34   C     C_R   0.118015 0.499763 0.117504 0.798076
C35   C     C_R   0.381527 0.881285 0.000066 0.798337
C36   C     C_R   0.468427 0.302220 0.233193 0.081231
C37   C     C_R   0.498814 0.312507 0.315537 -0.154837
C38   C     C_R   0.516466 0.248305 0.329509 -0.045192
C39   C     C_R   0.513105 0.182643 0.262470 -0.251803
C40   C     C_R   0.492607 0.180308 0.183252 -0.121118
C41   C     C_R   0.464938 0.237123 0.168095 0.150657
C42   C     C_3   0.492990 0.294821 0.132734 -0.458402
C43   C     C_3   0.496816 0.366583 0.204490 -0.467152
C44   C     C_R   0.500556 0.758997 0.682683 0.119612
C45   C     C_2   0.752010 0.500624 0.679200 -0.205561
C46   C     C_R   0.500010 0.685116 0.684443 -0.090414
C47   C     C_R   0.502495 0.677098 0.756509 -0.195496
C48   C     C_R   0.505263 0.742789 0.823353 -0.209492
C49   C     C_R   0.502651 0.815390 0.817110 -0.090475
C50   C     C_R   0.500010 0.820149 0.745029 0.126728
C51   C     C_3   0.494920 0.872584 0.700915 -0.468927
C52   C     C_3   0.494777 0.802238 0.629292 -0.471707
C53   C     C_2   0.676043 0.488116 0.676275 -0.136438
C54   C     C_2   0.815031 0.489344 0.739527 -0.118159
C55   C     C_2   0.831598 0.519821 0.820989 -0.281146
C56   C     C_R   0.823815 0.314756 0.075240 0.097918
Cu1   Cu    Cu3+1 0.999590 0.561790 0.061400 0.950238
Cu2   Cu    Cu3+1 0.000410 0.438210 0.938600 0.959056
Cu3   Cu    Cu3+1 0.558560 0.561730 0.496790 0.955782
Cu4   Cu    Cu3+1 0.434970 0.438120 0.496790 1.000931
Cu5   Cu    Cu3+1 0.438600 0.999980 0.938570 0.950003
Cu6   Cu    Cu3+1 0.561400 0.999920 0.061330 0.956112
H1    H     H_    0.767308 0.516901 0.634286 0.166766
H2    H     H_    0.904884 0.414960 0.209648 0.191333
H3    H     H_    0.263350 0.498473 0.120607 0.156088
H4    H     H_    0.377391 0.500303 0.234706 0.150480
H5    H     H_    0.174038 0.437520 0.369641 0.209796
H6    H     H_    0.235297 0.560394 0.430028 0.192667
H7    H     H_    0.064028 0.439244 0.258938 0.191892
H8    H     H_    0.124647 0.562115 0.319877 0.206695
H9    H     H_    0.125064 0.621029 0.859853 0.154428
H10   H     H_    0.238491 0.734962 0.859814 0.155150
H11   H     H_    0.431664 0.873844 0.196289 0.209009
H12   H     H_    0.371668 0.936943 0.193017 0.206164
H13   H     H_    0.317662 0.763548 0.195719 0.195974
H14   H     H_    0.258259 0.827281 0.193698 0.211394
H15   H     H_    0.530297 0.135612 0.273220 0.196906
H16   H     H_    0.557351 0.308572 0.138480 0.186443
H17   H     H_    0.441280 0.272384 0.067876 0.204542
H18   H     H_    0.563438 0.422090 0.251911 0.212728
H19   H     H_    0.447298 0.385472 0.180983 0.191970
H20   H     H_    0.502964 0.620932 0.761382 0.174961
H21   H     H_    0.848151 0.457247 0.717110 0.169305
H22   H     H_    0.507186 0.735789 0.878248 0.160042
H23   H     H_    0.432919 0.873708 0.680463 0.207778
H24   H     H_    0.554260 0.937421 0.736998 0.192723
H25   H     H_    0.432494 0.762532 0.567788 0.192798
H26   H     H_    0.553809 0.826486 0.623604 0.210360
H27   H     H_    0.804541 0.559482 0.844428 0.151398
H28   H     H_    0.739244 0.233637 0.859732 0.162052
H29   H     H_    0.624862 0.121066 0.859629 0.151249
H30   H     H_    0.711152 0.320544 0.143405 0.188947
H31   H     H_    0.796137 0.303257 0.209620 0.205575
H32   H     H_    0.820140 0.432389 0.143143 0.214161
O1    O     O_R   0.909480 0.462010 0.051860 -0.586670
O2    O     O_R   0.445180 0.357580 0.407200 -0.572650
O3    O     O_R   0.638540 0.552110 0.586390 -0.593894
O4    O     O_R   0.534170 0.447730 0.586390 -0.546425
O5    O     O_R   0.548350 0.642270 0.586380 -0.585741
O6    O     O_R   0.443970 0.537890 0.586380 -0.585235
O7    O     O_R   0.459360 0.552110 0.407190 -0.591951
O8    O     O_R   0.354990 0.447740 0.407190 -0.587964
O9    O     O_R   0.448700 0.909820 0.858480 -0.588586
O10   O     O_R   0.552410 0.909770 0.962140 -0.583663
O11   O     O_R   0.538310 0.090150 0.948110 -0.587134
O12   O     O_R   0.910180 0.357650 0.948150 -0.582042
O13   O     O_R   0.642020 0.090090 0.051780 -0.580324
O14   O     O_R   0.447590 0.090130 0.037760 -0.581601
O15   O     O_R   0.551300 0.090080 0.141420 -0.588353
O16   O     O_R   0.357980 0.909810 0.948120 -0.585170
O17   O     O_R   0.461690 0.909750 0.051790 -0.586456
O18   O     O_R   0.910060 0.552180 0.962250 -0.587835
O19   O     O_R   0.910760 0.447820 0.858550 -0.579307
O20   O     O_R   0.089820 0.642350 0.051850 -0.586015
O21   O     O_R   0.090520 0.537990 0.948140 -0.592591
O22   O     O_R   0.089240 0.552180 0.141450 -0.587668
O23   O     O_R   0.089940 0.447820 0.037750 -0.584582
O24   O     O_R   0.549550 0.461960 0.407200 -0.591389
C57   C     C_2   0.643335 0.447944 0.723086 0.878380
O25   O     O_2   0.605401 0.475035 0.756662 -0.612883
O26   O     O_R   0.653116 0.377496 0.725901 -0.736299
H33   H     H_    0.627821 0.355960 0.759107 0.327226
C58   C     C_2   0.544302 0.250516 0.413634 0.852728
O27   O     O_2   0.578315 0.318947 0.480285 -0.610492
O28   O     O_R   0.533597 0.173919 0.416782 -0.769138
H34   H     H_    0.555585 0.183592 0.477468 0.345350

loop_
_geom_bond_atom_site_label_1
_geom_bond_atom_site_label_2
_ccdc_geom_bond_type
C28   O3    A    
Cu3   Cu4   S    
C17   H7    S    
Cu3   O5    S    
C41   C42   S    
C19   C20   A    
C18   C26   S    
C51   H23   S    
C27   O2    A    
C7    C8    S    
C22   C35   S    
C58   O27   D    
C3    H28   S    
C18   C24   A    
C39   H15   S    
C36   C37   A    
Cu5   O9    S    
C31   C49   S    
C1    C2    S    
Cu4   O4    S    
C5    C6    A    
C58   O28   S    
Cu1   O18   S    
C34   O22   A    
C15   C16   S    
C18   C19   A    
C47   H20   S    
Cu5   O14   S    
C44   C50   A    
C54   C55   D    
Cu6   O17   S    
C16   C17   S    
C32   O13   A    
Cu2   O19   S    
C26   H14   S    
C20   H9    S    
C16   H6    S    
Cu5   O11   S    
C9    C10   A    
C38   C58   S    
C1    O12   A    
C5    C32   S    
C44   C52   S    
C34   O23   A    
C45   C53   D    
C42   H17   S    
C21   C22   A    
C8    C56   S    
C36   C41   A    
C33   O14   A    
C14   C30   S    
Cu4   O8    S    
Cu5   O16   S    
C51   H24   S    
C54   H21   S    
C44   C46   A    
C50   C51   S    
Cu1   O22   S    
Cu6   O10   S    
C13   H4    S    
C57   O26   S    
C38   C39   A    
C7    H31   S    
C33   C40   S    
C29   O5    A    
C21   H10   S    
C51   C52   S    
Cu3   O7    S    
C52   H26   S    
C8    H32   S    
C24   C25   S    
C39   C40   A    
Cu6   O13   S    
C43   H18   S    
C45   H1    S    
Cu2   O23   S    
C48   H22   S    
Cu2   O12   S    
C31   O9    A    
C19   C23   S    
C37   C38   A    
C47   C48   A    
C1    O1    A    
C30   O8    A    
C26   H13   S    
C10   C34   S    
C16   H5    S    
C57   O25   D    
O26   H33   S    
C6    C7    S    
C35   O16   A    
C8    H2    S    
Cu4   O2    S    
C9    C17   S    
C48   C49   A    
C45   C54   S    
C42   H16   S    
Cu3   O24   S    
C32   O11   A    
Cu2   O21   S    
C43   H19   S    
C22   C24   A    
C33   O15   A    
C42   C43   S    
C3    C4    A    
C12   O18   A    
C35   O17   A    
C12   O19   A    
C27   O24   A    
C28   O4    A    
C46   C47   A    
C40   C41   A    
C29   O6    A    
C52   H25   S    
C6    C56   A    
C4    C5    A    
Cu4   O6    S    
C28   C53   S    
C53   C57   S    
Cu1   O20   S    
C29   C46   S    
C25   H12   S    
C31   O10   A    
C4    H29   S    
C2    C3    A    
C25   C26   S    
C55   H27   S    
C2    C56   A    
C23   O20   A    
C11   C13   A    
Cu1   Cu2   S    
O28   H34   S    
Cu6   O15   S    
C27   C37   S    
Cu3   O3    S    
C7    H30   S    
C30   O7    A    
C25   H11   S    
C9    C15   A    
Cu5   Cu6   S    
C12   C55   S    
C10   C11   A    
C23   O21   A    
C17   H8    S    
C20   C21   A    
C49   C50   A    
Cu1   O1    S    
C14   C15   A    
C36   C43   S    
C13   C14   A    
C11   H3    S    
