data_mof_unit_16737.cif
_audit_creation_date              2012-12-10T20:01:13-0500
_audit_creation_method            fapswitch 2.2
_symmetry_space_group_name_H-M    P1
_symmetry_Int_Tables_number       1
_space_group_crystal_system       triclinic
_cell_length_a                    18.572858
_cell_length_b                    18.525422
_cell_length_c                    39.882314
_cell_angle_alpha                 89.832132
_cell_angle_beta                  89.977634
_cell_angle_gamma                 90.113762
_cell_volume                      13722.2220403

loop_
_atom_site_label
_atom_site_type_symbol
_atom_type_description
_atom_site_fract_x
_atom_site_fract_y
_atom_site_fract_z
_atom_type_partial_charge
C1    C     C_R   0.499998 0.999854 0.909502 0.786030
C2    C     C_R   0.999847 0.500005 0.908932 0.820341
C3    C     C_R   0.000013 0.499971 0.409127 0.794524
C4    C     C_R   0.500123 0.000101 0.409515 0.845756
C5    C     C_R   0.000305 0.499326 0.871245 -0.134413
C6    C     C_R   0.499992 0.001672 0.872744 -0.124191
C7    C     C_R   0.500089 0.000280 0.372842 -0.081521
C8    C     C_R   0.000009 0.499819 0.371707 -0.151782
C9    C     C_R   0.003984 0.497097 0.800439 0.003419
C10   C     C_R   0.499935 0.005697 0.802399 -0.015645
C11   C     C_R   0.499474 0.999345 0.302498 0.003703
C12   C     C_R   0.999714 0.499273 0.300927 -0.018388
C13   C     C_1   0.005302 0.496673 0.764581 -0.036735
C14   C     C_1   0.498874 0.007906 0.766256 -0.040556
C15   C     C_1   0.499462 0.999284 0.266230 -0.036878
C16   C     C_1   0.999679 0.499148 0.264927 -0.034555
C17   C     C_1   0.499530 0.999290 0.236027 -0.031372
C18   C     C_1   0.999690 0.499174 0.234887 -0.022787
C19   C     C_1   0.005820 0.497967 0.734637 -0.025699
C20   C     C_1   0.497529 0.009534 0.736123 -0.021659
C21   C     C_R   0.548742 0.954986 0.182310 0.141114
C22   C     C_R   0.031688 0.557608 0.181497 0.134297
C23   C     C_R   0.450570 0.043890 0.182228 0.141391
C24   C     C_R   0.967867 0.441285 0.181503 0.134278
C25   C     C_R   0.055378 0.457279 0.681098 0.128940
C26   C     C_R   0.552790 0.044544 0.682287 0.131663
C27   C     C_R   0.956284 0.545206 0.682049 0.142263
C28   C     C_R   0.438937 0.976654 0.682845 0.130660
C29   C     C_R   0.547794 0.953604 0.146650 0.090100
C30   C     C_R   0.039674 0.553000 0.146213 0.076744
C31   C     C_R   0.451732 0.045570 0.146570 0.089939
C32   C     C_R   0.960041 0.446268 0.146207 0.076597
C33   C     C_R   0.048238 0.451049 0.645836 0.073379
C34   C     C_R   0.554138 0.041965 0.646639 0.083148
C35   C     C_R   0.956087 0.547219 0.646521 0.085123
C36   C     C_R   0.442717 0.968709 0.647359 0.076687
C37   C     C_R   0.499837 0.999685 0.128597 -0.148562
C38   C     C_R   0.999906 0.499733 0.128242 -0.134941
C39   C     C_R   0.001122 0.498978 0.628237 -0.146091
C40   C     C_R   0.499503 0.002992 0.628860 -0.159424
C41   C     C_R   0.499609 0.999373 0.199677 -0.006302
C42   C     C_R   0.999747 0.499350 0.198815 -0.016936
C43   C     C_R   0.006254 0.500689 0.698725 -0.012070
C44   C     C_R   0.496033 0.010895 0.699859 0.012187
C45   C     C_R   0.499980 0.999902 0.090999 0.799687
C46   C     C_R   0.999979 0.499947 0.090864 0.800331
C47   C     C_R   0.000185 0.499731 0.590888 0.801742
C48   C     C_R   0.499978 0.000373 0.591091 0.801456
C49   C     C_R   0.640888 0.860896 0.000529 0.816065
C50   C     C_R   0.138741 0.641277 0.000689 0.813184
C51   C     C_R   0.359187 0.139216 0.000397 0.814140
C52   C     C_R   0.861371 0.358785 0.000771 0.811186
C53   C     C_R   0.640281 0.139441 0.000250 0.804913
C54   C     C_R   0.139204 0.359585 0.000384 0.804549
C55   C     C_R   0.359628 0.860761 0.000460 0.806734
C56   C     C_R   0.860755 0.640501 0.000384 0.807955
C57   C     C_R   0.139092 0.358390 0.499677 0.816932
C58   C     C_R   0.641617 0.138938 0.499568 0.815299
C59   C     C_R   0.860717 0.641241 0.499769 0.816374
C60   C     C_R   0.358511 0.861075 0.499621 0.820278
C61   C     C_R   0.135707 0.643566 0.497929 0.814717
C62   C     C_R   0.643384 0.864162 0.498071 0.811969
C63   C     C_R   0.864529 0.356266 0.497801 0.815991
C64   C     C_R   0.356439 0.135610 0.497859 0.820201
C65   C     C_R   0.270475 0.782334 0.973583 -0.052456
C66   C     C_R   0.218917 0.271766 0.973156 -0.054468
C67   C     C_R   0.730465 0.218104 0.973286 -0.053784
C68   C     C_R   0.780436 0.728487 0.973340 -0.055103
C69   C     C_R   0.270685 0.220263 0.973007 -0.046512
C70   C     C_R   0.218396 0.731188 0.973589 -0.043531
C71   C     C_R   0.728994 0.780231 0.973229 -0.046624
C72   C     C_R   0.782415 0.269434 0.973495 -0.043470
C73   C     C_R   0.766691 0.285625 0.469115 -0.056986
C74   C     C_R   0.713313 0.765914 0.470040 -0.060276
C75   C     C_R   0.233561 0.714609 0.469414 -0.057514
C76   C     C_R   0.287052 0.234616 0.469829 -0.059770
C77   C     C_R   0.765790 0.713932 0.470177 -0.072221
C78   C     C_R   0.714686 0.233002 0.469547 -0.071132
C79   C     C_R   0.234574 0.286557 0.470069 -0.069960
C80   C     C_R   0.285476 0.767302 0.469747 -0.069924
C81   C     C_R   0.300453 0.809132 0.002788 -0.149185
C82   C     C_R   0.190974 0.300419 0.002456 -0.149202
C83   C     C_R   0.699764 0.190986 0.002480 -0.149161
C84   C     C_R   0.808926 0.699678 0.002544 -0.149967
C85   C     C_R   0.299349 0.191026 0.002261 -0.120677
C86   C     C_R   0.190336 0.701395 0.002771 -0.121839
C87   C     C_R   0.700561 0.809081 0.002476 -0.120746
C88   C     C_R   0.809693 0.298895 0.002785 -0.120783
C89   C     C_R   0.819537 0.290870 0.493739 -0.132952
C90   C     C_R   0.708089 0.818450 0.494677 -0.131778
C91   C     C_R   0.181110 0.708764 0.494196 -0.132161
C92   C     C_R   0.291411 0.180776 0.493986 -0.132979
C93   C     C_R   0.810995 0.703738 0.497872 -0.090830
C94   C     C_R   0.705165 0.187393 0.497174 -0.093855
C95   C     C_R   0.187983 0.295072 0.497381 -0.095016
C96   C     C_R   0.295465 0.812150 0.497498 -0.092358
C97   C     C_R   0.268259 0.787804 0.033836 0.123182
C98   C     C_R   0.211635 0.267257 0.033369 0.124719
C99   C     C_R   0.731514 0.212043 0.033623 0.123578
C100  C     C_R   0.788352 0.732438 0.033491 0.125107
C101  C     C_R   0.265888 0.211413 0.033209 0.143615
C102  C     C_R   0.212075 0.733701 0.033768 0.143630
C103  C     C_R   0.733998 0.788222 0.033402 0.142963
C104  C     C_R   0.787600 0.266211 0.033712 0.142705
C105  C     C_R   0.824384 0.230776 0.516100 0.124664
C106  C     C_R   0.767017 0.822034 0.517641 0.124157
C107  C     C_R   0.177098 0.767889 0.517039 0.122164
C108  C     C_R   0.230936 0.175033 0.515964 0.127310
C109  C     C_R   0.808134 0.758190 0.523361 0.098749
C110  C     C_R   0.761024 0.188967 0.522089 0.098197
C111  C     C_R   0.188892 0.238189 0.521976 0.097658
C112  C     C_R   0.240674 0.809315 0.522858 0.095958
C113  C     C_3   0.218662 0.722696 0.936148 0.283301
C114  C     C_3   0.279296 0.222031 0.935425 0.285026
C115  C     C_3   0.783047 0.279482 0.936096 0.284363
C116  C     C_3   0.720425 0.779412 0.935657 0.286684
C117  C     C_3   0.226476 0.290075 0.936574 0.266829
C118  C     C_3   0.286636 0.775605 0.936789 0.263411
C119  C     C_3   0.772710 0.711015 0.936789 0.267453
C120  C     C_3   0.715628 0.225593 0.936323 0.263301
C121  C     C_3   0.666975 0.274870 0.446100 0.270758
C122  C     C_3   0.722384 0.667000 0.446860 0.271852
C123  C     C_3   0.332949 0.725686 0.446151 0.267607
C124  C     C_3   0.278436 0.334484 0.447289 0.271900
C125  C     C_3   0.668130 0.732004 0.443304 0.294824
C126  C     C_3   0.731461 0.330355 0.442386 0.289639
C127  C     C_3   0.332794 0.269669 0.443541 0.293458
C128  C     C_3   0.268589 0.670048 0.442700 0.289587
C129  C     C_R   0.999062 0.431440 0.818188 0.125842
C130  C     C_R   0.490437 0.938997 0.819236 0.170777
C131  C     C_R   0.007558 0.563495 0.817273 0.167012
C132  C     C_R   0.510017 0.070285 0.820676 0.169142
C133  C     C_R   0.433262 0.001282 0.320202 0.130600
C134  C     C_R   0.050347 0.457058 0.318456 0.168363
C135  C     C_R   0.565810 0.997822 0.319997 0.167119
C136  C     C_R   0.949243 0.541777 0.318310 0.168395
C137  C     C_R   0.997766 0.432601 0.853638 0.034996
C138  C     C_R   0.490852 0.937364 0.854525 0.013704
C139  C     C_R   0.004448 0.564640 0.852364 0.008917
C140  C     C_R   0.509276 0.067930 0.855936 0.014558
C141  C     C_R   0.434197 0.001471 0.355685 0.023285
C142  C     C_R   0.050944 0.458301 0.353712 0.023693
C143  C     C_R   0.565749 0.999108 0.355278 -0.000621
C144  C     C_R   0.948984 0.541122 0.353571 0.023887
O1    O     O_3   0.500000 0.000000 0.000020 -0.470651
O2    O     O_3   0.000000 0.500000 0.000020 -0.471319
O3    O     O_3   0.000000 0.500000 0.500020 -0.462043
O4    O     O_3   0.500000 0.000000 0.500020 -0.466576
O5    O     O_R   0.439230 0.000000 0.925200 -0.651392
O6    O     O_R   0.000000 0.439230 0.925200 -0.615754
O7    O     O_R   0.560770 0.000000 0.925200 -0.651088
O8    O     O_R   0.000000 0.560770 0.925200 -0.671668
O9    O     O_R   0.939230 0.500000 0.425200 -0.661410
O10   O     O_R   0.500000 0.939230 0.425200 -0.652268
O11   O     O_R   0.060770 0.500000 0.425200 -0.661417
O12   O     O_R   0.500000 0.060770 0.425200 -0.653514
O13   O     O_R   0.500000 0.939250 0.074840 -0.641080
O14   O     O_R   0.060750 0.500000 0.074840 -0.643626
O15   O     O_R   0.500000 0.060750 0.074840 -0.640231
O16   O     O_R   0.939250 0.500000 0.074840 -0.643707
O17   O     O_R   0.000000 0.439250 0.574840 -0.643794
O18   O     O_R   0.560750 0.000000 0.574840 -0.642131
O19   O     O_R   0.000000 0.560750 0.574840 -0.640971
O20   O     O_R   0.439250 0.000000 0.574840 -0.638447
O21   O     O_R   0.646140 0.914530 0.980400 -0.650106
O22   O     O_R   0.085470 0.646140 0.980400 -0.652184
O23   O     O_R   0.353860 0.085470 0.980400 -0.650418
O24   O     O_R   0.914530 0.353860 0.980400 -0.649902
O25   O     O_R   0.646140 0.085470 0.980400 -0.646038
O26   O     O_R   0.085470 0.353860 0.980400 -0.645130
O27   O     O_R   0.353860 0.914530 0.980400 -0.646451
O28   O     O_R   0.914530 0.646140 0.980400 -0.645740
O29   O     O_R   0.146140 0.414530 0.480400 -0.667276
O30   O     O_R   0.585470 0.146140 0.480400 -0.668660
O31   O     O_R   0.853860 0.585470 0.480400 -0.667964
O32   O     O_R   0.414530 0.853860 0.480400 -0.665560
O33   O     O_R   0.146140 0.585470 0.480400 -0.654839
O34   O     O_R   0.585470 0.853860 0.480400 -0.658192
O35   O     O_R   0.853860 0.414530 0.480400 -0.654465
O36   O     O_R   0.414530 0.146140 0.480400 -0.655085
O37   O     O_R   0.414550 0.146130 0.019630 -0.652604
O38   O     O_R   0.853870 0.414550 0.019630 -0.653462
O39   O     O_R   0.585450 0.853870 0.019630 -0.653168
O40   O     O_R   0.146130 0.585450 0.019630 -0.651965
O41   O     O_R   0.414550 0.853870 0.019630 -0.641223
O42   O     O_R   0.853870 0.585450 0.019630 -0.640334
O43   O     O_R   0.585450 0.146130 0.019630 -0.640439
O44   O     O_R   0.146130 0.414550 0.019630 -0.640938
O45   O     O_R   0.914550 0.646130 0.519630 -0.647909
O46   O     O_R   0.353870 0.914550 0.519630 -0.648315
O47   O     O_R   0.085450 0.353870 0.519630 -0.648106
O48   O     O_R   0.646130 0.085450 0.519630 -0.647674
O49   O     O_R   0.914550 0.353870 0.519630 -0.645567
O50   O     O_R   0.353870 0.085450 0.519630 -0.645788
O51   O     O_R   0.085450 0.646130 0.519630 -0.644799
O52   O     O_R   0.646130 0.914550 0.519630 -0.645642
Zn1   Zn    Zn3+2 0.500000 0.913220 0.028040 0.934560
Zn2   Zn    Zn3+2 0.086780 0.500000 0.028040 0.933952
Zn3   Zn    Zn3+2 0.500000 0.086780 0.028040 0.934228
Zn4   Zn    Zn3+2 0.913220 0.500000 0.028040 0.933836
Zn5   Zn    Zn3+2 1.000000 0.413220 0.528040 0.928565
Zn6   Zn    Zn3+2 0.586780 0.000000 0.528040 0.925337
Zn7   Zn    Zn3+2 0.000000 0.586780 0.528040 0.930032
Zn8   Zn    Zn3+2 0.413220 0.000000 0.528040 0.930585
Zn9   Zn    Zn3+2 0.586730 0.000000 0.971990 0.922213
Zn10  Zn    Zn3+2 0.000000 0.586730 0.971990 0.918464
Zn11  Zn    Zn3+2 0.413270 0.000000 0.971990 0.921177
Zn12  Zn    Zn3+2 1.000000 0.413270 0.971990 0.935205
Zn13  Zn    Zn3+2 0.086730 0.500000 0.471990 0.902092
Zn14  Zn    Zn3+2 0.500000 0.086730 0.471990 0.911797
Zn15  Zn    Zn3+2 0.913270 0.500000 0.471990 0.902063
Zn16  Zn    Zn3+2 0.500000 0.913270 0.471990 0.911098
C145  C     C_3   0.290532 0.825613 0.066124 -0.387749
C146  C     C_3   0.344427 0.780538 0.086170 -0.836611
H1    H     H_    0.321674 0.726980 0.092820 0.238270
H2    H     H_    0.394417 0.772035 0.071476 0.281083
H3    H     H_    0.358651 0.809306 0.109649 0.241702
H4    H     H_    0.314889 0.879246 0.060980 0.197655
H5    H     H_    0.242864 0.838711 0.081700 0.196471
C147  C     C_3   0.173036 0.288287 0.065633 -0.389370
C148  C     C_3   0.217282 0.342046 0.086152 -0.838259
H6    H     H_    0.270698 0.319538 0.092821 0.238587
H7    H     H_    0.225788 0.392747 0.071801 0.281917
H8    H     H_    0.188019 0.355224 0.109629 0.240137
H9    H     H_    0.119593 0.312494 0.060418 0.196258
H10   H     H_    0.159746 0.239908 0.080884 0.196231
C149  C     C_3   0.708988 0.173816 0.065892 -0.386462
C150  C     C_3   0.654855 0.218562 0.085870 -0.835451
H11   H     H_    0.677472 0.272053 0.092577 0.237742
H12   H     H_    0.604981 0.227259 0.071116 0.281466
H13   H     H_    0.640455 0.189447 0.109317 0.241549
H14   H     H_    0.684828 0.120171 0.060739 0.197871
H15   H     H_    0.756544 0.160619 0.081543 0.196132
C151  C     C_3   0.827098 0.711058 0.065706 -0.389306
C152  C     C_3   0.783087 0.656852 0.086245 -0.838059
H16   H     H_    0.729633 0.679102 0.092992 0.238511
H17   H     H_    0.774664 0.606344 0.071880 0.281941
H18   H     H_    0.812479 0.643403 0.109679 0.240199
H19   H     H_    0.880604 0.687108 0.060415 0.196442
H20   H     H_    0.840232 0.759259 0.080972 0.196428
C153  C     C_3   0.282839 0.168613 0.064807 -0.420039
C154  C     C_3   0.244925 0.095371 0.064414 -0.916554
H21   H     H_    0.255757 0.066150 0.088216 0.239592
H22   H     H_    0.185839 0.102827 0.061919 0.263857
H23   H     H_    0.264607 0.061863 0.043289 0.257179
H24   H     H_    0.341347 0.160995 0.067223 0.237927
H25   H     H_    0.267687 0.196854 0.088096 0.213891
C155  C     C_3   0.170006 0.716288 0.065462 -0.418318
C156  C     C_3   0.097636 0.755364 0.065485 -0.919465
H26   H     H_    0.069265 0.745418 0.089555 0.238890
H27   H     H_    0.106020 0.814454 0.062639 0.264503
H28   H     H_    0.063014 0.735778 0.044710 0.256092
H29   H     H_    0.161537 0.657636 0.067657 0.237698
H30   H     H_    0.199069 0.730509 0.088674 0.213541
C157  C     C_3   0.716959 0.830509 0.065023 -0.420181
C158  C     C_3   0.755007 0.903687 0.064719 -0.916519
H31   H     H_    0.744126 0.932527 0.088540 0.239744
H32   H     H_    0.814091 0.896175 0.062247 0.263815
H33   H     H_    0.735464 0.937576 0.043610 0.256910
H34   H     H_    0.658438 0.838235 0.067392 0.237585
H35   H     H_    0.731959 0.801810 0.088287 0.213969
C159  C     C_3   0.829246 0.283327 0.065514 -0.418068
C160  C     C_3   0.901607 0.244234 0.065755 -0.919815
H36   H     H_    0.929661 0.253996 0.089886 0.239009
H37   H     H_    0.893253 0.185167 0.062953 0.264493
H38   H     H_    0.936504 0.263972 0.045046 0.255585
H39   H     H_    0.837730 0.341961 0.067707 0.237458
H40   H     H_    0.799874 0.268901 0.088663 0.213524
C161  C     C_3   0.895653 0.207175 0.531809 -0.379156
C162  C     C_3   0.954212 0.195037 0.505375 -0.840374
H41   H     H_    0.936472 0.153110 0.487293 0.242651
H42   H     H_    0.967048 0.245126 0.491326 0.260587
H43   H     H_    0.004287 0.176176 0.517828 0.237985
H44   H     H_    0.913904 0.245744 0.551257 0.227081
H45   H     H_    0.889785 0.154173 0.544567 0.179419
C163  C     C_3   0.790313 0.892476 0.534335 -0.378540
C164  C     C_3   0.805745 0.952026 0.508576 -0.836788
H46   H     H_    0.849346 0.934636 0.491331 0.241894
H47   H     H_    0.757520 0.965603 0.493493 0.261800
H48   H     H_    0.823600 0.001699 0.521742 0.237035
H49   H     H_    0.750497 0.910465 0.553257 0.226578
H50   H     H_    0.841880 0.885422 0.547989 0.179336
C165  C     C_3   0.106388 0.791285 0.533320 -0.378128
C166  C     C_3   0.047556 0.805736 0.507258 -0.837388
H51   H     H_    0.065322 0.848907 0.489698 0.241598
H52   H     H_    0.034257 0.756829 0.492561 0.261297
H53   H     H_    0.997759 0.823941 0.520123 0.238412
H54   H     H_    0.088057 0.751779 0.552452 0.227555
H55   H     H_    0.113017 0.843391 0.546632 0.179055
C167  C     C_3   0.207230 0.103005 0.531216 -0.380475
C168  C     C_3   0.195738 0.044976 0.504453 -0.840311
H56   H     H_    0.154255 0.063044 0.486221 0.242372
H57   H     H_    0.245988 0.032752 0.490623 0.261882
H58   H     H_    0.176754 0.994329 0.516578 0.238706
H59   H     H_    0.245395 0.084377 0.550771 0.226746
H60   H     H_    0.154113 0.108195 0.543715 0.179788
C169  C     C_3   0.830542 0.741924 0.559356 -0.387270
C170  C     C_3   0.783920 0.681435 0.574067 -0.889581
H61   H     H_    0.790259 0.679208 0.601646 0.246935
H62   H     H_    0.726094 0.692063 0.569038 0.251559
H63   H     H_    0.799084 0.628368 0.563454 0.251239
H64   H     H_    0.888650 0.729728 0.561392 0.241754
H65   H     H_    0.821708 0.788633 0.576122 0.183510
C171  C     C_3   0.747231 0.164289 0.558008 -0.383943
C172  C     C_3   0.688870 0.210759 0.574171 -0.888686
H66   H     H_    0.688954 0.202358 0.601666 0.244113
H67   H     H_    0.699949 0.268926 0.569615 0.252018
H68   H     H_    0.634885 0.197053 0.564167 0.251263
H69   H     H_    0.734466 0.106043 0.559555 0.240973
H70   H     H_    0.795151 0.171484 0.574177 0.183038
C173  C     C_3   0.163830 0.251001 0.557845 -0.384624
C174  C     C_3   0.210997 0.308288 0.574517 -0.890341
H71   H     H_    0.202221 0.307477 0.601966 0.244051
H72   H     H_    0.268871 0.296421 0.570191 0.252543
H73   H     H_    0.198534 0.362866 0.564662 0.251333
H74   H     H_    0.105946 0.264537 0.559268 0.240376
H75   H     H_    0.169889 0.202327 0.573761 0.183239
C175  C     C_3   0.255445 0.833613 0.558695 -0.382706
C176  C     C_3   0.316670 0.789563 0.574199 -0.885376
H76   H     H_    0.307765 0.731025 0.569848 0.250098
H77   H     H_    0.369531 0.805601 0.563614 0.252344
H78   H     H_    0.318017 0.797834 0.601691 0.244629
H79   H     H_    0.265803 0.892347 0.560096 0.238639
H80   H     H_    0.208696 0.823888 0.575371 0.182882
C177  C     C_3   0.232362 0.642934 0.925649 -0.411448
C178  C     C_3   0.231452 0.632035 0.887522 -0.916256
H81   H     H_    0.175676 0.623303 0.878549 0.246334
H82   H     H_    0.253843 0.679530 0.874092 0.269562
H83   H     H_    0.263287 0.583519 0.880855 0.252386
H84   H     H_    0.283194 0.621668 0.936210 0.201452
H85   H     H_    0.189407 0.608053 0.936388 0.201067
C179  C     C_3   0.358051 0.237122 0.924239 -0.416702
C180  C     C_3   0.365907 0.239510 0.885900 -0.916953
H86   H     H_    0.366313 0.184221 0.875337 0.250669
H87   H     H_    0.320501 0.268385 0.873927 0.269872
H88   H     H_    0.417264 0.266464 0.878970 0.261549
H89   H     H_    0.379785 0.287396 0.935250 0.203672
H90   H     H_    0.393250 0.193282 0.933843 0.194360
C181  C     C_3   0.768471 0.359540 0.926062 -0.406990
C182  C     C_3   0.771684 0.372512 0.888055 -0.917652
H91   H     H_    0.827977 0.382541 0.879930 0.253694
H92   H     H_    0.750723 0.325442 0.873943 0.267165
H93   H     H_    0.739570 0.420902 0.881377 0.251748
H94   H     H_    0.716686 0.379461 0.936115 0.200143
H95   H     H_    0.810088 0.394650 0.937617 0.202707
C183  C     C_3   0.641643 0.765125 0.924328 -0.417963
C184  C     C_3   0.634240 0.763253 0.885971 -0.917646
H96   H     H_    0.634148 0.818682 0.875412 0.249801
H97   H     H_    0.679712 0.734399 0.874098 0.270710
H98   H     H_    0.582901 0.736538 0.878916 0.260592
H99   H     H_    0.619343 0.714920 0.935307 0.203287
H100  H     H_    0.606674 0.809171 0.933814 0.196052
C185  C     C_3   0.260580 0.367787 0.935536 -0.409731
C186  C     C_3   0.282041 0.396736 0.900928 -0.900887
H101  H     H_    0.338155 0.381634 0.894822 0.273903
H102  H     H_    0.245019 0.378239 0.880924 0.251052
H103  H     H_    0.280546 0.456636 0.901331 0.248619
H104  H     H_    0.220108 0.406135 0.945694 0.192609
H105  H     H_    0.307295 0.372735 0.952792 0.193368
C187  C     C_3   0.363646 0.741177 0.934290 -0.418954
C188  C     C_3   0.387802 0.718168 0.899175 -0.891282
H106  H     H_    0.365789 0.753622 0.879274 0.253192
H107  H     H_    0.447475 0.720603 0.897692 0.253375
H108  H     H_    0.372464 0.661440 0.894249 0.273384
H109  H     H_    0.403378 0.781825 0.943209 0.189508
H110  H     H_    0.370103 0.694864 0.951804 0.194606
C189  C     C_3   0.737959 0.633571 0.935699 -0.409762
C190  C     C_3   0.716712 0.605178 0.901055 -0.899980
H111  H     H_    0.660892 0.621002 0.894755 0.274043
H112  H     H_    0.754304 0.623351 0.881157 0.251469
H113  H     H_    0.717433 0.545271 0.901536 0.248359
H114  H     H_    0.777901 0.594724 0.946001 0.192126
H115  H     H_    0.690973 0.628843 0.952836 0.193585
C191  C     C_3   0.638326 0.259085 0.933234 -0.420007
C192  C     C_3   0.615515 0.282668 0.897951 -0.890877
H116  H     H_    0.637973 0.247248 0.878225 0.252701
H117  H     H_    0.555884 0.280644 0.896067 0.255003
H118  H     H_    0.631324 0.339339 0.893098 0.273511
H119  H     H_    0.598731 0.217728 0.941695 0.189515
H120  H     H_    0.630508 0.304845 0.950812 0.194282
C193  C     C_3   0.647793 0.229546 0.414411 -0.410645
C194  C     C_3   0.595169 0.267887 0.390741 -0.916243
H121  H     H_    0.539126 0.261131 0.399786 0.244332
H122  H     H_    0.606855 0.326502 0.389018 0.264715
H123  H     H_    0.598583 0.243747 0.365338 0.259871
H124  H     H_    0.696341 0.213191 0.400291 0.199567
H125  H     H_    0.622299 0.177937 0.422179 0.229608
C195  C     C_3   0.764882 0.647575 0.414726 -0.410214
C196  C     C_3   0.722242 0.598112 0.391058 -0.936880
H126  H     H_    0.727908 0.540906 0.398878 0.237410
H127  H     H_    0.664082 0.611470 0.391053 0.269344
H128  H     H_    0.743201 0.603445 0.365101 0.269217
H129  H     H_    0.783815 0.695956 0.400948 0.205865
H130  H     H_    0.814411 0.619087 0.422490 0.224031
C197  C     C_3   0.351563 0.771461 0.414387 -0.405658
C198  C     C_3   0.404131 0.733705 0.390561 -0.916723
H131  H     H_    0.460276 0.740705 0.399410 0.244202
H132  H     H_    0.392780 0.675042 0.388893 0.264625
H133  H     H_    0.400218 0.758093 0.365160 0.259159
H134  H     H_    0.302775 0.787744 0.400402 0.197466
H135  H     H_    0.376877 0.823120 0.422081 0.237161
C199  C     C_3   0.236596 0.355255 0.415106 -0.409960
C200  C     C_3   0.279654 0.405652 0.391896 -0.937580
H136  H     H_    0.273558 0.462533 0.399948 0.237496
H137  H     H_    0.337858 0.392506 0.392125 0.269658
H138  H     H_    0.259340 0.401171 0.365815 0.268138
H139  H     H_    0.217897 0.307447 0.400970 0.206007
H140  H     H_    0.186949 0.383464 0.422840 0.225010
C201  C     C_3   0.673845 0.784012 0.412288 -0.417610
C202  C     C_3   0.639916 0.756941 0.379626 -0.892361
H141  H     H_    0.679322 0.725457 0.364883 0.274040
H142  H     H_    0.590959 0.724075 0.384144 0.247951
H143  H     H_    0.624340 0.803996 0.363908 0.252744
H144  H     H_    0.645728 0.834957 0.418954 0.212450
H145  H     H_    0.730338 0.800766 0.407252 0.187277
C203  C     C_3   0.781994 0.325673 0.410984 -0.417542
C204  C     C_3   0.752364 0.358831 0.378558 -0.900000
H146  H     H_    0.718923 0.407179 0.383334 0.246910
H147  H     H_    0.797988 0.375472 0.362235 0.253427
H148  H     H_    0.720790 0.318514 0.364326 0.274655
H149  H     H_    0.832613 0.355102 0.417070 0.216518
H150  H     H_    0.799547 0.269415 0.405955 0.188082
C205  C     C_3   0.327758 0.218998 0.412145 -0.417287
C206  C     C_3   0.362206 0.247639 0.379804 -0.896507
H151  H     H_    0.410715 0.280801 0.384743 0.249191
H152  H     H_    0.378605 0.201367 0.363892 0.250687
H153  H     H_    0.322852 0.279342 0.365056 0.274253
H154  H     H_    0.355779 0.167713 0.418518 0.222253
H155  H     H_    0.271376 0.202428 0.406784 0.185112
C207  C     C_3   0.217841 0.674701 0.411383 -0.418132
C208  C     C_3   0.247533 0.641982 0.378955 -0.900509
H156  H     H_    0.281857 0.594228 0.383764 0.247378
H157  H     H_    0.201970 0.624569 0.362831 0.253384
H158  H     H_    0.278270 0.682799 0.364506 0.273966
H159  H     H_    0.167415 0.644954 0.417567 0.217120
H160  H     H_    0.199940 0.730898 0.406327 0.187212
C209  C     C_3   0.147372 0.752991 0.920271 -0.305528
C210  C     C_3   0.098340 0.800565 0.942293 -0.888256
H161  H     H_    0.128591 0.836791 0.959158 0.268665
H162  H     H_    0.063207 0.833983 0.925961 0.234905
H163  H     H_    0.062677 0.766957 0.958203 0.283479
H164  H     H_    0.159685 0.781099 0.896363 0.187640
H165  H     H_    0.113007 0.707048 0.913318 0.209931
C211  C     C_3   0.249762 0.150627 0.918920 -0.304747
C212  C     C_3   0.201522 0.101062 0.940545 -0.891032
H166  H     H_    0.234519 0.065142 0.956520 0.285277
H167  H     H_    0.164997 0.131063 0.957307 0.269117
H168  H     H_    0.168445 0.066222 0.923961 0.233687
H169  H     H_    0.221669 0.163999 0.895193 0.186779
H170  H     H_    0.295739 0.116004 0.911323 0.215206
C213  C     C_3   0.855294 0.251299 0.920176 -0.306501
C214  C     C_3   0.904279 0.202924 0.941954 -0.885732
H171  H     H_    0.940753 0.235830 0.957649 0.285263
H172  H     H_    0.874052 0.166829 0.959005 0.268890
H173  H     H_    0.938635 0.169261 0.925452 0.231858
H174  H     H_    0.843426 0.223828 0.896136 0.181976
H175  H     H_    0.889526 0.298185 0.913338 0.226475
C215  C     C_3   0.750607 0.850858 0.919247 -0.304031
C216  C     C_3   0.798699 0.899961 0.941024 -0.890734
H176  H     H_    0.765597 0.936088 0.956768 0.285411
H177  H     H_    0.834630 0.869630 0.958006 0.268803
H178  H     H_    0.832449 0.934599 0.924538 0.233389
H179  H     H_    0.779004 0.837562 0.895612 0.187216
H180  H     H_    0.704962 0.885814 0.911471 0.215409
C217  C     C_3   0.155439 0.288177 0.915325 -0.332371
C218  C     C_3   0.094725 0.236618 0.925815 -0.850384
H181  H     H_    0.091089 0.229305 0.953313 0.274927
H182  H     H_    0.042542 0.259204 0.917351 0.255995
H183  H     H_    0.100098 0.183858 0.913141 0.247050
H184  H     H_    0.131427 0.343124 0.915570 0.229513
H185  H     H_    0.169185 0.277580 0.888699 0.166962
C219  C     C_3   0.283778 0.847766 0.916134 -0.334278
C220  C     C_3   0.232306 0.907943 0.926873 -0.842808
H186  H     H_    0.226559 0.911725 0.954447 0.273506
H187  H     H_    0.254202 0.960326 0.917856 0.250217
H188  H     H_    0.179196 0.902023 0.914655 0.249482
H189  H     H_    0.337892 0.872750 0.917255 0.221982
H190  H     H_    0.273830 0.835327 0.889320 0.173426
C221  C     C_3   0.844065 0.712672 0.915897 -0.341533
C222  C     C_3   0.904711 0.764420 0.926249 -0.843112
H191  H     H_    0.908295 0.771691 0.953730 0.273885
H192  H     H_    0.957071 0.742128 0.917870 0.248550
H193  H     H_    0.899269 0.817169 0.913446 0.249525
H194  H     H_    0.867583 0.657713 0.917117 0.218532
H195  H     H_    0.831068 0.722417 0.889096 0.173658
C223  C     C_3   0.720140 0.153835 0.915641 -0.332968
C224  C     C_3   0.771633 0.094015 0.926877 -0.848787
H196  H     H_    0.776284 0.090039 0.954506 0.273610
H197  H     H_    0.750529 0.041539 0.917729 0.249388
H198  H     H_    0.825106 0.100492 0.915044 0.250715
H199  H     H_    0.666309 0.128218 0.916232 0.220211
H200  H     H_    0.731154 0.166782 0.888932 0.173805
C225  C     C_3   0.598133 0.303208 0.464715 -0.268950
C226  C     C_3   0.598699 0.308987 0.503692 -0.885485
H201  H     H_    0.651776 0.310140 0.515281 0.262616
H202  H     H_    0.568317 0.357173 0.512019 0.236826
H203  H     H_    0.574973 0.261090 0.515913 0.233152
H204  H     H_    0.579873 0.354996 0.453722 0.177653
H205  H     H_    0.555205 0.265182 0.458436 0.229606
C227  C     C_3   0.693778 0.597650 0.465288 -0.272127
C228  C     C_3   0.689066 0.596985 0.504229 -0.892174
H206  H     H_    0.737380 0.573273 0.515892 0.235712
H207  H     H_    0.687513 0.649956 0.515937 0.265120
H208  H     H_    0.641406 0.565757 0.512728 0.237303
H209  H     H_    0.641648 0.579921 0.454613 0.181123
H210  H     H_    0.731176 0.554635 0.458386 0.226765
C229  C     C_3   0.402116 0.697245 0.464477 -0.268605
C230  C     C_3   0.401960 0.690686 0.503445 -0.885686
H211  H     H_    0.425673 0.738373 0.515710 0.233160
H212  H     H_    0.349026 0.689302 0.515142 0.262871
H213  H     H_    0.432375 0.642326 0.511638 0.236710
H214  H     H_    0.420372 0.645708 0.453368 0.177576
H215  H     H_    0.444861 0.735476 0.458027 0.229395
C231  C     C_3   0.306564 0.402908 0.466373 -0.272964
C232  C     C_3   0.309750 0.402154 0.505383 -0.891673
H216  H     H_    0.261240 0.426070 0.516769 0.234527
H217  H     H_    0.310572 0.348729 0.516935 0.264122
H218  H     H_    0.357256 0.432885 0.514356 0.237246
H219  H     H_    0.359095 0.420978 0.456190 0.181301
H220  H     H_    0.269475 0.446138 0.459400 0.227318
C233  C     C_3   0.588256 0.714994 0.451942 -0.308924
C234  C     C_3   0.569323 0.705548 0.489188 -0.834632
H221  H     H_    0.610280 0.723104 0.506975 0.240278
H222  H     H_    0.527540 0.744014 0.495759 0.266268
H223  H     H_    0.551455 0.649660 0.494661 0.248332
H224  H     H_    0.554654 0.759258 0.441709 0.220364
H225  H     H_    0.569833 0.667025 0.437713 0.152838
C235  C     C_3   0.714558 0.410398 0.451198 -0.309066
C236  C     C_3   0.705898 0.429234 0.488480 -0.832909
H226  H     H_    0.724072 0.388307 0.506238 0.240737
H227  H     H_    0.744020 0.471622 0.494963 0.265905
H228  H     H_    0.650239 0.446806 0.494113 0.248064
H229  H     H_    0.758444 0.444635 0.440900 0.217797
H230  H     H_    0.666308 0.428670 0.437179 0.154401
C237  C     C_3   0.412435 0.286241 0.452668 -0.311560
C238  C     C_3   0.430485 0.294514 0.490051 -0.833786
H231  H     H_    0.388880 0.276574 0.507505 0.240939
H232  H     H_    0.472293 0.255969 0.496685 0.265196
H233  H     H_    0.448158 0.350253 0.495834 0.247978
H234  H     H_    0.446038 0.242139 0.442426 0.220848
H235  H     H_    0.431301 0.334619 0.438724 0.153199
C239  C     C_3   0.285690 0.589969 0.451716 -0.306862
C240  C     C_3   0.294145 0.570780 0.489061 -0.833859
H236  H     H_    0.276139 0.611619 0.506791 0.240016
H237  H     H_    0.255862 0.528480 0.495671 0.264790
H238  H     H_    0.349686 0.552799 0.494723 0.247792
H239  H     H_    0.241974 0.555692 0.441422 0.217891
H240  H     H_    0.334004 0.571808 0.437754 0.153751
C241  C     C_3   0.994471 0.360317 0.799090 -0.408631
C242  C     C_3   0.917670 0.345721 0.787218 -0.870419
H241  H     H_    0.880514 0.342467 0.809003 0.253240
H242  H     H_    0.899083 0.389075 0.770028 0.264816
H243  H     H_    0.915834 0.293609 0.773560 0.243573
H244  H     H_    0.031447 0.361321 0.777253 0.214641
H245  H     H_    0.012744 0.313599 0.814204 0.191081
C243  C     C_3   0.480544 0.869230 0.799764 -0.368997
C244  C     C_3   0.553163 0.837934 0.789492 -0.869141
H246  H     H_    0.582814 0.876446 0.773135 0.255974
H247  H     H_    0.586113 0.826045 0.812075 0.266662
H248  H     H_    0.544635 0.786980 0.775442 0.243176
H249  H     H_    0.450884 0.828218 0.814748 0.219153
H250  H     H_    0.446973 0.878427 0.777162 0.187193
C245  C     C_3   0.016748 0.634500 0.798205 -0.368638
C246  C     C_3   0.095780 0.657117 0.797173 -0.867475
H251  H     H_    0.116755 0.665700 0.822921 0.264291
H252  H     H_    0.128414 0.614934 0.784580 0.255488
H253  H     H_    0.101313 0.708377 0.782897 0.240811
H254  H     H_    0.996636 0.631094 0.772182 0.185715
H255  H     H_    0.984214 0.677953 0.809892 0.213991
C247  C     C_3   0.522404 0.141758 0.802756 -0.374985
C248  C     C_3   0.451331 0.175214 0.791557 -0.870680
H256  H     H_    0.422772 0.139075 0.773821 0.256039
H257  H     H_    0.416291 0.185266 0.813618 0.267697
H258  H     H_    0.462017 0.227435 0.778745 0.244932
H259  H     H_    0.551028 0.180987 0.819022 0.220356
H260  H     H_    0.558309 0.133876 0.780857 0.201439
C249  C     C_3   0.362173 0.001725 0.301272 -0.405687
C250  C     C_3   0.341302 0.925661 0.290222 -0.877772
H261  H     H_    0.382448 0.903075 0.273020 0.263421
H262  H     H_    0.335848 0.889583 0.312377 0.255893
H263  H     H_    0.288900 0.927375 0.276855 0.246043
H264  H     H_    0.317637 0.024083 0.316502 0.195548
H265  H     H_    0.365931 0.037928 0.279145 0.215561
C251  C     C_3   0.105854 0.412046 0.299796 -0.371293
C252  C     C_3   0.174289 0.455742 0.293545 -0.867987
H266  H     H_    0.162041 0.504265 0.278196 0.258295
H267  H     H_    0.198430 0.473079 0.317698 0.263170
H268  H     H_    0.214030 0.422137 0.279886 0.242978
H269  H     H_    0.119553 0.362474 0.314158 0.215538
H270  H     H_    0.084373 0.392360 0.275500 0.190339
C253  C     C_3   0.636968 0.995449 0.301233 -0.373834
C254  C     C_3   0.660548 0.071090 0.290611 -0.870750
H271  H     H_    0.620159 0.095682 0.273554 0.257691
H272  H     H_    0.667221 0.106024 0.312999 0.266325
H273  H     H_    0.712874 0.068028 0.277223 0.243915
H274  H     H_    0.680105 0.971024 0.316816 0.221626
H275  H     H_    0.632510 0.960034 0.278965 0.202493
C255  C     C_3   0.893544 0.586465 0.299502 -0.371528
C256  C     C_3   0.825119 0.542594 0.293641 -0.868554
H276  H     H_    0.837307 0.493883 0.278535 0.258394
H277  H     H_    0.801197 0.525557 0.317944 0.263477
H278  H     H_    0.785222 0.575962 0.279879 0.243228
H279  H     H_    0.879878 0.636224 0.313598 0.215893
H280  H     H_    0.914815 0.605841 0.275051 0.190438
N1    N     N_3   0.993607 0.365887 0.871892 -0.435948
H281  H     H_    0.040351 0.336263 0.867293 0.173917
H282  H     H_    0.948821 0.336638 0.863727 0.178174
N2    N     N_3   0.481765 0.869893 0.871716 -0.473740
H283  H     H_    0.522962 0.864224 0.889284 0.190976
H284  H     H_    0.433420 0.872268 0.884841 0.180698
N3    N     N_3   0.005876 0.633870 0.868015 -0.466695
H285  H     H_    0.958267 0.640784 0.881339 0.205226
H286  H     H_    0.050568 0.636224 0.883556 0.201587
N4    N     N_3   0.517644 0.133454 0.874582 -0.473785
H287  H     H_    0.475575 0.137268 0.891807 0.191506
H288  H     H_    0.565244 0.129595 0.888185 0.182258
N5    N     N_3   0.368824 0.002340 0.374948 -0.480792
H289  H     H_    0.336644 0.958606 0.367890 0.192796
H290  H     H_    0.341561 0.050608 0.370234 0.174516
N6    N     N_3   0.104464 0.416979 0.370812 -0.469270
H291  H     H_    0.139284 0.453508 0.382337 0.232795
H292  H     H_    0.079503 0.383840 0.388636 0.175061
N7    N     N_3   0.632896 0.000215 0.373139 -0.472353
H293  H     H_    0.634761 0.046819 0.387844 0.179585
H294  H     H_    0.634879 0.955217 0.388977 0.171609
N8    N     N_3   0.895831 0.582976 0.370545 -0.468925
H295  H     H_    0.860958 0.546843 0.382410 0.233004
H296  H     H_    0.921148 0.616310 0.388079 0.175036
C257  C     C_3   0.604215 0.911704 0.202336 -0.396637
C258  C     C_3   0.671863 0.956780 0.208449 -0.900704
H297  H     H_    0.698560 0.970679 0.184379 0.253449
H298  H     H_    0.657968 0.007606 0.221588 0.274339
H299  H     H_    0.710279 0.925765 0.224183 0.247968
H300  H     H_    0.581990 0.893661 0.226798 0.198961
H301  H     H_    0.619284 0.860462 0.190062 0.212157
C259  C     C_3   0.054360 0.624895 0.201006 -0.380142
C260  C     C_3   0.132384 0.621331 0.212951 -0.860521
H302  H     H_    0.144739 0.567272 0.223538 0.259763
H303  H     H_    0.169916 0.633402 0.192086 0.260930
H304  H     H_    0.141307 0.662415 0.232744 0.241980
H305  H     H_    0.044762 0.674976 0.186425 0.180657
H306  H     H_    0.019195 0.632207 0.223266 0.196216
C261  C     C_3   0.394993 0.087027 0.202169 -0.396354
C262  C     C_3   0.327374 0.041860 0.208349 -0.901174
H307  H     H_    0.300734 0.028078 0.184298 0.253464
H308  H     H_    0.341286 0.990975 0.221565 0.274865
H309  H     H_    0.288906 0.072756 0.224036 0.247616
H310  H     H_    0.417136 0.104982 0.226605 0.199229
H311  H     H_    0.379887 0.138309 0.189808 0.212106
C263  C     C_3   0.945099 0.373812 0.201037 -0.380304
C264  C     C_3   0.867077 0.377351 0.213006 -0.860280
H312  H     H_    0.854854 0.431241 0.223672 0.259846
H313  H     H_    0.829530 0.365767 0.192134 0.260970
H314  H     H_    0.858044 0.335917 0.232746 0.242083
H315  H     H_    0.954633 0.323875 0.186474 0.180690
H316  H     H_    0.980249 0.366220 0.223290 0.196260
C265  C     C_3   0.116445 0.420206 0.700425 -0.375864
C266  C     C_3   0.098579 0.342171 0.709871 -0.877235
H317  H     H_    0.041221 0.336823 0.717384 0.264555
H318  H     H_    0.109859 0.305303 0.688712 0.261733
H319  H     H_    0.132887 0.324972 0.731238 0.237768
H320  H     H_    0.168187 0.423427 0.686631 0.178956
H321  H     H_    0.128982 0.449922 0.723845 0.199593
C267  C     C_3   0.609356 0.086735 0.702251 -0.399768
C268  C     C_3   0.582829 0.163008 0.709843 -0.893272
H322  H     H_    0.575835 0.194403 0.686340 0.252804
H323  H     H_    0.530368 0.161166 0.723152 0.273983
H324  H     H_    0.622662 0.191279 0.725905 0.245717
H325  H     H_    0.622412 0.058845 0.726152 0.198647
H326  H     H_    0.662121 0.090011 0.689496 0.211739
C269  C     C_3   0.902525 0.589300 0.702685 -0.398970
C270  C     C_3   0.835083 0.545019 0.710362 -0.877579
H327  H     H_    0.796716 0.578112 0.725104 0.246291
H328  H     H_    0.808377 0.527954 0.686769 0.252248
H329  H     H_    0.849159 0.496296 0.725252 0.263809
H330  H     H_    0.926632 0.607452 0.726574 0.193458
H331  H     H_    0.887025 0.640688 0.690525 0.210111
C271  C     C_3   0.374691 0.948813 0.703463 -0.390002
C272  C     C_3   0.329305 0.010912 0.717329 -0.870034
H332  H     H_    0.312712 0.048043 0.696877 0.254508
H333  H     H_    0.280151 0.988786 0.729478 0.240853
H334  H     H_    0.359224 0.042363 0.736375 0.260996
H335  H     H_    0.337462 0.913664 0.689435 0.213641
H336  H     H_    0.394139 0.914602 0.724454 0.190670
C273  C     C_3   0.598719 0.903139 0.128123 -0.376319
C274  C     C_3   0.566655 0.826994 0.125681 -0.847602
H337  H     H_    0.546749 0.807896 0.150400 0.242201
H338  H     H_    0.520899 0.825880 0.107848 0.285548
H339  H     H_    0.608202 0.788488 0.116925 0.228662
H340  H     H_    0.612295 0.923969 0.102914 0.206215
H341  H     H_    0.652130 0.900672 0.140381 0.199826
C275  C     C_3   0.093000 0.602118 0.128222 -0.367085
C276  C     C_3   0.167495 0.566711 0.126707 -0.827781
H342  H     H_    0.183411 0.545372 0.151640 0.254700
H343  H     H_    0.168279 0.521173 0.108785 0.281644
H344  H     H_    0.208479 0.606869 0.118712 0.223254
H345  H     H_    0.073604 0.615771 0.102791 0.201387
H346  H     H_    0.098938 0.655285 0.140344 0.196777
C277  C     C_3   0.400816 0.096088 0.127958 -0.376200
C278  C     C_3   0.432723 0.172331 0.125474 -0.847681
H347  H     H_    0.452596 0.191216 0.150175 0.242194
H348  H     H_    0.478475 0.173741 0.107624 0.285707
H349  H     H_    0.391099 0.210845 0.116714 0.228557
H350  H     H_    0.387431 0.075412 0.102763 0.206127
H351  H     H_    0.347327 0.098324 0.140168 0.199763
C279  C     C_3   0.906750 0.397362 0.128206 -0.366744
C280  C     C_3   0.832270 0.432806 0.126651 -0.827590
H352  H     H_    0.816319 0.453979 0.151557 0.254603
H353  H     H_    0.831526 0.478467 0.108673 0.281592
H354  H     H_    0.791288 0.392715 0.118704 0.223225
H355  H     H_    0.926183 0.383941 0.102779 0.201247
H356  H     H_    0.900741 0.344078 0.140355 0.196637
C281  C     C_3   0.088068 0.390913 0.627656 -0.333200
C282  C     C_3   0.041334 0.322663 0.625546 -0.818962
H357  H     H_    0.015469 0.310732 0.650031 0.251206
H358  H     H_    0.998069 0.328265 0.606643 0.275514
H359  H     H_    0.075068 0.275696 0.618620 0.226056
H360  H     H_    0.106738 0.408251 0.602554 0.206175
H361  H     H_    0.138809 0.376343 0.640229 0.185185
C283  C     C_3   0.613541 0.082531 0.628128 -0.342466
C284  C     C_3   0.681779 0.036558 0.624866 -0.849164
H362  H     H_    0.695353 0.009635 0.648928 0.236262
H363  H     H_    0.675132 0.994105 0.605601 0.280285
H364  H     H_    0.727932 0.071310 0.617633 0.233166
H365  H     H_    0.595657 0.102627 0.603390 0.215123
H366  H     H_    0.626777 0.133478 0.641138 0.189016
C285  C     C_3   0.907330 0.600992 0.628691 -0.355774
C286  C     C_3   0.943059 0.675702 0.627498 -0.857671
H367  H     H_    0.968744 0.689312 0.651810 0.240407
H368  H     H_    0.985079 0.677613 0.607746 0.278399
H369  H     H_    0.902493 0.717886 0.622134 0.236857
H370  H     H_    0.892145 0.583496 0.603176 0.212311
H371  H     H_    0.854227 0.604231 0.641229 0.189731
C287  C     C_3   0.389028 0.919007 0.629987 -0.346496
C288  C     C_3   0.316542 0.956300 0.623667 -0.826457
H372  H     H_    0.318748 0.990476 0.600839 0.276694
H373  H     H_    0.273726 0.915195 0.620321 0.227407
H374  H     H_    0.300583 0.991072 0.644903 0.253922
H375  H     H_    0.410424 0.896879 0.606263 0.209896
H376  H     H_    0.381346 0.869117 0.645012 0.161500

loop_
_geom_bond_atom_site_label_1
_geom_bond_atom_site_label_2
_ccdc_geom_bond_type
C88   C104  A    
C216  H176  S    
C61   O33   A    
C98   C147  S    
C107  C112  A    
C49   C87   S    
C100  C151  S    
C168  H56   S    
C286  H369  S    
C62   O52   A    
C105  C110  A    
C222  H191  S    
C51   C85   S    
C145  H5    S    
C288  H374  S    
C180  H86   S    
O45   Zn7   S    
C220  H188  S    
C171  H70   S    
O19   Zn7   S    
O39   Zn1   S    
C282  H358  S    
C175  H79   S    
C166  H51   S    
C200  H137  S    
C198  H132  S    
O1    Zn3   S    
C255  H279  S    
O4    Zn16  S    
C68   C119  S    
O25   Zn9   S    
C239  C240  S    
C264  H314  S    
C28   C271  S    
C244  H248  S    
O51   Zn7   S    
C273  H341  S    
C27   C269  S    
C73   C126  S    
C158  H33   S    
C143  N7    S    
O49   Zn5   S    
N6    H291  S    
C30   C38   A    
C133  C249  S    
C75   C128  S    
C252  H266  S    
C9    C13   S    
C219  H189  S    
C147  C148  S    
O10   Zn16  S    
C77   C122  S    
O20   Zn8   S    
C204  H147  S    
C11   C15   S    
C134  C251  S    
C12   C16   S    
C235  C236  S    
C282  H359  S    
C154  H22   S    
C281  H360  S    
C238  H233  S    
C140  N4    S    
C189  H114  S    
C245  H255  S    
C126  C203  S    
C208  H158  S    
C67   C120  S    
C246  H253  S    
C138  N2    S    
C215  H180  S    
C277  H351  S    
C82   C98   A    
C58   O30   A    
C104  C159  S    
C190  H112  S    
C190  H111  S    
C185  C186  S    
C238  H231  S    
C9    C131  A    
C2    O8    A    
C244  H247  S    
C149  H15   S    
C188  H108  S    
C50   O40   A    
C154  H23   S    
C248  H257  S    
C1    C6    S    
C84   C100  A    
C270  H329  S    
C91   C107  A    
O11   Zn13  S    
C182  H91   S    
C3    C8    S    
C161  H45   S    
C255  C256  S    
C24   C263  S    
C244  H246  S    
C21   C29   A    
C28   C44   A    
C31   C37   A    
C144  N8    S    
C201  H145  S    
C233  H224  S    
C24   C32   A    
C261  H311  S    
C48   O18   A    
C66   C82   A    
C269  C270  S    
C287  H376  S    
C192  H116  S    
C46   O16   A    
C178  H83   S    
O34   Zn16  S    
C223  H199  S    
C224  H197  S    
C219  C220  S    
C268  H324  S    
C5    C137  A    
C227  H210  S    
C124  C127  S    
C87   C103  A    
C254  H272  S    
N3    H286  S    
O40   Zn2   S    
C278  H349  S    
C58   O48   A    
C260  H302  S    
C60   O32   A    
C252  H268  S    
C162  H42   S    
C59   O45   A    
C170  H61   S    
C37   C45   S    
C261  C262  S    
C130  C138  A    
C222  H193  S    
C121  C193  S    
C253  H275  S    
C114  C211  S    
C39   C47   S    
C213  H174  S    
C180  H88   S    
C243  H250  S    
C40   C48   S    
C235  H230  S    
C165  H54   S    
C155  H29   S    
C166  H53   S    
C231  H220  S    
C29   C273  S    
C251  C252  S    
C51   O37   A    
C118  C219  S    
C264  H312  S    
C22   C259  S    
C48   O20   A    
N5    H289  S    
C266  H317  S    
C217  H184  S    
C23   C41   A    
C108  C111  A    
C203  C204  S    
C74   C90   A    
C288  H372  S    
C284  H362  S    
O6    Zn12  S    
O46   Zn8   S    
C187  H109  S    
C163  H50   S    
C78   C94   A    
O3    Zn7   S    
O14   Zn2   S    
C125  C201  S    
C177  H85   S    
C191  H119  S    
O2    Zn4   S    
C212  H166  S    
C114  C179  S    
C32   C279  S    
C263  C264  S    
C124  C231  S    
C228  H207  S    
C129  C137  A    
C262  H308  S    
C218  H181  S    
C256  H278  S    
C76   C127  S    
C211  C212  S    
C122  C227  S    
O47   Zn5   S    
O41   Zn1   S    
C201  C202  S    
C195  H130  S    
C150  H13   S    
C221  H195  S    
C265  C266  S    
C80   C123  S    
C2    O6    A    
C250  H262  S    
C176  H77   S    
C271  H336  S    
N1    H281  S    
C200  H136  S    
C51   O23   A    
C263  H316  S    
C182  H93   S    
C129  C241  S    
C232  H218  S    
C25   C43   A    
O1    Zn9   S    
O4    Zn6   S    
C183  H99   S    
C272  H333  S    
C216  H177  S    
C72   C115  S    
C156  H26   S    
C175  C176  S    
C239  H239  S    
O18   Zn6   S    
C167  H60   S    
O8    Zn10  S    
C168  H57   S    
C286  H368  S    
C18   C42   S    
C253  H274  S    
C146  H2    S    
C250  H263  S    
C112  C175  S    
C65   C70   A    
C46   O14   A    
C241  H244  S    
C227  C228  S    
C141  N5    S    
C153  C154  S    
C33   C281  S    
C115  C213  S    
C191  C192  S    
C251  H270  S    
C108  C167  S    
C193  H124  S    
C92   C108  A    
C279  H356  S    
C157  H35   S    
C195  C196  S    
C172  H67   S    
C74   C77   A    
C158  H32   S    
C196  H128  S    
O31   Zn15  S    
C55   C81   S    
C75   C91   A    
C135  C143  A    
C181  H94   S    
C211  H170  S    
C12   C134  A    
C164  H46   S    
C274  H337  S    
C117  C185  S    
C223  C224  S    
C4    C7    S    
C155  C156  S    
C187  C188  S    
C20   C44   S    
C246  H252  S    
C5    C139  A    
C274  H338  S    
C70   C113  S    
C247  H260  S    
C226  H202  S    
C215  C216  S    
C234  H223  S    
C95   C111  A    
O3    Zn5   S    
C45   O13   A    
C179  C180  S    
C242  H243  S    
C127  C205  S    
C10   C14   S    
C159  H39   S    
C221  H194  S    
C283  C284  S    
C34   C283  S    
C203  H149  S    
C280  H352  S    
C118  C187  S    
C278  H347  S    
C258  H299  S    
C270  H328  S    
O2    Zn2   S    
C212  H168  S    
C257  H300  S    
O26   Zn12  S    
C148  H6    S    
C197  H134  S    
C208  H156  S    
C65   C118  S    
O50   Zn8   S    
N2    H283  S    
C63   C89   S    
O24   Zn12  S    
C236  H226  S    
C202  H141  S    
C240  H238  S    
C147  H10   S    
C16   C18   T    
C151  H20   S    
O7    Zn9   S    
N4    H288  S    
C277  H350  S    
C265  H321  S    
C275  H346  S    
C60   O46   A    
C206  H151  S    
C136  C255  S    
C152  H18   S    
C176  H76   S    
C2    C5    S    
O27   Zn11  S    
C232  H216  S    
C86   C102  A    
C7    C141  A    
C69   C85   A    
O4    Zn8   S    
C196  H127  S    
C199  C200  S    
C192  H118  S    
C272  H332  S    
C157  H34   S    
C197  H135  S    
C248  H258  S    
C22   C30   A    
O29   Zn13  S    
C214  H171  S    
C222  H192  S    
C179  H89   S    
C25   C265  S    
C145  H4    S    
C288  H373  S    
C159  C160  S    
C213  H175  S    
C220  H187  S    
C79   C124  S    
C186  H102  S    
C174  H73   S    
C175  H80   S    
C21   C41   A    
C122  C125  S    
C166  H52   S    
C231  C232  S    
C255  H280  S    
C257  C258  S    
C184  H98   S    
C187  H110  S    
C264  H313  S    
C229  H214  S    
O21   Zn9   S    
C273  H340  S    
C122  C195  S    
N6    H292  S    
C71   C116  S    
C279  C280  S    
C190  H113  S    
C287  C288  S    
C10   C132  A    
C276  H344  S    
C114  C117  S    
C131  C139  A    
C234  H221  S    
C213  C214  S    
C283  H366  S    
C163  C164  S    
C186  H101  S    
C12   C136  A    
C164  H48   S    
C89   C105  A    
C165  C166  S    
C178  H82   S    
C225  C226  S    
O52   Zn6   S    
C207  H159  S    
C209  C210  S    
C142  N6    S    
C25   C33   A    
C230  H211  S    
C106  C109  A    
O37   Zn3   S    
C169  H64   S    
C4    O10   A    
C123  C229  S    
C194  H121  S    
C207  H160  S    
C103  C157  S    
C54   O26   A    
C221  C222  S    
C45   O15   A    
O1    Zn11  S    
C119  C221  S    
N8    H295  S    
C209  H165  S    
C160  H36   S    
C145  C146  S    
C67   C83   A    
C188  H107  S    
C161  H44   S    
C283  H365  S    
C120  C191  S    
C240  H236  S    
C243  C244  S    
C182  H92   S    
C57   O47   A    
C148  H8    S    
C263  H315  S    
C214  H173  S    
O3    Zn15  S    
C74   C125  S    
O48   Zn6   S    
C236  H228  S    
C167  C168  S    
C281  C282  S    
C201  H144  S    
C78   C121  S    
C210  H161  S    
C150  H11   S    
C125  C233  S    
C49   O39   A    
C206  H153  S    
N7    H293  S    
C156  H28   S    
C66   C117  S    
C50   O22   A    
C116  C215  S    
C152  H16   S    
C223  H200  S    
C268  H323  S    
C61   O51   A    
C97   C102  A    
C53   O25   A    
C280  H354  S    
C47   O19   A    
O15   Zn3   S    
C99   C104  A    
C248  H256  S    
C54   O44   A    
C161  C162  S    
C56   O28   A    
C120  C223  S    
C252  H267  S    
C162  H43   S    
O42   Zn4   S    
C170  H62   S    
C254  H273  S    
C121  C225  S    
C285  H371  S    
C55   O27   A    
C97   C145  S    
C19   C43   S    
C56   C84   S    
C266  H318  S    
C180  H87   S    
C105  C161  S    
C171  H69   S    
C181  H95   S    
C227  H209  S    
C13   C19   T    
C116  C183  S    
C153  H24   S    
C68   C84   A    
C14   C20   T    
C200  H138  S    
O38   Zn4   S    
C198  H131  S    
C185  H105  S    
C208  H157  S    
C282  H357  S    
C184  H96   S    
C254  H271  S    
C194  H123  S    
C247  C248  S    
C273  C274  S    
O12   Zn14  S    
C94   C110  A    
C100  C103  A    
C245  C246  S    
O43   Zn3   S    
C83   C99   A    
C210  H163  S    
C35   C39   A    
C285  C286  S    
C10   C130  A    
C49   O21   A    
C241  C242  S    
C137  N1    S    
C134  C142  A    
C266  H319  S    
N5    H290  S    
C65   C81   A    
C181  C182  S    
C3    O11   A    
C154  H21   S    
C169  H65   S    
C106  C163  S    
C177  H84   S    
N7    H294  S    
C217  H185  S    
C274  H339  S    
C119  C189  S    
C253  C254  S    
C230  H213  S    
C71   C87   A    
C60   C96   S    
O2    Zn12  S    
C4    O12   A    
C56   O42   A    
C276  H343  S    
C218  H182  S    
C215  H179  S    
C256  H277  S    
C151  C152  S    
C64   C92   S    
C186  H103  S    
C36   C287  S    
C54   C82   S    
C275  C276  S    
C257  H301  S    
C15   C17   T    
C267  H325  S    
C225  H204  S    
C107  C165  S    
C238  H232  S    
C232  H217  S    
C197  C198  S    
C183  H100  S    
C132  C140  A    
C218  H183  S    
C133  C141  A    
O32   Zn16  S    
C239  H240  S    
C53   C83   S    
C27   C35   A    
O28   Zn10  S    
C233  H225  S    
C73   C89   A    
C277  C278  S    
C136  C144  A    
C285  H370  S    
C229  H215  S    
C242  H242  S    
C242  H241  S    
C287  H375  S    
C68   C71   A    
C173  H75   S    
C26   C44   A    
C77   C93   A    
C174  H72   S    
C259  H305  S    
C1    O7    A    
C224  H198  S    
O13   Zn1   S    
C6    C140  A    
C177  C178  S    
C203  H150  S    
C52   C88   S    
C258  H298  S    
C267  H326  S    
C90   C106  A    
C53   O43   A    
C199  H139  S    
C47   O17   A    
C27   C43   A    
C76   C79   A    
C28   C36   A    
C172  H66   S    
C29   C37   A    
C260  H303  S    
C162  H41   S    
C8    C142  A    
O22   Zn10  S    
O3    Zn13  S    
C35   C285  S    
C170  H63   S    
C249  H264  S    
C23   C31   A    
C26   C267  S    
C243  H249  S    
C160  H38   S    
C173  C174  S    
C241  H245  S    
C235  H229  S    
C110  C171  S    
C169  C170  S    
C59   O31   A    
C231  H219  S    
C198  H133  S    
O2    Zn10  S    
O5    Zn11  S    
C204  H146  S    
C183  C184  S    
C229  C230  S    
O16   Zn4   S    
C22   C42   A    
C24   C42   A    
C165  H55   S    
C98   C101  A    
C79   C95   A    
C96   C112  A    
C226  H203  S    
C33   C39   A    
C34   C40   A    
C237  H235  S    
O17   Zn5   S    
C256  H276  S    
C193  C194  S    
C67   C72   A    
C11   C135  A    
C11   C133  A    
C159  H40   S    
C64   O36   A    
C155  H30   S    
C150  H12   S    
C66   C69   A    
C163  H49   S    
O35   Zn15  S    
C3    O9    A    
C63   O35   A    
C278  H348  S    
C245  H254  S    
O33   Zn13  S    
C212  H167  S    
C131  C245  S    
C207  C208  S    
C259  H306  S    
C113  C177  S    
C236  H227  S    
C258  H297  S    
C26   C34   A    
C149  C150  S    
C262  H307  S    
N2    H284  S    
C21   C257  S    
C237  C238  S    
C63   O49   A    
O44   Zn2   S    
C80   C96   A    
C101  C153  S    
C75   C80   A    
C128  C207  S    
C185  H104  S    
C205  H155  S    
C117  C217  S    
C149  H14   S    
C176  H78   S    
C128  C239  S    
C271  H335  S    
N1    H282  S    
C173  H74   S    
C152  H17   S    
C284  H364  S    
C276  H342  S    
C72   C88   A    
C272  H334  S    
C219  H190  S    
C192  H117  S    
C281  H361  S    
C216  H178  S    
C69   C114  S    
C156  H27   S    
C17   C41   S    
C38   C46   S    
C225  H205  S    
C23   C261  S    
C167  H59   S    
C36   C40   A    
C168  H58   S    
C102  C155  S    
C286  H367  S    
C202  H143  S    
C135  C253  S    
C261  H310  S    
C179  H90   S    
C205  C206  S    
O9    Zn15  S    
C146  H1    S    
C191  H120  S    
C127  C237  S    
C220  H186  S    
C249  H265  S    
C57   O29   A    
C269  H331  S    
C178  H81   S    
C64   O50   A    
C195  H129  S    
O23   Zn11  S    
C6    C138  A    
O36   Zn14  S    
O1    Zn1   S    
C251  H269  S    
O4    Zn14  S    
C111  C173  S    
C184  H97   S    
C189  C190  S    
C153  H25   S    
C193  H125  S    
C174  H71   S    
C279  H355  S    
C115  C181  S    
C73   C78   A    
C172  H68   S    
C158  H31   S    
C240  H237  S    
C217  C218  S    
C8    C144  A    
C237  H234  S    
C52   O38   A    
C234  H222  S    
C76   C92   A    
C126  C235  S    
C171  C172  S    
C109  C169  S    
C211  H169  S    
C115  C120  S    
C32   C38   A    
C164  H47   S    
C271  C272  S    
C199  H140  S    
C228  H208  S    
C31   C277  S    
C157  C158  S    
C70   C86   A    
C123  C197  S    
C224  H196  S    
C204  H148  S    
C85   C101  A    
C246  H251  S    
C230  H212  S    
C210  H162  S    
C233  C234  S    
C132  C247  S    
C247  H259  S    
C226  H201  S    
C194  H122  S    
O30   Zn14  S    
C202  H142  S    
C113  C209  S    
C7    C143  A    
C265  H320  S    
C1    O5    A    
C146  H3    S    
C62   O34   A    
N8    H296  S    
C209  H164  S    
C205  H154  S    
C9    C129  A    
N3    H285  S    
C188  H106  S    
C116  C119  S    
C189  H115  S    
C270  H327  S    
C214  H172  S    
C58   C94   S    
C121  C126  S    
C148  H7    S    
C160  H37   S    
C52   O24   A    
C123  C128  S    
C196  H126  S    
C81   C97   A    
C262  H309  S    
C62   C90   S    
C206  H152  S    
C284  H363  S    
C147  H9    S    
C250  H261  S    
C151  H19   S    
C55   O41   A    
N4    H287  S    
C99   C149  S    
C275  H345  S    
C50   C86   S    
C113  C118  S    
C267  C268  S    
C139  N3    S    
C249  C250  S    
C57   C95   S    
C93   C109  A    
C30   C275  S    
C269  H330  S    
C260  H304  S    
C59   C93   S    
C268  H322  S    
C228  H206  S    
C124  C199  S    
C61   C91   S    
C130  C243  S    
C259  C260  S    
C280  H353  S    
