data_mof_unit_25265.cif
_audit_creation_date              2012-12-10T16:57:48-0500
_audit_creation_method            fapswitch 2.2
_symmetry_space_group_name_H-M    P1
_symmetry_Int_Tables_number       1
_space_group_crystal_system       triclinic
_cell_length_a                    7.751499
_cell_length_b                    8.576859
_cell_length_c                    19.157859
_cell_angle_alpha                 90.88386
_cell_angle_beta                  86.040622
_cell_angle_gamma                 93.647172
_cell_volume                      1267.99052548

loop_
_atom_site_label
_atom_site_type_symbol
_atom_type_description
_atom_site_fract_x
_atom_site_fract_y
_atom_site_fract_z
_atom_type_partial_charge
C1    C     C_R   0.545846 0.794799 0.498183 0.972646
C2    C     C_R   0.639724 0.508775 0.175291 -0.203532
C3    C     C_R   0.518001 0.478169 0.854648 0.059048
C4    C     C_R   0.482083 0.522806 0.145377 0.059016
C5    C     C_R   0.673162 0.465862 0.812218 0.196836
C6    C     C_R   0.326903 0.534899 0.187815 0.196808
C7    C     C_R   0.666041 0.475313 0.739806 -0.207847
C8    C     C_R   0.333992 0.525074 0.260215 -0.207738
C9    C     C_R   0.507895 0.491874 0.710112 -0.073364
C10   C     C_R   0.492134 0.508397 0.289894 -0.073396
C11   C     C_R   0.485450 0.515807 0.069962 0.269865
C12   C     C_R   0.454154 0.205201 0.501816 0.972658
C13   C     C_R   0.514597 0.485265 0.930061 0.269949
C14   C     C_3   0.846139 0.440082 0.841294 -0.445042
C15   C     C_3   0.907581 0.278900 0.820678 -0.850117
C16   C     C_3   0.153934 0.560809 0.158758 -0.444978
C17   C     C_3   0.092293 0.721799 0.179619 -0.850163
C18   C     C_2   0.570028 0.958235 0.497142 -0.381370
C19   C     C_2   0.429972 0.041765 0.502857 -0.381381
C20   C     C_R   0.502386 0.498791 0.634488 0.872831
C21   C     C_R   0.497618 0.501240 0.365512 0.872829
C22   C     C_R   0.354890 0.498552 0.752902 -0.195585
C23   C     C_R   0.645166 0.501968 0.247101 -0.195611
C24   C     C_R   0.360358 0.492087 0.824719 -0.203564
H1    H     H_    0.231185 0.510325 0.731079 0.165129
H2    H     H_    0.986148 0.617173 0.552520 0.189168
H3    H     H_    0.808438 0.186384 0.838747 0.271148
H4    H     H_    0.932906 0.268791 0.763085 0.255267
H5    H     H_    0.029729 0.260302 0.845545 0.258122
H6    H     H_    0.943612 0.531720 0.820901 0.200430
H7    H     H_    0.841074 0.448728 0.899095 0.228540
H8    H     H_    0.066770 0.731426 0.237223 0.255225
H9    H     H_    0.191419 0.814524 0.161739 0.271121
H10   H     H_    0.970206 0.740538 0.154732 0.258110
H11   H     H_    0.159123 0.552650 0.100946 0.228518
H12   H     H_    0.768871 0.490123 0.268914 0.165147
H13   H     H_    0.056519 0.468950 0.178978 0.200470
H14   H     H_    0.241693 0.501990 0.857373 0.155914
H15   H     H_    0.758399 0.499011 0.142627 0.155935
H16   H     H_    0.784561 0.469024 0.706674 0.160717
H17   H     H_    0.215452 0.531176 0.293349 0.160735
H18   H     H_    0.702296 0.009295 0.491691 0.179799
H19   H     H_    0.297704 0.990705 0.508308 0.179800
H20   H     H_    0.013852 0.382827 0.447480 0.189171
N1    N     N_R   0.610254 0.599063 0.962160 -0.180539
N2    N     N_R   0.389784 0.402022 0.037861 -0.180495
N3    N     N_R   0.597373 0.612971 0.031334 -0.167850
N4    N     N_R   0.402669 0.388110 0.968689 -0.167842
N5    N     N_2   0.950330 0.457950 0.481240 -0.177290
N6    N     N_2   0.049670 0.542050 0.518760 -0.177290
O1    O     O_R   0.389250 0.738570 0.504600 -0.610602
O2    O     O_R   0.610750 0.261430 0.495400 -0.610594
O3    O     O_R   0.678400 0.711620 0.492580 -0.629244
O4    O     O_R   0.321600 0.288380 0.507420 -0.629233
O5    O     O_R   0.355380 0.513500 0.607880 -0.620973
O6    O     O_R   0.644620 0.486500 0.392120 -0.620968
O7    O     O_R   0.644530 0.486550 0.595850 -0.631068
O8    O     O_R   0.355470 0.513450 0.404150 -0.631077
Zn1   Zn    Zn3+2 0.306930 0.517990 0.508030 0.938901
Zn2   Zn    Zn3+2 0.693070 0.482010 0.491970 0.938902

loop_
_geom_bond_atom_site_label_1
_geom_bond_atom_site_label_2
_ccdc_geom_bond_type
H20   N5    S    
C21   O6    A    
C2    C4    A    
C7    H16   S    
O5    Zn1   S    
C10   C23   A    
C13   N4    A    
C6    C16   S    
C5    C7    A    
C14   H7    S    
C9    C20   S    
C24   H14   S    
C3    C13   S    
C16   H13   S    
N1    N3    A    
C11   N3    A    
C5    C14   S    
C21   O8    A    
C16   H11   S    
C4    C11   S    
C13   N1    A    
C1    O1    A    
C1    C18   S    
N5    Zn2   S    
C17   H9    S    
C14   H6    S    
C20   O5    A    
N6    Zn1   S    
C12   C19   S    
C8    C10   A    
C12   O2    A    
O3    Zn2   S    
C19   H19   S    
C15   H5    S    
N2    N4    A    
O4    Zn1   S    
H2    N6    S    
C10   C21   S    
C22   C24   A    
C9    C22   A    
O1    Zn1   S    
C17   H10   S    
C15   H4    S    
C23   H12   S    
C8    H17   S    
C20   O7    A    
C4    C6    A    
N5    N6    D    
C2    C23   A    
C7    C9    A    
C17   H8    S    
C1    O3    A    
C14   C15   S    
C18   C19   D    
C11   N2    A    
C6    C8    A    
O2    Zn2   S    
C18   H18   S    
C3    C5    A    
O8    Zn1   S    
C15   H3    S    
C2    H15   S    
C12   O4    A    
O6    Zn2   S    
C3    C24   A    
C16   C17   S    
O7    Zn2   S    
C22   H1    S    
