data_mof_unit_38325.cif
_audit_creation_date              2013-03-05T15:56:01-0500
_audit_creation_method            fapswitch 2.2
_symmetry_space_group_name_H-M    P1
_symmetry_Int_Tables_number       1
_space_group_crystal_system       triclinic
_cell_length_a                    12.358637
_cell_length_b                    13.13653
_cell_length_c                    17.253233
_cell_angle_alpha                 105.278186
_cell_angle_beta                  74.417027
_cell_angle_gamma                 116.741954
_cell_volume                      2376.16203936

loop_
_atom_site_label
_atom_site_type_symbol
_atom_site_description
_atom_site_fract_x
_atom_site_fract_y
_atom_site_fract_z
_atom_type_partial_charge
O1    O     O_R   0.025490 0.682370 0.523640 -0.575078
O2    O     O_R   0.194150 0.640180 0.491890 -0.607568
C1    C     C_R   0.144309 0.714118 0.509161 0.796121
O3    O     O_R   0.905900 0.523560 0.631310 -0.586968
O4    O     O_R   0.074570 0.481370 0.599560 -0.598806
C2    C     C_R   0.988487 0.505791 0.652427 0.794447
Cu1   Cu    Cu3+1 0.900140 0.524980 0.518800 0.967104
Cu2   Cu    Cu3+1 0.099860 0.475020 0.481200 1.005037
O5    O     O_R   0.805850 0.359820 0.508110 -0.577717
O6    O     O_R   0.974510 0.317630 0.476360 -0.537047
O7    O     O_R   0.925430 0.518630 0.400440 -0.590305
O8    O     O_R   0.094100 0.476440 0.368690 -0.545654
C3    C     C_R   0.855731 0.285990 0.487272 0.818785
C4    C     C_R   0.013986 0.497834 0.347567 0.833072
C5    C     C_R   0.988545 0.521130 0.739235 -0.086328
C6    C     C_R   0.099895 0.561231 0.766544 -0.247353
C7    C     C_R   0.103197 0.584472 0.849864 0.366393
C8    C     C_R   0.990827 0.559603 0.905993 0.047745
C9    C     C_R   0.880405 0.523252 0.878480 -0.179530
C10   C     C_R   0.879260 0.504808 0.795599 -0.170844
C11   C     C_R   0.921133 0.479309 0.152831 -0.117034
C12   C     C_R   0.916026 0.476094 0.233585 -0.207189
C13   C     C_R   0.135557 0.521476 0.205567 0.395098
C14   C     C_R   0.139433 0.524650 0.124866 -0.097563
C15   C     C_R   0.033164 0.504352 0.098452 0.065592
C16   C     C_2   0.982840 0.558932 0.992147 -0.131349
C17   C     C_2   0.041726 0.509138 0.013347 -0.132038
C18   C     C_R   0.022604 0.497436 0.261063 -0.113672
H1    H     H_    0.185104 0.579317 0.723203 0.175588
H2    H     H_    0.828333 0.456588 0.274583 0.170550
H3    H     H_    0.102203 0.475215 0.967369 0.175628
H4    H     H_    0.794229 0.505146 0.921081 0.168699
H5    H     H_    0.837465 0.461175 0.132775 0.156852
H6    H     H_    0.792651 0.475506 0.775425 0.173559
H7    H     H_    0.920844 0.591413 0.037712 0.173591
H8    H     H_    0.226352 0.544871 0.082888 0.187253
C19   C     C_R   0.728274 0.984570 0.371500 0.346460
H9    H     H_    0.902329 0.128414 0.365884 0.264726
C20   C     C_R   0.773565 0.163924 0.467750 -0.220808
C21   C     C_R   0.181957 0.917182 0.571407 -0.277771
C22   C     C_R   0.260869 0.034211 0.587152 0.444372
C23   C     C_R   0.385487 0.069831 0.553240 -0.072526
C24   C     C_R   0.433450 0.990454 0.502284 0.033368
C25   C     C_R   0.349395 0.877519 0.476674 -0.007184
C26   C     C_R   0.561451 0.021870 0.472107 -0.011866
C27   C     C_R   0.600664 0.949492 0.403576 -0.156870
C28   C     C_R   0.510772 0.846278 0.368766 0.341571
C29   C     C_R   0.388673 0.809305 0.407809 -0.215573
C30   C     C_R   0.651708 0.121376 0.509826 0.366770
C31   C     C_R   0.809925 0.095575 0.398873 -0.251003
C32   C     C_R   0.225589 0.838123 0.517158 -0.109758
H10   H     H_    0.086743 0.887889 0.601733 0.152888
H11   H     H_    0.442119 0.161395 0.564305 0.206824
H12   H     H_    0.322567 0.730792 0.378830 0.208966
C33   C     C_R   0.642204 0.676357 0.630554 -0.250825
H13   H     H_    0.815869 0.692369 0.646693 0.128709
H14   H     H_    0.440476 0.712932 0.656306 0.177872
H15   H     H_    0.638042 0.743716 0.681935 0.163153
N1    N     N_R   0.749710 0.562810 0.547300 -0.185837
C34   C     C_R   0.252960 0.348254 0.391027 0.541284
C35   C     C_R   0.357837 0.325259 0.364125 -0.230014
C36   C     C_R   0.458389 0.386826 0.402814 -0.239799
C37   C     C_R   0.455762 0.472260 0.471021 0.021585
C38   C     C_R   0.349446 0.499114 0.494449 0.238504
C39   C     C_R   0.554608 0.530812 0.517015 -0.003851
C40   C     C_R   0.547740 0.618139 0.584073 0.164410
C41   C     C_R   0.446202 0.646060 0.604850 -0.228599
C42   C     C_R   0.349204 0.587468 0.561570 -0.158763
C43   C     C_R   0.659739 0.505063 0.500441 0.060140
C44   C     C_R   0.742779 0.647274 0.611031 0.084799
N2    N     N_R   0.249640 0.437820 0.453210 -0.265046
H16   H     H_    0.672097 0.439161 0.451143 0.118083
H17   H     H_    0.535501 0.363319 0.378970 0.153029
H18   H     H_    0.359295 0.255305 0.314282 0.191781
H19   H     H_    0.274817 0.613428 0.583960 0.193891
N3    N     N_R   0.538641 0.782030 0.290692 0.171340
O9    O     O_R   0.494727 0.669812 0.280651 -0.297366
O10   O     O_R   0.587599 0.832974 0.226841 -0.286810
N4    N     N_R   0.777957 0.908289 0.314291 0.175161
O11   O     O_R   0.753143 0.808631 0.331673 -0.310332
O12   O     O_R   0.866611 0.946970 0.254387 -0.271377
O13   O     O_3   0.620840 0.171483 0.588990 -0.731664
H20   H     H_    0.696375 0.221589 0.612745 0.329443
O14   O     O_3   0.219754 0.115479 0.636752 -0.703584
H21   H     H_    0.129824 0.076886 0.655617 0.330786
N5    N     N_R   0.145663 0.266020 0.358786 0.116883
O15   O     O_R   0.104452 0.160246 0.370948 -0.359358
O16   O     O_R   0.122003 0.282952 0.295421 -0.380313
O17   O     O_3   0.244525 0.549953 0.229401 -0.673590
H22   H     H_    0.237905 0.479145 0.243970 0.373154
N6    N     N_R   0.220445 0.636908 0.876309 0.109007
O18   O     O_R   0.314476 0.619761 0.829147 -0.360780
O19   O     O_R   0.237794 0.713158 0.942652 -0.316762

loop_
_geom_bond_atom_site_label_1
_geom_bond_atom_site_label_2
_geom_bond_distance
_ccdc_geom_bond_type
C14   C15   1.394993 A    
C37   C39   1.437766 A    
C22   C23   1.394560 A    
C9    C10   1.388840 A    
C8    C16   1.465142 S    
Cu1   Cu2   2.705013 S    
C26   C27   1.432216 A    
C42   H19   1.064240 S    
C29   H12   1.081934 S    
C19   N4    1.436052 S    
C16   C17   1.337450 D    
C14   H8    1.084259 S    
C38   C42   1.407526 A    
N3    O10   1.301379 A    
C28   N3    1.434794 S    
C23   H11   1.079929 S    
O4    C2    1.303185 A    
O7    C4    1.306108 A    
N5    O16   1.299473 A    
C11   H5    1.082961 S    
C5    C6    1.399423 A    
C8    C9    1.399206 A    
C38   N2    1.397074 A    
O5    C3    1.298139 A    
C2    C5    1.457785 S    
C6    C7    1.396565 A    
C7    N6    1.440009 S    
C13   C14   1.391278 A    
C13   O17   1.373210 S    
C36   H17   1.077066 S    
C10   H6    1.083416 S    
C40   C41   1.393176 A    
C12   C18   1.404070 A    
C11   C12   1.388627 A    
H14   C41   1.084460 S    
O3    Cu1   1.966734 S    
C9    H4    1.083818 S    
Cu1   N1    2.038766 S    
C5    C10   1.399803 A    
C17   H3    1.086918 S    
C41   C42   1.390936 A    
O14   H21   0.991825 S    
O3    C2    1.299236 A    
N6    O18   1.301637 A    
N4    O12   1.301605 A    
C1    C32   1.471423 S    
N5    O15   1.301351 A    
C34   N2    1.375354 A    
C6    H1    1.081643 S    
C21   H10   1.083651 S    
C22   O14   1.379617 S    
N4    O11   1.301563 A    
C34   C35   1.393521 A    
O1    C1    1.303583 A    
C30   O13   1.384406 S    
C43   H16   1.075820 S    
Cu1   O7    1.966102 S    
C24   C25   1.410502 A    
C36   C37   1.400595 A    
N6    O19   1.301479 A    
C28   C29   1.390466 A    
C26   C30   1.416299 A    
Cu2   O8    1.966734 S    
C7    C8    1.417400 A    
C13   C18   1.417629 A    
N3    O9    1.301385 A    
C24   C26   1.423751 A    
N1    C43   1.366059 A    
C25   C32   1.414395 A    
C21   C22   1.400469 A    
C20   C30   1.405813 A    
O8    C4    1.300146 A    
C39   C40   1.413224 A    
H13   C44   1.081844 S    
C23   C24   1.415888 A    
C33   C40   1.402579 A    
Cu1   O5    1.930935 S    
C11   C15   1.400111 A    
C27   C28   1.416694 A    
Cu2   N2    2.026803 S    
C34   N5    1.423114 S    
C12   H2    1.083645 S    
O1    Cu1   1.943621 S    
O2    Cu2   1.930934 S    
O6    C3    1.306417 A    
O4    Cu2   1.966102 S    
H9    C31   1.072858 S    
C35   H18   1.083705 S    
C15   C17   1.459571 S    
C21   C32   1.402142 A    
O2    C1    1.303416 A    
C19   C27   1.420311 A    
C19   C31   1.391610 A    
C39   C43   1.424504 A    
C35   C36   1.378634 A    
C3    C20   1.466153 S    
C33   C44   1.392478 A    
N1    C44   1.356268 A    
C37   C38   1.439051 A    
C16   H7    1.086715 S    
C20   C31   1.390747 A    
Cu2   O6    1.943622 S    
O13   H20   0.991499 S    
C33   H15   1.083774 S    
C4    C18   1.466222 S    
O17   H22   0.989330 S    
C25   C29   1.403848 A    
