data_mof_unit_5448.cif
_audit_creation_date              2012-12-11T16:08:28-0500
_audit_creation_method            fapswitch 2.2
_symmetry_space_group_name_H-M    P1
_symmetry_Int_Tables_number       1
_space_group_crystal_system       triclinic
_cell_length_a                    7.329041
_cell_length_b                    21.341157
_cell_length_c                    23.483936
_cell_angle_alpha                 89.999877
_cell_angle_beta                  90.001481
_cell_angle_gamma                 89.998281
_cell_volume                      3673.12746747

loop_
_atom_site_label
_atom_site_type_symbol
_atom_type_description
_atom_site_fract_x
_atom_site_fract_y
_atom_site_fract_z
_atom_type_partial_charge
O1    O     O_R   0.365470 0.806380 0.442440 -0.531090
O2    O     O_R   0.134530 0.193620 0.942440 -0.531093
O3    O     O_R   0.865470 0.693620 0.557560 -0.531093
O4    O     O_R   0.634530 0.306380 0.057560 -0.531089
O5    O     O_R   0.035730 0.813790 0.557160 -0.534582
O6    O     O_R   0.464270 0.186210 0.057160 -0.534583
O7    O     O_R   0.535730 0.686210 0.442840 -0.534583
O8    O     O_R   0.964270 0.313790 0.942840 -0.534583
C1    C     C_R   0.204038 0.828539 0.575648 0.711743
C2    C     C_R   0.295965 0.171460 0.075648 0.711742
C3    C     C_R   0.704038 0.671461 0.424351 0.711742
C4    C     C_R   0.795959 0.328539 0.924352 0.711747
O9    O     O_R   0.035760 0.813790 0.442850 -0.535190
O10   O     O_R   0.464240 0.186210 0.942850 -0.535191
O11   O     O_R   0.535760 0.686210 0.557150 -0.535190
O12   O     O_R   0.964240 0.313790 0.057150 -0.535190
O13   O     O_R   0.865450 0.693620 0.442430 -0.531422
O14   O     O_R   0.634550 0.306380 0.942430 -0.531421
O15   O     O_R   0.365450 0.806380 0.557570 -0.531422
O16   O     O_R   0.134550 0.193620 0.057570 -0.531423
C5    C     C_R   0.204023 0.828502 0.424326 0.710964
C6    C     C_R   0.295973 0.171498 0.924326 0.710962
C7    C     C_R   0.704030 0.671498 0.575673 0.710966
C8    C     C_R   0.795973 0.328501 0.075674 0.710964
O17   O     O_3   0.198970 0.710570 0.500000 -0.376365
O18   O     O_3   0.301030 0.289430 0.000000 -0.376361
O19   O     O_3   0.698970 0.789430 0.500000 -0.376363
O20   O     O_3   0.801030 0.210570 0.000000 -0.376367
V1    V     V_3+5 0.924120 0.757310 0.500000 1.409202
V2    V     V_3+5 0.575880 0.242690 0.000000 1.409203
V3    V     V_3+5 0.424120 0.742690 0.500000 1.409196
V4    V     V_3+5 0.075880 0.257310 0.000000 1.409195
C9    C     C_3   0.901534 0.558236 0.746325 -0.322593
C10   C     C_3   0.598414 0.441781 0.246304 -0.322552
C11   C     C_3   0.401664 0.941805 0.253729 -0.322517
C12   C     C_3   0.098400 0.058222 0.753696 -0.322571
C13   C     C_3   0.556305 0.546401 0.748754 0.036891
C14   C     C_3   0.943646 0.453572 0.248778 0.036858
C15   C     C_3   0.056412 0.953542 0.251195 0.036836
C16   C     C_3   0.443650 0.046421 0.751225 0.036863
C17   C     C_3   0.579283 0.499447 0.800863 -0.016067
C18   C     C_3   0.920731 0.500563 0.300862 -0.016053
C19   C     C_3   0.079286 0.000562 0.199131 -0.016048
C20   C     C_3   0.420710 0.999440 0.699135 -0.016058
H1    H     H_    0.920227 0.535518 0.836762 0.133089
H2    H     H_    0.579855 0.464453 0.336749 0.133084
H3    H     H_    0.420096 0.964413 0.163271 0.133101
H4    H     H_    0.079826 0.035548 0.663250 0.133097
H5    H     H_    0.893867 0.606254 0.764430 0.122538
H6    H     H_    0.605959 0.393751 0.264385 0.122552
H7    H     H_    0.394292 0.893756 0.235681 0.122559
H8    H     H_    0.105942 0.106254 0.735617 0.122540
H9    H     H_    0.440713 0.528582 0.722527 0.112246
H10   H     H_    0.059315 0.471336 0.222556 0.112228
H11   H     H_    0.940656 0.971261 0.277407 0.112213
H12   H     H_    0.559312 0.028643 0.777446 0.112230
H13   H     H_    0.469895 0.463699 0.797624 0.128914
H14   H     H_    0.030110 0.536309 0.297583 0.128922
H15   H     H_    0.969901 0.036306 0.202436 0.128937
H16   H     H_    0.530098 0.963693 0.702401 0.128925
C21   C     C_1   0.787124 0.374862 0.879167 -0.187957
C22   C     C_1   0.712865 0.625139 0.379166 -0.187980
C23   C     C_1   0.287150 0.125137 0.120832 -0.187998
C24   C     C_1   0.212862 0.874862 0.620833 -0.187973
C25   C     C_3   0.730134 0.544247 0.709757 0.228267
C26   C     C_3   0.769868 0.455751 0.209759 0.228234
C27   C     C_3   0.230124 0.955751 0.290241 0.228195
C28   C     C_3   0.269865 0.044248 0.790241 0.228236
C29   C     C_3   0.922304 0.509612 0.795739 0.051767
C30   C     C_3   0.577708 0.490380 0.295739 0.051735
C31   C     C_3   0.422304 0.990371 0.204265 0.051705
C32   C     C_3   0.077689 0.009622 0.704261 0.051747
C33   C     C_3   0.761323 0.461658 0.795104 0.252890
C34   C     C_3   0.738675 0.538342 0.295103 0.252904
C35   C     C_3   0.261339 0.038338 0.204893 0.252907
C36   C     C_3   0.238664 0.961659 0.704897 0.252890
C37   C     C_3   0.756560 0.428190 0.736214 -0.390033
C38   C     C_3   0.743422 0.571809 0.236213 -0.390053
C39   C     C_3   0.256569 0.071808 0.263782 -0.390057
C40   C     C_3   0.243432 0.928191 0.763786 -0.390040
C41   C     C_3   0.749486 0.476397 0.686729 -0.402332
C42   C     C_3   0.750607 0.523603 0.186729 -0.402342
C43   C     C_3   0.249251 0.023608 0.313269 -0.402367
C44   C     C_3   0.250596 0.976396 0.813271 -0.402336
C45   C     C_1   0.777355 0.413663 0.841369 -0.067874
C46   C     C_1   0.722633 0.586338 0.341367 -0.067779
C47   C     C_1   0.277388 0.086334 0.158630 -0.067694
C48   C     C_1   0.222626 0.913663 0.658632 -0.067799
C49   C     C_1   0.719434 0.589006 0.660897 -0.069077
C50   C     C_1   0.780578 0.410992 0.160899 -0.069107
C51   C     C_1   0.219402 0.910994 0.339102 -0.069121
C52   C     C_1   0.280581 0.089007 0.839102 -0.069090
C53   C     C_1   0.712158 0.626173 0.621709 -0.185193
C54   C     C_1   0.787853 0.373825 0.121711 -0.185190
C55   C     C_1   0.212132 0.873827 0.378290 -0.185188
C56   C     C_1   0.287855 0.126174 0.878290 -0.185189
H17   H     H_    0.876013 0.472338 0.660763 0.162633
H18   H     H_    0.624148 0.527670 0.160729 0.162626
H19   H     H_    0.375612 0.027690 0.339313 0.162616
H20   H     H_    0.124125 0.972331 0.839264 0.162626
H21   H     H_    0.632819 0.465024 0.658203 0.144299
H22   H     H_    0.867353 0.534970 0.158234 0.144305
H23   H     H_    0.132391 0.034969 0.341721 0.144307
H24   H     H_    0.367334 0.965026 0.841772 0.144303
H25   H     H_    0.876837 0.397037 0.730861 0.166258
H26   H     H_    0.623099 0.602939 0.230850 0.166243
H27   H     H_    0.376931 0.102915 0.269157 0.166231
H28   H     H_    0.123128 0.897055 0.769145 0.166240
H29   H     H_    0.023992 0.558147 0.718198 0.154138
H30   H     H_    0.475982 0.441919 0.218163 0.154132
H31   H     H_    0.524050 0.942008 0.281888 0.154137
H32   H     H_    0.975972 0.058086 0.781836 0.154138
H33   H     H_    0.634577 0.397232 0.733746 0.137547
H34   H     H_    0.865354 0.602791 0.233753 0.137554
H35   H     H_    0.134682 0.102815 0.266226 0.137562
H36   H     H_    0.365383 0.897214 0.766244 0.137550
C57   C     C_3   0.109612 0.478486 0.793327 -0.857112
H37   H     H_    0.132835 0.453796 0.752388 0.219027
H38   H     H_    0.210733 0.516381 0.797111 0.216222
H39   H     H_    0.129800 0.445580 0.829386 0.227483
C58   C     C_3   0.390384 0.521498 0.293365 -0.857107
H40   H     H_    0.367135 0.546247 0.252456 0.219012
H41   H     H_    0.289276 0.483592 0.297103 0.216225
H42   H     H_    0.370192 0.554349 0.329465 0.227497
C59   C     C_3   0.609640 0.021480 0.206593 -0.857151
H43   H     H_    0.632909 0.046293 0.247468 0.219005
H44   H     H_    0.710734 0.983562 0.202901 0.216232
H45   H     H_    0.629829 0.054272 0.170448 0.227516
C60   C     C_3   0.890368 0.978504 0.706635 -0.857136
H46   H     H_    0.867134 0.953753 0.747542 0.219021
H47   H     H_    0.789259 0.016409 0.702897 0.216239
H48   H     H_    0.870174 0.945654 0.670533 0.227493
C61   C     C_3   0.500370 0.613971 0.765261 -0.789765
H49   H     H_    0.606829 0.637467 0.791084 0.216322
H50   H     H_    0.475119 0.642699 0.726680 0.208375
H51   H     H_    0.370417 0.613837 0.789430 0.206619
C62   C     C_3   0.999359 0.385994 0.265332 -0.789745
H52   H     H_    0.892848 0.362570 0.291186 0.216323
H53   H     H_    0.024462 0.357219 0.226771 0.208380
H54   H     H_    0.129340 0.386099 0.289488 0.206615
C63   C     C_3   0.000908 0.885956 0.234607 -0.789713
H55   H     H_    0.107510 0.862582 0.208749 0.216313
H56   H     H_    0.975861 0.857152 0.273153 0.208373
H57   H     H_    0.870944 0.886034 0.210442 0.206625
C64   C     C_3   0.499405 0.113997 0.734682 -0.789726
H58   H     H_    0.392860 0.137449 0.708857 0.216309
H59   H     H_    0.524621 0.142752 0.773249 0.208368
H60   H     H_    0.629334 0.113888 0.710500 0.206625
C65   C     C_3   0.554795 0.529721 0.860518 -0.797913
H61   H     H_    0.414299 0.547949 0.865881 0.213752
H62   H     H_    0.574735 0.494775 0.894907 0.212026
H63   H     H_    0.651088 0.568952 0.867617 0.211359
C66   C     C_3   0.945344 0.470342 0.360535 -0.797920
H64   H     H_    0.085797 0.452069 0.365872 0.213760
H65   H     H_    0.925630 0.505333 0.394898 0.212046
H66   H     H_    0.848966 0.431150 0.367703 0.211337
C67   C     C_3   0.054614 0.970377 0.139444 -0.797933
H67   H     H_    0.914175 0.952091 0.134118 0.213757
H68   H     H_    0.074221 0.005395 0.105097 0.212059
H69   H     H_    0.151024 0.931202 0.132237 0.211340
C68   C     C_3   0.445269 0.029676 0.639466 -0.797920
H70   H     H_    0.585742 0.047922 0.634113 0.213754
H71   H     H_    0.425435 0.994701 0.605096 0.212039
H72   H     H_    0.348935 0.068888 0.632324 0.211352

loop_
_geom_bond_atom_site_label_1
_geom_bond_atom_site_label_2
_ccdc_geom_bond_type
O17   V3    S    
C31   C35   S    
O1    C5    A    
C67   H67   S    
C39   H35   S    
O19   V1    S    
C1    C24   S    
O13   V1    S    
O3    C7    A    
C2    C23   S    
O1    V3    S    
C32   C36   S    
C3    C22   S    
O15   V3    S    
C18   H14   S    
C68   H70   S    
C9    C25   S    
C32   C60   S    
C26   C50   S    
C41   H21   S    
C25   C49   S    
C62   H53   S    
C12   H32   S    
C43   H23   S    
C16   C64   S    
O9    V1    S    
O10   V2    S    
C14   C18   S    
C63   H56   S    
C64   H58   S    
O4    C8    A    
C17   C65   S    
C9    H5    S    
C52   C56   T    
C58   H41   S    
O2    V4    S    
C29   C57   S    
O3    V1    S    
C30   C34   S    
C58   H42   S    
C64   H59   S    
C65   H61   S    
C1    O15   A    
C15   H11   S    
C14   C26   S    
C2    O16   A    
C16   H12   S    
C13   C25   S    
O2    C6    A    
C61   H51   S    
C29   C33   S    
O14   V2    S    
C37   C41   S    
C66   H65   S    
C10   C30   S    
C34   C38   S    
C12   H8    S    
C9    C29   S    
C60   H48   S    
C13   H9    S    
O11   C7    A    
C11   C31   S    
O12   C8    A    
C43   H19   S    
C49   C53   T    
C42   H18   S    
C65   H62   S    
C10   C26   S    
C38   H34   S    
C15   C27   S    
H4    C32   S    
C37   H33   S    
C68   H71   S    
C50   C54   T    
O5    V1    S    
C19   C35   S    
C62   H54   S    
C10   H6    S    
C18   C34   S    
H1    C29   S    
C40   C44   S    
O8    V4    S    
C15   C63   S    
C18   C66   S    
O7    V3    S    
C57   H39   S    
O18   V4    S    
C15   C19   S    
C5    C55   S    
C17   C33   S    
C7    C53   S    
C28   C44   S    
O7    C3    A    
O5    C1    A    
C8    C54   S    
C26   C42   S    
C22   C46   T    
C38   C42   S    
C25   C41   S    
C14   H10   S    
C11   C27   S    
O8    C4    A    
C33   C45   S    
C27   C51   S    
C42   H22   S    
C39   H27   S    
C27   C43   S    
C34   C46   S    
C66   H66   S    
H3    C31   S    
C58   H40   S    
C21   C45   T    
C35   C47   S    
O6    V2    S    
C67   H69   S    
C11   H7    S    
C61   H49   S    
C44   H24   S    
C13   C61   S    
C65   H63   S    
C9    H29   S    
C20   C68   S    
C68   H72   S    
C11   H31   S    
C64   H60   S    
C59   H44   S    
C60   H46   S    
O16   V4    S    
C36   C48   S    
C3    O13   A    
C23   C47   T    
C6    C56   S    
C40   H36   S    
C36   C40   S    
C19   C67   S    
O6    C2    A    
C44   H20   S    
C12   C28   S    
O11   V3    S    
C63   H57   S    
C19   H15   S    
O12   V4    S    
C62   H52   S    
C40   H28   S    
C38   H26   S    
O10   C6    A    
C57   H38   S    
C17   H13   S    
O20   V2    S    
C63   H55   S    
O9    C5    A    
C39   C43   S    
C4    C21   S    
C30   C58   S    
C59   H43   S    
C41   H17   S    
C20   H16   S    
C59   H45   S    
C10   H30   S    
C37   H25   S    
C28   C52   S    
C14   C62   S    
C13   C17   S    
H2    C30   S    
C51   C55   T    
C16   C20   S    
C67   H68   S    
C16   C28   S    
C4    O14   A    
C61   H50   S    
C33   C37   S    
C31   C59   S    
C20   C36   S    
C66   H64   S    
C57   H37   S    
C35   C39   S    
C24   C48   T    
O4    V2    S    
C12   C32   S    
C60   H47   S    
