data_mof_unit_58147.cif
_audit_creation_date              2012-12-11T15:50:37-0500
_audit_creation_method            fapswitch 2.2
_symmetry_space_group_name_H-M    P1
_symmetry_Int_Tables_number       1
_space_group_crystal_system       triclinic
_cell_length_a                    6.910564
_cell_length_b                    14.583886
_cell_length_c                    16.167171
_cell_angle_alpha                 90.0
_cell_angle_beta                  89.999987
_cell_angle_gamma                 90.056835
_cell_volume                      1629.37321394

loop_
_atom_site_label
_atom_site_type_symbol
_atom_type_description
_atom_site_fract_x
_atom_site_fract_y
_atom_site_fract_z
_atom_type_partial_charge
O1    O     O_R   0.638140 0.833910 0.163320 -0.508463
O2    O     O_R   0.361860 0.166090 0.836680 -0.508463
O3    O     O_R   0.361860 0.166090 0.663320 -0.508463
O4    O     O_R   0.638140 0.833910 0.336680 -0.508463
O5    O     O_R   0.138140 0.666090 0.336680 -0.516499
O6    O     O_R   0.861860 0.333910 0.663320 -0.516499
O7    O     O_R   0.861860 0.333910 0.836680 -0.516499
O8    O     O_R   0.138140 0.666090 0.163320 -0.516499
O9    O     O_R   0.308390 0.844930 0.336080 -0.544841
O10   O     O_R   0.691610 0.155070 0.663920 -0.544842
O11   O     O_R   0.691610 0.155070 0.836080 -0.544841
O12   O     O_R   0.308390 0.844930 0.163920 -0.544841
O13   O     O_R   0.808390 0.655070 0.163920 -0.556567
O14   O     O_R   0.191610 0.344930 0.836080 -0.556567
O15   O     O_R   0.191610 0.344930 0.663920 -0.556567
O16   O     O_R   0.808390 0.655070 0.336080 -0.556567
C1    C     C_R   0.476676 0.866272 0.365769 0.833113
C2    C     C_R   0.523324 0.133728 0.634231 0.833115
C3    C     C_R   0.523324 0.133728 0.865769 0.833114
C4    C     C_R   0.476676 0.866272 0.134231 0.833114
C5    C     C_R   0.976919 0.631880 0.135694 0.760755
C6    C     C_R   0.023081 0.368120 0.864306 0.760755
C7    C     C_R   0.023081 0.368120 0.635694 0.760756
C8    C     C_R   0.976919 0.631880 0.364306 0.760755
O17   O     O_3   0.471620 0.691320 0.250000 -0.385278
O18   O     O_3   0.528380 0.308680 0.750000 -0.385278
O19   O     O_3   0.971620 0.808680 0.250000 -0.344385
O20   O     O_3   0.028380 0.191320 0.750000 -0.344386
V1    V     V_3+5 0.196770 0.760880 0.250000 1.571882
V2    V     V_3+5 0.803230 0.239120 0.750000 1.571880
V3    V     V_3+5 0.696770 0.739120 0.250000 1.547832
V4    V     V_3+5 0.303230 0.260880 0.750000 1.547831
C9    C     C_R   0.839900 0.495974 0.445534 -0.020017
C10   C     C_R   0.160100 0.504026 0.554466 -0.020016
C11   C     C_R   0.160100 0.504026 0.945534 -0.020017
C12   C     C_R   0.839900 0.495974 0.054466 -0.020018
C13   C     C_R   0.339725 0.939674 0.003216 -0.035861
C14   C     C_R   0.660276 0.060326 0.996783 -0.035860
C15   C     C_R   0.660277 0.060325 0.503217 -0.035859
C16   C     C_R   0.339725 0.939674 0.496784 -0.035861
C17   C     C_R   0.855484 0.434113 0.512057 0.567455
C18   C     C_R   0.144516 0.565887 0.487943 0.567455
C19   C     C_R   0.144517 0.565887 0.012057 0.567454
C20   C     C_R   0.855483 0.434113 0.987943 0.567455
C21   C     C_R   0.356479 0.004650 0.938997 0.591349
C22   C     C_R   0.643521 0.995350 0.061003 0.591349
C23   C     C_R   0.643522 0.995350 0.438997 0.591348
C24   C     C_R   0.356479 0.004650 0.561002 0.591347
C25   C     C_R   0.013995 0.436676 0.566888 -0.269595
C26   C     C_R   0.986005 0.563324 0.433112 -0.269594
C27   C     C_R   0.986005 0.563324 0.066888 -0.269594
C28   C     C_R   0.013995 0.436676 0.933112 -0.269595
C29   C     C_R   0.514759 0.065375 0.934756 -0.278840
C30   C     C_R   0.485241 0.934625 0.065243 -0.278840
C31   C     C_R   0.485241 0.934625 0.434756 -0.278839
C32   C     C_R   0.514760 0.065375 0.565244 -0.278839
C33   C     C_3   0.669403 0.486699 0.387441 -0.592926
H1    H     H_    0.721730 0.481522 0.322823 0.160035
H2    H     H_    0.581173 0.424556 0.399530 0.240627
H3    H     H_    0.571812 0.546555 0.394166 0.244694
C34   C     C_3   0.330597 0.513301 0.612559 -0.592927
H4    H     H_    0.278270 0.518478 0.677176 0.160035
H5    H     H_    0.428188 0.453445 0.605833 0.244694
H6    H     H_    0.418827 0.575444 0.600470 0.240626
C35   C     C_3   0.330598 0.513301 0.887442 -0.592926
H7    H     H_    0.278272 0.518477 0.822824 0.160035
H8    H     H_    0.418828 0.575443 0.899530 0.240626
H9    H     H_    0.428188 0.453444 0.894167 0.244694
C36   C     C_3   0.669402 0.486699 0.112558 -0.592927
H10   H     H_    0.721728 0.481522 0.177176 0.160035
H11   H     H_    0.571812 0.546556 0.105833 0.244694
H12   H     H_    0.581172 0.424556 0.100470 0.240627
C37   C     C_3   0.168727 0.874865 0.002955 -0.586235
H13   H     H_    0.220078 0.803015 0.006852 0.226823
H14   H     H_    0.072106 0.890184 0.055945 0.235991
H15   H     H_    0.079984 0.880421 0.946010 0.242647
C38   C     C_3   0.831276 0.125133 0.997043 -0.586236
H16   H     H_    0.927891 0.109816 0.944051 0.235992
H17   H     H_    0.779928 0.196983 0.993150 0.226822
H18   H     H_    0.920024 0.119573 0.053986 0.242647
C39   C     C_3   0.831279 0.125131 0.502957 -0.586235
H19   H     H_    0.779934 0.196982 0.506850 0.226822
H20   H     H_    0.927893 0.109813 0.555950 0.235993
H21   H     H_    0.920029 0.119571 0.446016 0.242646
C40   C     C_3   0.168728 0.874865 0.497044 -0.586236
H22   H     H_    0.220079 0.803015 0.493147 0.226823
H23   H     H_    0.079986 0.880420 0.553990 0.242647
H24   H     H_    0.072106 0.890184 0.444054 0.235992
F1    F     F_    0.715682 0.369514 0.522476 -0.718921
F2    F     F_    0.284319 0.630485 0.477524 -0.718923
F3    F     F_    0.284319 0.630485 0.022476 -0.718923
F4    F     F_    0.715681 0.369515 0.977524 -0.718922
F5    F     F_    0.219440 0.007242 0.878671 -0.669748
F6    F     F_    0.780560 0.992758 0.121329 -0.669747
F7    F     F_    0.780560 0.992758 0.378671 -0.669748
F8    F     F_    0.219440 0.007242 0.621329 -0.669749

loop_
_geom_bond_atom_site_label_1
_geom_bond_atom_site_label_2
_ccdc_geom_bond_type
O17   V3    S    
C17   F1    S    
O18   V4    S    
O12   V1    S    
O19   V1    S    
C37   H13   S    
C10   C18   A    
C21   F5    S    
C39   H19   S    
O15   V4    S    
C40   H22   S    
O16   V3    S    
C14   C29   A    
O11   C3    A    
O8    V1    S    
C6    C28   S    
O10   C2    A    
C33   H2    S    
C11   C35   S    
O1    V3    S    
O3    C2    A    
O2    V4    S    
C34   H5    S    
C16   C24   A    
O11   V2    S    
C35   H8    S    
C11   C19   A    
C1    C31   S    
C20   F4    S    
O9    V1    S    
C16   C31   A    
C3    C29   S    
O15   C7    A    
C21   C29   A    
O16   C8    A    
O7    V2    S    
C8    C26   S    
C37   H14   S    
O12   C4    A    
C36   H10   S    
C17   C25   A    
C39   H20   S    
O5    V1    S    
C38   H17   S    
O17   V1    S    
C36   H11   S    
C40   H23   S    
O19   V3    S    
O20   V4    S    
C15   C39   S    
C4    C30   S    
C33   H3    S    
C9    C26   A    
C38   H16   S    
C15   C23   A    
C10   C34   S    
C19   F3    S    
C18   F2    S    
C16   C40   S    
C36   H12   S    
O10   V2    S    
C15   C32   A    
C22   F6    S    
C35   H9    S    
C22   C30   A    
O8    C5    A    
O13   C5    A    
O3    V4    S    
C12   C27   A    
C18   C26   A    
C13   C30   A    
O9    C1    A    
O6    V2    S    
O18   V2    S    
C37   H15   S    
C12   C20   A    
O4    C1    A    
C13   C21   A    
C5    C27   S    
C39   H21   S    
C12   C36   S    
C40   H24   S    
C23   C31   A    
C38   H18   S    
C24   C32   A    
C13   C37   S    
O1    C4    A    
C9    C33   S    
C24   F8    S    
O2    C3    A    
O13   V3    S    
O14   V4    S    
C14   C38   S    
C2    C32   S    
O7    C6    A    
C9    C17   A    
O14   C6    A    
O20   V2    S    
C34   H6    S    
C20   C28   A    
C33   H1    S    
O5    C8    A    
C19   C27   A    
O6    C7    A    
C34   H4    S    
C14   C22   A    
O4    V3    S    
C7    C25   S    
C10   C25   A    
C35   H7    S    
C11   C28   A    
C23   F7    S    
