data_mof_unit_39809.cif
_audit_creation_date              2012-12-10T16:33:55-0500
_audit_creation_method            fapswitch 2.2
_symmetry_space_group_name_H-M    P1
_symmetry_Int_Tables_number       1
_space_group_crystal_system       triclinic
_cell_length_a                    28.150481
_cell_length_b                    18.383216
_cell_length_c                    17.059404
_cell_angle_alpha                 90.190473
_cell_angle_beta                  60.462535
_cell_angle_gamma                 90.025299
_cell_volume                      7680.76253795

loop_
_atom_site_label
_atom_site_type_symbol
_atom_type_description
_atom_site_fract_x
_atom_site_fract_y
_atom_site_fract_z
_atom_type_partial_charge
C1    C     C_R   0.703841 0.273813 0.675290 0.891454
C2    C     C_R   0.294301 0.722966 0.326827 0.902341
C3    C     C_R   0.296629 0.271987 0.324216 0.893155
C4    C     C_R   0.705799 0.722862 0.673012 0.903341
C5    C     C_R   0.203843 0.773817 0.675288 0.891451
C6    C     C_R   0.794301 0.222966 0.326827 0.902339
C7    C     C_R   0.796619 0.772012 0.324224 0.893147
C8    C     C_R   0.205796 0.222865 0.673014 0.903336
C9    C     C_R   0.035751 0.369488 0.537052 -0.247198
C10   C     C_R   0.966329 0.631047 0.454453 -0.232497
C11   C     C_R   0.967020 0.369392 0.452649 -0.246947
C12   C     C_R   0.035902 0.631149 0.537337 -0.236111
C13   C     C_R   0.535738 0.869490 0.537094 -0.247187
C14   C     C_R   0.466324 0.131047 0.454473 -0.232498
C15   C     C_R   0.467012 0.869391 0.452679 -0.246963
C16   C     C_R   0.535897 0.131150 0.537357 -0.236110
C17   C     C_R   0.710403 0.256733 0.966862 0.112332
C18   C     C_R   0.270767 0.720650 0.053542 0.144819
C19   C     C_R   0.290085 0.254117 0.031635 0.101117
C20   C     C_R   0.728951 0.719788 0.946322 0.139131
C21   C     C_R   0.210419 0.756756 0.966843 0.112322
C22   C     C_R   0.770751 0.220633 0.053561 0.144828
C23   C     C_R   0.790092 0.754142 0.031631 0.101024
C24   C     C_R   0.228913 0.219800 0.946366 0.139150
C25   C     C_R   0.715673 0.183920 0.986108 -0.200562
C26   C     C_R   0.266608 0.793289 0.032334 -0.225429
C27   C     C_R   0.257958 0.307432 0.021242 -0.183120
C28   C     C_R   0.761660 0.666646 0.955741 -0.217560
C29   C     C_R   0.215702 0.683941 0.986064 -0.200468
C30   C     C_R   0.766601 0.293270 0.032335 -0.225433
C31   C     C_R   0.757970 0.807446 0.021206 -0.183041
C32   C     C_R   0.261615 0.166642 0.955775 -0.217520
C33   C     C_R   0.744352 0.166233 0.031248 -0.171648
C34   C     C_R   0.236032 0.811318 0.990561 -0.203899
C35   C     C_R   0.227343 0.290289 0.979385 -0.219893
C36   C     C_R   0.791859 0.683618 0.998504 -0.212816
C37   C     C_R   0.244378 0.666251 0.031208 -0.171640
C38   C     C_R   0.736025 0.311296 0.990560 -0.203892
C39   C     C_R   0.727368 0.790282 0.979333 -0.219938
C40   C     C_R   0.291838 0.183598 0.998503 -0.212962
C41   C     C_R   0.628038 0.302030 0.959688 0.072476
C42   C     C_R   0.357675 0.678381 0.049348 0.063604
C43   C     C_R   0.370477 0.304159 0.040066 0.064090
C44   C     C_R   0.641946 0.679810 0.950231 0.056127
C45   C     C_R   0.128047 0.802041 0.959682 0.072490
C46   C     C_R   0.857665 0.178372 0.049352 0.063594
C47   C     C_R   0.870489 0.804147 0.040070 0.064114
C48   C     C_R   0.141908 0.179866 0.950249 0.056182
C49   C     C_R   0.607219 0.334214 0.906872 -0.113650
C50   C     C_R   0.385056 0.656992 0.097507 -0.112146
C51   C     C_R   0.389861 0.337444 0.094647 -0.097583
C52   C     C_R   0.614992 0.657024 0.901940 -0.116764
C53   C     C_R   0.107221 0.834216 0.906870 -0.113651
C54   C     C_R   0.885052 0.156990 0.097506 -0.112145
C55   C     C_R   0.889876 0.837432 0.094645 -0.097591
C56   C     C_R   0.114970 0.157051 0.901947 -0.116807
C57   C     C_R   0.630388 0.318030 0.816640 -0.318656
C58   C     C_R   0.365165 0.677499 0.185371 -0.326414
C59   C     C_R   0.366891 0.321016 0.184504 -0.330514
C60   C     C_R   0.635200 0.676386 0.813738 -0.321109
C61   C     C_R   0.130387 0.818029 0.816640 -0.318647
C62   C     C_R   0.865165 0.177503 0.185368 -0.326414
C63   C     C_R   0.866903 0.821009 0.184504 -0.330484
C64   C     C_R   0.135189 0.176395 0.813737 -0.321082
C65   C     C_R   0.681670 0.287754 0.771657 -0.089507
C66   C     C_R   0.312794 0.703014 0.233977 -0.089009
C67   C     C_R   0.318402 0.283912 0.227578 -0.091983
C68   C     C_R   0.687403 0.702558 0.765520 -0.091276
C69   C     C_R   0.181673 0.787766 0.771652 -0.089485
C70   C     C_R   0.812792 0.203011 0.233980 -0.089004
C71   C     C_R   0.818389 0.783961 0.227591 -0.091940
C72   C     C_R   0.187391 0.202571 0.765529 -0.091285
C73   C     C_R   0.711460 0.274788 0.818758 0.059333
C74   C     C_R   0.278403 0.707532 0.194104 0.041881
C75   C     C_R   0.290602 0.263096 0.178828 0.058703
C76   C     C_R   0.721635 0.707457 0.805582 0.042094
C77   C     C_R   0.211470 0.774818 0.818745 0.059345
C78   C     C_R   0.778396 0.207520 0.194115 0.041871
C79   C     C_R   0.790570 0.763212 0.178853 0.058741
C80   C     C_R   0.221613 0.207480 0.805608 0.042082
C81   C     C_R   0.682422 0.275803 0.914579 0.011225
C82   C     C_R   0.302740 0.702139 0.099349 0.001572
C83   C     C_R   0.318372 0.271332 0.083695 0.002969
C84   C     C_R   0.697047 0.702378 0.900369 0.012608
C85   C     C_R   0.182435 0.775828 0.914566 0.011217
C86   C     C_R   0.802729 0.202126 0.099360 0.001589
C87   C     C_R   0.818364 0.771376 0.083707 0.002957
C88   C     C_R   0.197013 0.202416 0.900400 0.012596
C89   C     C_R   0.691211 0.129376 0.534703 0.897432
C90   C     C_R   0.308862 0.870582 0.464842 0.899612
C91   C     C_R   0.308858 0.129358 0.464797 0.894901
C92   C     C_R   0.691243 0.870769 0.534539 0.904657
C93   C     C_R   0.191211 0.629375 0.534702 0.897443
C94   C     C_R   0.808862 0.370582 0.464841 0.899644
C95   C     C_R   0.808859 0.629358 0.464795 0.894938
C96   C     C_R   0.191243 0.370769 0.534537 0.904735
C97   C     C_R   0.071671 0.103087 0.936717 0.905832
C98   C     C_R   0.929404 0.896174 0.062510 0.899097
C99   C     C_R   0.928436 0.103178 0.063176 0.907570
C100  C     C_R   0.068273 0.894019 0.939451 0.889567
C101  C     C_R   0.571680 0.603078 0.936711 0.905791
C102  C     C_R   0.429393 0.396183 0.062518 0.899100
C103  C     C_R   0.428438 0.603179 0.063174 0.907585
C104  C     C_R   0.568272 0.394019 0.939451 0.889567
C105  C     C_R   0.541619 0.000259 0.521697 0.019330
C106  C     C_R   0.461060 0.000186 0.469122 0.015708
C107  C     C_R   0.041628 0.500258 0.521669 0.019317
C108  C     C_R   0.961067 0.500186 0.469097 0.015706
C109  C     C_R   0.520610 0.066930 0.510701 0.048289
C110  C     C_R   0.482482 0.933589 0.479136 0.041106
C111  C     C_R   0.482168 0.066877 0.480004 0.049153
C112  C     C_R   0.520668 0.933613 0.510319 0.047023
C113  C     C_R   0.020617 0.566930 0.510676 0.048279
C114  C     C_R   0.982492 0.433589 0.479104 0.041118
C115  C     C_R   0.982175 0.566877 0.479979 0.049151
C116  C     C_R   0.020679 0.433613 0.510283 0.047119
C117  C     C_R   0.606332 0.934138 0.552552 0.068282
C118  C     C_R   0.394771 0.066119 0.442184 0.067867
C119  C     C_R   0.394864 0.933938 0.441929 0.069834
C120  C     C_R   0.606270 0.066250 0.552969 0.068966
C121  C     C_R   0.106336 0.434137 0.552534 0.068284
C122  C     C_R   0.894774 0.566120 0.442171 0.067858
C123  C     C_R   0.894867 0.433939 0.441914 0.069854
C124  C     C_R   0.106273 0.566249 0.552955 0.068970
C125  C     C_R   0.656660 0.935037 0.554230 -0.133798
C126  C     C_R   0.343590 0.065116 0.443569 -0.128408
C127  C     C_R   0.343607 0.934785 0.443574 -0.132194
C128  C     C_R   0.656608 0.065257 0.554534 -0.128831
C129  C     C_R   0.156661 0.435037 0.554223 -0.133808
C130  C     C_R   0.843590 0.565116 0.443564 -0.128413
C131  C     C_R   0.843607 0.434785 0.443568 -0.132204
C132  C     C_R   0.156609 0.565257 0.554529 -0.128827
C133  C     C_R   0.679427 0.000146 0.558843 -0.310297
C134  C     C_R   0.320323 0.999916 0.440560 -0.310619
C135  C     C_R   0.179426 0.500146 0.558842 -0.310298
C136  C     C_R   0.820322 0.499916 0.440559 -0.310608
C137  C     C_R   0.584532 0.000217 0.542982 0.069116
C138  C     C_R   0.417195 0.000081 0.450238 0.068100
C139  C     C_R   0.084538 0.500216 0.542961 0.069119
C140  C     C_R   0.917199 0.500082 0.450220 0.068115
C141  C     C_R   0.076523 0.370207 0.560435 -0.175946
C142  C     C_R   0.924699 0.630176 0.433048 -0.187897
C143  C     C_R   0.925033 0.369982 0.432043 -0.179515
C144  C     C_R   0.076499 0.630289 0.561104 -0.186186
C145  C     C_R   0.576515 0.870208 0.560464 -0.175944
C146  C     C_R   0.424697 0.130175 0.433062 -0.187890
C147  C     C_R   0.425029 0.869982 0.432064 -0.179476
C148  C     C_R   0.576496 0.130290 0.561120 -0.186184
H1    H     H_    0.717991 0.000134 0.558708 0.197235
H2    H     H_    0.281082 0.999889 0.443054 0.197988
H3    H     H_    0.217988 0.500134 0.558715 0.197228
H4    H     H_    0.781079 0.499890 0.443059 0.197994
H5    H     H_    0.082891 0.320077 0.586667 0.176621
H6    H     H_    0.917475 0.680308 0.407850 0.177572
H7    H     H_    0.917633 0.319707 0.407047 0.176335
H8    H     H_    0.082821 0.680415 0.587758 0.178336
H9    H     H_    0.582888 0.820079 0.586691 0.176618
H10   H     H_    0.417475 0.180307 0.407861 0.177569
H11   H     H_    0.417632 0.819706 0.407065 0.176342
H12   H     H_    0.582821 0.180417 0.587769 0.178329
H13   H     H_    0.015386 0.318320 0.542838 0.145660
H14   H     H_    0.986662 0.682328 0.448160 0.143182
H15   H     H_    0.987573 0.318205 0.445891 0.144356
H16   H     H_    0.015645 0.682440 0.543279 0.143517
H17   H     H_    0.515371 0.818323 0.542885 0.145677
H18   H     H_    0.486658 0.182327 0.448180 0.143181
H19   H     H_    0.487565 0.818205 0.445926 0.144408
H20   H     H_    0.515641 0.182442 0.543298 0.143516
H21   H     H_    0.733408 0.367608 0.974591 0.137726
H22   H     H_    0.246554 0.610006 0.047756 0.121101
H23   H     H_    0.316005 0.141724 0.006861 0.140505
H24   H     H_    0.702575 0.831956 0.972248 0.132569
H25   H     H_    0.233406 0.867631 0.974609 0.137747
H26   H     H_    0.746525 0.109988 0.047805 0.121140
H27   H     H_    0.816025 0.641754 0.006882 0.140506
H28   H     H_    0.202554 0.331975 0.972312 0.132546
H29   H     H_    0.697806 0.140766 0.965807 0.127289
H30   H     H_    0.286665 0.836021 0.048984 0.135308
H31   H     H_    0.255885 0.361920 0.047094 0.131329
H32   H     H_    0.763171 0.611911 0.930925 0.130299
H33   H     H_    0.197842 0.640787 0.965748 0.127269
H34   H     H_    0.786666 0.336003 0.048969 0.135316
H35   H     H_    0.755887 0.861939 0.047052 0.131352
H36   H     H_    0.263113 0.111910 0.930960 0.130318
H37   H     H_    0.610354 0.335222 0.779382 0.194809
H38   H     H_    0.389232 0.668034 0.218214 0.186393
H39   H     H_    0.385242 0.341857 0.222983 0.192049
H40   H     H_    0.611401 0.666063 0.780574 0.187266
H41   H     H_    0.110347 0.835209 0.779387 0.194806
H42   H     H_    0.889235 0.168046 0.218206 0.186396
H43   H     H_    0.885268 0.841823 0.222974 0.192041
H44   H     H_    0.111399 0.166053 0.780561 0.187278
O1    O     O_R   0.746490 0.236330 0.638080 -0.634946
O2    O     O_R   0.253510 0.763670 0.361920 -0.630586
O3    O     O_R   0.253510 0.236330 0.361920 -0.637543
O4    O     O_R   0.746490 0.763670 0.638080 -0.632783
O5    O     O_R   0.246490 0.736330 0.638080 -0.634966
O6    O     O_R   0.753510 0.263670 0.361920 -0.630590
O7    O     O_R   0.753510 0.736330 0.361920 -0.637590
O8    O     O_R   0.246490 0.263670 0.638080 -0.632776
O9    O     O_R   0.674170 0.186160 0.516270 -0.652633
O10   O     O_R   0.325830 0.813840 0.483730 -0.642155
O11   O     O_R   0.325830 0.186160 0.483730 -0.651144
O12   O     O_R   0.674170 0.813840 0.516270 -0.642801
O13   O     O_R   0.174170 0.686160 0.516270 -0.652633
O14   O     O_R   0.825830 0.313840 0.483730 -0.642146
O15   O     O_R   0.825830 0.686160 0.483730 -0.651150
O16   O     O_R   0.174170 0.313840 0.516270 -0.642773
O17   O     O_R   0.739960 0.127620 0.525000 -0.625235
O18   O     O_R   0.260040 0.872380 0.475000 -0.623794
O19   O     O_R   0.260040 0.127620 0.475000 -0.627617
O20   O     O_R   0.739960 0.872380 0.525000 -0.622058
O21   O     O_R   0.239960 0.627620 0.525000 -0.625230
O22   O     O_R   0.760040 0.372380 0.475000 -0.623794
O23   O     O_R   0.760040 0.627620 0.475000 -0.627596
O24   O     O_R   0.239960 0.372380 0.525000 -0.622050
O25   O     O_R   0.680700 0.294870 0.629350 -0.629641
O26   O     O_R   0.319300 0.705130 0.370650 -0.632028
O27   O     O_R   0.319300 0.294870 0.370650 -0.628648
O28   O     O_R   0.680700 0.705130 0.629350 -0.631862
O29   O     O_R   0.180700 0.794870 0.629350 -0.629640
O30   O     O_R   0.819300 0.205130 0.370650 -0.632028
O31   O     O_R   0.819300 0.794870 0.370650 -0.628655
O32   O     O_R   0.180700 0.205130 0.629350 -0.631866
O33   O     O_R   0.062020 0.072840 0.007170 -0.609373
O34   O     O_R   0.937980 0.927160 0.992830 -0.625195
O35   O     O_R   0.937980 0.072840 0.992830 -0.630560
O36   O     O_R   0.062020 0.927160 0.007170 -0.626420
O37   O     O_R   0.562020 0.572840 0.007170 -0.609479
O38   O     O_R   0.437980 0.427160 0.992830 -0.625198
O39   O     O_R   0.437980 0.572840 0.992830 -0.630564
O40   O     O_R   0.562020 0.427160 0.007170 -0.626448
O41   O     O_R   0.947860 0.073950 0.109290 -0.616714
O42   O     O_R   0.052140 0.926050 0.890710 -0.609271
O43   O     O_R   0.052140 0.073950 0.890710 -0.616965
O44   O     O_R   0.947860 0.926050 0.109290 -0.623859
O45   O     O_R   0.447860 0.573950 0.109290 -0.616697
O46   O     O_R   0.552140 0.426050 0.890710 -0.609269
O47   O     O_R   0.552140 0.573950 0.890710 -0.616944
O48   O     O_R   0.447860 0.426050 0.109290 -0.623849
Zn1   Zn    Zn3+2 0.792340 0.208750 0.507670 0.923550
Zn2   Zn    Zn3+2 0.207660 0.791250 0.492330 0.919557
Zn3   Zn    Zn3+2 0.207660 0.208750 0.492330 0.920377
Zn4   Zn    Zn3+2 0.792340 0.791250 0.507670 0.922238
Zn5   Zn    Zn3+2 0.292340 0.708750 0.507670 0.923555
Zn6   Zn    Zn3+2 0.707660 0.291250 0.492330 0.919569
Zn7   Zn    Zn3+2 0.707660 0.708750 0.492330 0.920416
Zn8   Zn    Zn3+2 0.292340 0.291250 0.507670 0.922248
Zn9   Zn    Zn3+2 0.505960 0.500000 0.080520 0.909447
Zn10  Zn    Zn3+2 0.494040 0.500000 0.919480 0.902312
Zn11  Zn    Zn3+2 0.005960 1.000000 0.080520 0.909404
Zn12  Zn    Zn3+2 0.994040 1.000000 0.919480 0.902288
C149  C     C_3   0.592987 0.293836 0.061838 -0.412266
C150  C     C_3   0.572177 0.215539 0.087353 -0.355567
C151  C     C_3   0.540317 0.205875 0.189508 -0.884269
H45   H     H_    0.566965 0.217516 0.219051 0.264827
H46   H     H_    0.504445 0.242915 0.220111 0.255764
H47   H     H_    0.525556 0.148938 0.205877 0.255767
H48   H     H_    0.545002 0.202226 0.059205 0.215780
H49   H     H_    0.606475 0.176343 0.058940 0.229377
H50   H     H_    0.616556 0.310540 0.095367 0.209840
H51   H     H_    0.556050 0.328276 0.091023 0.219855
C152  C     C_3   0.387224 0.680626 0.946501 -0.379097
C153  C     C_3   0.376497 0.612928 0.903492 -0.266245
C154  C     C_3   0.370078 0.632721 0.822491 -0.951522
H52   H     H_    0.333293 0.666833 0.844542 0.275761
H53   H     H_    0.406553 0.662733 0.771764 0.261985
H54   H     H_    0.365218 0.582456 0.790870 0.247563
H55   H     H_    0.411371 0.574553 0.879139 0.231037
H56   H     H_    0.339616 0.583148 0.953095 0.211962
H57   H     H_    0.375151 0.731214 0.925230 0.201732
H58   H     H_    0.431912 0.686856 0.919246 0.174846
C155  C     C_3   0.404741 0.302724 0.936966 -0.404923
C156  C     C_3   0.460116 0.265185 0.905104 -0.328819
C157  C     C_3   0.494486 0.264775 0.802470 -0.886475
H59   H     H_    0.503054 0.321375 0.776545 0.259518
H60   H     H_    0.533952 0.236894 0.781687 0.248933
H61   H     H_    0.472859 0.235366 0.772307 0.257656
H62   H     H_    0.483634 0.293191 0.932716 0.208533
H63   H     H_    0.453159 0.208099 0.929591 0.215414
H64   H     H_    0.384176 0.272283 0.905965 0.206954
H65   H     H_    0.410089 0.358175 0.908627 0.220601
C158  C     C_3   0.611675 0.683107 0.052913 -0.385156
C159  C     C_3   0.626913 0.620063 0.095597 -0.290284
C160  C     C_3   0.581737 0.605534 0.191886 -0.899968
H66   H     H_    0.572844 0.655510 0.233621 0.251316
H67   H     H_    0.543942 0.587485 0.192262 0.267116
H68   H     H_    0.594915 0.561952 0.221956 0.237829
H69   H     H_    0.634804 0.569330 0.055390 0.237676
H70   H     H_    0.664602 0.633817 0.097761 0.213366
H71   H     H_    0.620305 0.735663 0.075700 0.180490
H72   H     H_    0.566911 0.684347 0.078723 0.204046
C161  C     C_3   0.093000 0.793847 0.061832 -0.412251
C162  C     C_3   0.072203 0.715546 0.087353 -0.355600
C163  C     C_3   0.040339 0.705886 0.189510 -0.884303
H73   H     H_    0.066981 0.717552 0.219057 0.264833
H74   H     H_    0.004460 0.742910 0.220102 0.255769
H75   H     H_    0.025592 0.648945 0.205884 0.255775
H76   H     H_    0.045034 0.702214 0.059202 0.215791
H77   H     H_    0.106507 0.676362 0.058950 0.229391
H78   H     H_    0.116569 0.810566 0.095357 0.209842
H79   H     H_    0.056058 0.828276 0.091019 0.219852
C164  C     C_3   0.887198 0.180581 0.946503 -0.379104
C165  C     C_3   0.876459 0.112855 0.903549 -0.266062
C166  C     C_3   0.869947 0.132615 0.822623 -0.951486
H80   H     H_    0.833126 0.166681 0.844761 0.275776
H81   H     H_    0.906381 0.162665 0.771840 0.261955
H82   H     H_    0.865091 0.082328 0.791031 0.247558
H83   H     H_    0.911364 0.074512 0.879114 0.230948
H84   H     H_    0.839611 0.083046 0.953217 0.211936
H85   H     H_    0.875121 0.231154 0.925211 0.201734
H86   H     H_    0.931888 0.186816 0.919226 0.174822
C167  C     C_3   0.904766 0.802675 0.936973 -0.404964
C168  C     C_3   0.960132 0.765122 0.905153 -0.328865
C169  C     C_3   0.994511 0.764665 0.802520 -0.886484
H87   H     H_    0.003091 0.821253 0.776555 0.259515
H88   H     H_    0.033971 0.736777 0.781769 0.248944
H89   H     H_    0.972885 0.735240 0.772367 0.257671
H90   H     H_    0.983648 0.793143 0.932755 0.208500
H91   H     H_    0.953161 0.708048 0.929681 0.215434
H92   H     H_    0.884202 0.772229 0.905973 0.206973
H93   H     H_    0.910132 0.858117 0.908603 0.220604
C170  C     C_3   0.111611 0.183213 0.052927 -0.385170
C171  C     C_3   0.126877 0.120255 0.095685 -0.290241
C172  C     C_3   0.081606 0.105533 0.191836 -0.900325
H94   H     H_    0.072388 0.155517 0.233610 0.251344
H95   H     H_    0.043993 0.087107 0.191903 0.267381
H96   H     H_    0.094851 0.062174 0.222072 0.237841
H97   H     H_    0.134973 0.069551 0.055371 0.237541
H98   H     H_    0.164451 0.134198 0.098112 0.213400
H99   H     H_    0.120200 0.235815 0.075676 0.180374
H100  H     H_    0.066849 0.184391 0.078708 0.204107
C173  C     C_3   0.773762 0.267183 0.769078 -0.401461
C174  C     C_3   0.801453 0.337883 0.719926 -0.318036
C175  C     C_3   0.863503 0.331875 0.673965 -0.859328
H101  H     H_    0.881969 0.384582 0.641844 0.261024
H102  H     H_    0.876645 0.318951 0.723986 0.251016
H103  H     H_    0.878375 0.288770 0.621354 0.266003
H104  H     H_    0.789850 0.351541 0.668299 0.234824
H105  H     H_    0.787939 0.383364 0.769481 0.209324
H106  H     H_    0.789433 0.256162 0.815680 0.201169
H107  H     H_    0.787802 0.219413 0.723459 0.223875
C176  C     C_3   0.216214 0.706080 0.251667 -0.367559
C177  C     C_3   0.189579 0.781386 0.264318 -0.300469
C178  C     C_3   0.131412 0.781507 0.343907 -0.894831
H108  H     H_    0.106365 0.739658 0.333941 0.256791
H109  H     H_    0.131724 0.770156 0.407585 0.275129
H110  H     H_    0.112465 0.835655 0.349725 0.234620
H111  H     H_    0.213702 0.823819 0.275530 0.235127
H112  H     H_    0.187581 0.796254 0.203126 0.218519
H113  H     H_    0.198917 0.668760 0.220816 0.180468
H114  H     H_    0.204115 0.680781 0.317958 0.218358
C179  C     C_3   0.231041 0.236894 0.225857 -0.385080
C180  C     C_3   0.191519 0.300212 0.274388 -0.293000
C181  C     C_3   0.132300 0.274657 0.322818 -0.884368
H115  H     H_    0.104898 0.322062 0.354195 0.258744
H116  H     H_    0.121868 0.248878 0.274299 0.253314
H117  H     H_    0.125572 0.235085 0.376387 0.259403
H118  H     H_    0.200583 0.326508 0.324195 0.239753
H119  H     H_    0.196415 0.342094 0.224095 0.205348
H120  H     H_    0.219162 0.213193 0.178319 0.198374
H121  H     H_    0.224410 0.189967 0.270581 0.217598
C182  C     C_3   0.783880 0.708657 0.748214 -0.369030
C183  C     C_3   0.808336 0.784883 0.740163 -0.298917
C184  C     C_3   0.868282 0.786435 0.666894 -0.899509
H122  H     H_    0.892203 0.746486 0.682144 0.259486
H123  H     H_    0.872337 0.773309 0.600227 0.269923
H124  H     H_    0.885292 0.841560 0.663612 0.237271
H125  H     H_    0.785477 0.826008 0.724307 0.235804
H126  H     H_    0.805887 0.800819 0.804751 0.220530
H127  H     H_    0.802108 0.670944 0.776787 0.182742
H128  H     H_    0.797059 0.685235 0.680454 0.219079
C185  C     C_3   0.273774 0.767248 0.769058 -0.401481
C186  C     C_3   0.301440 0.837955 0.719903 -0.318137
C187  C     C_3   0.363488 0.832017 0.674035 -0.859317
H129  H     H_    0.381934 0.884716 0.641859 0.261036
H130  H     H_    0.376600 0.819205 0.724126 0.251033
H131  H     H_    0.378412 0.788862 0.621481 0.265987
H132  H     H_    0.289870 0.851550 0.668219 0.234864
H133  H     H_    0.287874 0.883453 0.769439 0.209362
H134  H     H_    0.289449 0.756249 0.815658 0.201202
H135  H     H_    0.287826 0.719479 0.723436 0.223854
C188  C     C_3   0.716208 0.206057 0.251685 -0.367561
C189  C     C_3   0.689563 0.281357 0.264333 -0.300473
C190  C     C_3   0.631393 0.281464 0.343909 -0.894872
H136  H     H_    0.606356 0.239609 0.333928 0.256804
H137  H     H_    0.631698 0.270114 0.407593 0.275131
H138  H     H_    0.612440 0.335607 0.349725 0.234627
H139  H     H_    0.713676 0.323796 0.275559 0.235138
H140  H     H_    0.687572 0.296223 0.203136 0.218527
H141  H     H_    0.698913 0.168727 0.220840 0.180466
H142  H     H_    0.704114 0.180764 0.317978 0.218355
C191  C     C_3   0.730960 0.737200 0.225910 -0.385167
C192  C     C_3   0.691561 0.800636 0.274427 -0.293209
C193  C     C_3   0.632279 0.775323 0.322663 -0.884278
H143  H     H_    0.604978 0.822819 0.354050 0.258886
H144  H     H_    0.621855 0.749766 0.274015 0.253169
H145  H     H_    0.625395 0.735626 0.376200 0.259378
H146  H     H_    0.700611 0.826735 0.324355 0.239743
H147  H     H_    0.696613 0.842627 0.224150 0.205334
H148  H     H_    0.719031 0.713595 0.178386 0.198578
H149  H     H_    0.724242 0.690261 0.270659 0.217607
C194  C     C_3   0.283859 0.208683 0.748256 -0.369043
C195  C     C_3   0.308310 0.284911 0.740208 -0.298908
C196  C     C_3   0.368257 0.286471 0.666941 -0.899470
H150  H     H_    0.392180 0.246523 0.682189 0.259473
H151  H     H_    0.372315 0.273348 0.600269 0.269910
H152  H     H_    0.385262 0.341598 0.663665 0.237269
H153  H     H_    0.285448 0.326032 0.724350 0.235792
H154  H     H_    0.305857 0.300847 0.804799 0.220522
H155  H     H_    0.302084 0.170973 0.776838 0.182751
H156  H     H_    0.297046 0.185257 0.680495 0.219080

loop_
_geom_bond_atom_site_label_1
_geom_bond_atom_site_label_2
_ccdc_geom_bond_type
C151  H46   S    
O23   Zn7   S    
C153  H55   S    
C47   C167  S    
C100  O42   A    
C157  H60   S    
O8    Zn8   S    
C79   C87   A    
C62   H42   S    
C61   C69   A    
C173  C174  S    
C104  O46   A    
C56   C97   S    
C164  H85   S    
C159  C160  S    
C188  H141  S    
C13   C112  A    
C99   O41   A    
C96   O16   A    
C58   H38   S    
C97   O43   A    
C30   C38   A    
C156  C157  S    
C148  H12   S    
C107  C113  A    
C174  H104  S    
O11   Zn8   S    
C171  C172  S    
C57   H37   S    
C26   H30   S    
C159  H70   S    
O48   Zn9   S    
C10   H14   S    
C61   H41   S    
C30   H34   S    
C195  H154  S    
C41   C49   A    
C64   H44   S    
C16   C109  A    
C52   C101  S    
C94   O22   A    
C170  C171  S    
O18   Zn2   S    
C57   C65   A    
C175  H102  S    
C20   C28   A    
C27   C35   A    
C168  C169  S    
C44   C158  S    
C21   C29   A    
C3    O3    A    
C23   C31   A    
C165  H84   S    
C24   C32   A    
C7    O31   A    
C181  H115  S    
C176  H114  S    
C178  H110  S    
C194  H156  S    
C28   H32   S    
C182  H127  S    
C185  C186  S    
C105  C112  A    
C63   C71   A    
C120  C148  A    
C77   C185  S    
C184  H124  S    
C188  C189  S    
C38   H21   S    
C108  C140  A    
C149  H50   S    
C4    O4    A    
O10   Zn5   S    
C177  H111  S    
C9    C141  A    
C9    C116  A    
C42   C152  S    
C5    O5    A    
C187  H129  S    
C158  H72   S    
O24   Zn8   S    
C191  C192  S    
C96   O24   A    
C17   C25   A    
C80   C88   A    
C196  H150  S    
C150  H48   S    
C180  H119  S    
C55   C98   S    
O5    Zn5   S    
C18   C82   S    
C186  H132  S    
C192  C193  S    
C175  H101  S    
C98   O44   A    
C126  C134  A    
C36   H27   S    
C160  H67   S    
C23   C36   A    
C2    O26   A    
O27   Zn8   S    
C118  C138  A    
C11   C143  A    
C40   H23   S    
O37   Zn9   S    
C96   C129  S    
C190  H137  S    
C43   C83   A    
C124  C139  A    
C69   C77   A    
C94   O14   A    
C127  C134  A    
C13   C145  A    
C43   C51   A    
C92   C125  S    
C49   C104  S    
C71   C79   A    
C163  H74   S    
C51   C102  S    
C62   C70   A    
C155  H65   S    
C108  C115  A    
C109  C111  A    
C149  C150  S    
C135  H3    S    
C66   C74   A    
C41   C149  S    
C49   C57   A    
C183  C184  S    
C124  C132  A    
C172  H95   S    
C46   C164  S    
C52   C60   A    
C59   C67   A    
C129  C135  A    
C53   C61   A    
C153  C154  S    
C166  H81   S    
C55   C63   A    
C95   C130  S    
C1    C65   S    
C56   C64   A    
C59   H39   S    
C14   H18   S    
C93   C132  S    
O36   Zn11  S    
C179  H120  S    
C44   C52   A    
C152  H57   S    
C77   C85   A    
O46   Zn10  S    
C15   H19   S    
O43   Zn12  S    
C19   C83   S    
C106  C111  A    
C103  O39   A    
C156  H62   S    
O26   Zn5   S    
C191  H149  S    
C90   O18   A    
C157  H61   S    
C195  C196  S    
C91   O19   A    
C131  C136  A    
C196  H152  S    
O17   Zn1   S    
C4    C68   S    
C174  C175  S    
C89   O17   A    
C171  H97   S    
C47   C87   A    
C183  H125  S    
C144  H8    S    
O21   Zn5   S    
C161  C162  S    
C143  H7    S    
C90   O10   A    
C90   C127  S    
C11   H15   S    
C142  H6    S    
C9    H13   S    
C33   H26   S    
C154  H53   S    
C60   C68   A    
C42   C50   A    
C181  H116  S    
C173  H107  S    
C20   C84   S    
C54   C99   S    
C92   O20   A    
O14   Zn1   S    
C67   C75   A    
C161  H78   S    
C102  O38   A    
C187  H131  S    
C168  H90   S    
O3    Zn3   S    
C152  H58   S    
C169  H89   S    
C153  H56   S    
C22   C30   A    
C119  C138  A    
O1    Zn1   S    
C80   C194  S    
C2    C66   S    
C8    O32   A    
C114  C116  A    
O32   Zn3   S    
C146  H10   S    
C68   C76   A    
C121  C139  A    
C122  C140  A    
C162  H76   S    
C72   C80   A    
C189  H139  S    
C141  H5    S    
C78   C188  S    
C17   C38   A    
C107  C139  A    
C110  C112  A    
C107  C116  A    
O12   Zn7   S    
C8    O8    A    
C19   C40   A    
C105  C137  A    
C174  H105  S    
C50   C103  S    
C51   C59   A    
C177  C178  S    
O33   Zn11  S    
C180  C181  S    
C158  C159  S    
O35   Zn12  S    
C170  H100  S    
C113  C115  A    
C117  C125  A    
C99   O35   A    
C151  H45   S    
C25   C33   A    
C119  C127  A    
C97   O33   A    
C101  O47   A    
C89   O9    A    
C157  H59   S    
C18   C26   A    
C167  H93   S    
C76   C84   A    
C179  C180  S    
C152  C153  S    
O34   Zn12  S    
C27   H31   S    
C76   C182  S    
C192  H146  S    
C162  C163  S    
C193  H145  S    
C25   H29   S    
C119  C147  A    
C117  C145  A    
C10   C142  A    
C108  C114  A    
C100  O36   A    
C5    C69   S    
C136  H4    S    
C4    O28   A    
C176  H113  S    
C182  C183  S    
C48   C88   A    
C178  H109  S    
C194  H155  S    
C185  H135  S    
C92   O12   A    
C151  H47   S    
C147  H11   S    
C169  H87   S    
O47   Zn10  S    
C15   C110  A    
C74   C82   A    
O30   Zn1   S    
C177  H112  S    
C53   C100  S    
C95   O15   A    
C165  H83   S    
C21   C85   S    
C8    C72   S    
C93   O21   A    
C50   C58   A    
O19   Zn3   S    
O25   Zn6   S    
C163  H73   S    
C20   C39   A    
C21   C34   A    
C54   C62   A    
C158  H71   S    
C2    O2    A    
C150  C151  S    
C121  C141  A    
C12   H16   S    
C13   H17   S    
C150  H49   S    
O31   Zn4   S    
C41   C81   A    
C46   C54   A    
C186  H133  S    
C188  H142  S    
C24   C88   S    
C73   C81   A    
O28   Zn7   S    
C159  H69   S    
C195  H153  S    
O41   Zn11  S    
C190  H136  S    
C191  H148  S    
C6    C70   S    
O9    Zn6   S    
C123  C131  A    
C121  C129  A    
C44   C84   A    
C175  H103  S    
C184  H122  S    
C193  H143  S    
C120  C128  A    
C43   C155  S    
C102  O48   A    
C94   C131  S    
C155  H64   S    
C196  H151  S    
C34   H25   S    
C15   C147  A    
C75   C83   A    
C167  C168  S    
C105  C109  A    
O6    Zn6   S    
C63   H43   S    
C17   C81   S    
C22   C86   S    
C172  H94   S    
C182  H128  S    
C106  C138  A    
C28   C36   A    
C3    O27   A    
C166  H80   S    
C29   C37   A    
C101  O37   A    
C120  C137  A    
O15   Zn4   S    
C91   O11   A    
C164  H86   S    
C89   C128  S    
C149  H51   S    
C5    O29   A    
C176  C177  S    
C91   C126  S    
C70   C78   A    
C95   O23   A    
C1    O1    A    
C194  C195  S    
C42   C82   A    
C93   O13   A    
C189  C190  S    
C65   C73   A    
C160  H66   S    
C29   H33   S    
O4    Zn4   S    
C156  H63   S    
C35   H28   S    
C6    O30   A    
C79   C191  S    
C18   C37   A    
C1    O25   A    
C160  H68   S    
C184  H123  S    
C7    C71   S    
C104  O40   A    
C171  H98   S    
C180  H118  S    
C134  H2    S    
C145  H9    S    
C183  H126  S    
C11   C114  A    
C186  C187  S    
C26   C34   A    
C164  C165  S    
C19   C27   A    
C154  H52   S    
O7    Zn7   S    
C190  H138  S    
C78   C86   A    
C32   C40   A    
C173  H106  S    
C23   C87   S    
O45   Zn9   S    
C130  C136  A    
C58   C66   A    
C163  H75   S    
O29   Zn2   S    
C187  H130  S    
C48   C170  S    
C168  H91   S    
C14   C111  A    
C169  H88   S    
C24   C35   A    
C118  C146  A    
C133  H1    S    
O42   Zn12  S    
C37   H22   S    
C6    O6    A    
C73   C173  S    
C117  C137  A    
C123  C140  A    
C12   C144  A    
C172  H96   S    
C45   C85   A    
C162  H77   S    
C189  H140  S    
C103  O45   A    
C166  H82   S    
C155  C156  S    
C60   H40   S    
O22   Zn6   S    
C179  H121  S    
C165  C166  S    
C170  H99   S    
C122  C142  A    
O44   Zn11  S    
O13   Zn2   S    
C75   C179  S    
C47   C55   A    
C12   C113  A    
C106  C110  A    
C125  C133  A    
C48   C56   A    
C22   C33   A    
O2    Zn2   S    
C31   H35   S    
C45   C161  S    
C32   H36   S    
C3    C67   S    
C167  H92   S    
O40   Zn9   S    
C74   C176  S    
C14   C146  A    
C16   C148  A    
C161  H79   S    
O20   Zn4   S    
C192  H147  S    
C128  C133  A    
C193  H144  S    
C16   H20   S    
C132  C135  A    
C31   C39   A    
C64   C72   A    
C7    O7    A    
C154  H54   S    
C45   C53   A    
C181  H117  S    
C39   H24   S    
C123  C143  A    
C124  C144  A    
O16   Zn3   S    
C118  C126  A    
C98   O34   A    
C178  H108  S    
O38   Zn10  S    
O39   Zn10  S    
C185  H134  S    
C122  C130  A    
C10   C115  A    
C46   C86   A    
