data_mof_unit_67258.cif
_audit_creation_date              2013-03-05T16:01:28-0500
_audit_creation_method            fapswitch 2.2
_symmetry_space_group_name_H-M    P1
_symmetry_Int_Tables_number       1
_space_group_crystal_system       triclinic
_cell_length_a                    20.102805
_cell_length_b                    20.532829
_cell_length_c                    8.627624
_cell_angle_alpha                 89.964635
_cell_angle_beta                  92.205055
_cell_angle_gamma                 89.994285
_cell_volume                      3558.56473871

loop_
_atom_site_label
_atom_site_type_symbol
_atom_site_description
_atom_site_fract_x
_atom_site_fract_y
_atom_site_fract_z
_atom_type_partial_charge
P1    P     P_3+3 0.136530 0.426510 0.931350 0.732007
P2    P     P_3+3 0.136530 0.573490 0.431350 0.730675
P3    P     P_3+3 0.636530 0.926510 0.931350 0.730000
P4    P     P_3+3 0.636530 0.073490 0.431350 0.730349
O1    O     O_2   0.130070 0.404060 0.104920 -0.264555
O2    O     O_2   0.130070 0.595940 0.604920 -0.264507
O3    O     O_2   0.630070 0.904060 0.104920 -0.271600
O4    O     O_2   0.630070 0.095940 0.604920 -0.265474
O5    O     O_3   0.075780 0.466370 0.861070 -0.275318
O6    O     O_3   0.075780 0.533630 0.361070 -0.273652
O7    O     O_3   0.575780 0.966370 0.861070 -0.274259
O8    O     O_3   0.575780 0.033630 0.361070 -0.274943
O9    O     O_3   0.022320 0.344950 0.359800 -0.358655
O10   O     O_3   0.022320 0.655050 0.859800 -0.362873
O11   O     O_3   0.522320 0.844950 0.359800 -0.345028
O12   O     O_3   0.522320 0.155050 0.859800 -0.362433
O13   O     O_2   0.133300 0.291650 0.261618 -0.281191
O14   O     O_2   0.134635 0.703838 0.759222 -0.263393
O15   O     O_2   0.636064 0.799841 0.251501 -0.261106
O16   O     O_2   0.634032 0.204964 0.758549 -0.271492
O17   O     O_3   0.209787 0.473995 0.931562 -0.550695
O18   O     O_3   0.209320 0.525355 0.432479 -0.545526
O19   O     O_3   0.709842 0.973858 0.931296 -0.543812
O20   O     O_3   0.709804 0.025936 0.432190 -0.549047
O21   O     O_3   0.045636 0.207009 0.360146 -0.537135
O22   O     O_3   0.051303 0.793092 0.846304 -0.498954
O23   O     O_3   0.550173 0.712227 0.327167 -0.525145
O24   O     O_3   0.549390 0.293088 0.848476 -0.516247
C1    C     C_3   0.946014 0.141453 0.330936 1.012644
C2    C     C_3   0.956105 0.864866 0.821735 1.027816
C3    C     C_3   0.459632 0.637811 0.373356 0.941997
C4    C     C_3   0.452285 0.362682 0.827991 1.029027
H1    H     H_    0.951141 0.129846 0.207010 0.050134
H2    H     H_    0.953676 0.870800 0.694619 0.071751
H3    H     H_    0.448927 0.627407 0.249827 0.045516
H4    H     H_    0.452820 0.371250 0.701631 0.025375
P5    P     P_3+3 0.863410 0.426100 0.379280 0.756710
P6    P     P_3+3 0.863410 0.573900 0.879280 0.757041
P7    P     P_3+3 0.363410 0.926100 0.379280 0.756917
P8    P     P_3+3 0.363410 0.073900 0.879280 0.758419
P9    P     P_3+3 0.915982 0.284766 0.925614 0.781281
P10   P     P_3+3 0.914714 0.714150 0.426718 0.746559
P11   P     P_3+3 0.414882 0.784970 0.932796 0.695925
P12   P     P_3+3 0.414742 0.214181 0.427453 0.747085
O25   O     O_2   0.869860 0.403670 0.205810 -0.217356
O26   O     O_2   0.869860 0.596330 0.705810 -0.219900
O27   O     O_2   0.369860 0.903670 0.205810 -0.211618
O28   O     O_2   0.369860 0.096330 0.705810 -0.218380
O29   O     O_3   0.977590 0.344880 0.951200 -0.246489
O30   O     O_3   0.977590 0.655120 0.451200 -0.290162
O31   O     O_3   0.477590 0.844880 0.951200 -0.302395
O32   O     O_3   0.477590 0.155120 0.451200 -0.292861
O33   O     O_2   0.865731 0.295904 0.054310 -0.249069
O34   O     O_2   0.865202 0.703720 0.557246 -0.246614
O35   O     O_2   0.362478 0.803464 0.050992 -0.235638
O36   O     O_2   0.364978 0.203161 0.557119 -0.244217
O37   O     O_3   0.789914 0.472469 0.375740 -0.556084
O38   O     O_3   0.789822 0.527680 0.876793 -0.556683
O39   O     O_3   0.289614 0.971983 0.377499 -0.560421
O40   O     O_3   0.290386 0.026895 0.873954 -0.547512
O41   O     O_3   0.948959 0.205964 0.965550 -0.493751
O42   O     O_3   0.947590 0.793065 0.462195 -0.495118
O43   O     O_3   0.446506 0.710171 0.009592 -0.563605
O44   O     O_3   0.447210 0.293135 0.464884 -0.492240
C5    C     C_3   0.017689 0.200704 0.933375 0.874398
C6    C     C_3   0.015546 0.799219 0.423616 0.864791
C7    C     C_3   0.485033 0.675886 0.902025 0.993303
C8    C     C_3   0.515135 0.299811 0.426587 0.880335
C9    C     C_3   0.042104 0.128452 0.962729 1.275148
C10   C     C_3   0.035513 0.872965 0.426866 1.380424
C11   C     C_3   0.509684 0.609647 0.968768 1.301536
C12   C     C_3   0.534920 0.373565 0.433072 1.378208
C13   C     C_3   0.798237 0.466046 0.813348 1.293599
C14   C     C_3   0.798701 0.534282 0.313327 1.281545
C15   C     C_3   0.300450 0.964815 0.813876 1.276789
C16   C     C_3   0.297956 0.033705 0.313990 1.289170
C17   C     C_3   0.729681 0.434633 0.791071 1.607028
C18   C     C_3   0.730187 0.565662 0.289099 1.632009
C19   C     C_3   0.232441 0.932787 0.786731 1.617257
C20   C     C_3   0.229488 0.065320 0.292248 1.616763
Ba1   Ba    Ba6+2 0.999980 0.452130 0.155200 1.931706
Ba2   Ba    Ba6+2 0.999980 0.547870 0.655200 1.926521
Ba3   Ba    Ba6+2 0.499980 0.952130 0.155200 1.943453
Ba4   Ba    Ba6+2 0.499980 0.047870 0.655200 1.927348
C21   C     C_3   0.204157 0.533287 0.009523 1.110967
C22   C     C_3   0.202944 0.465938 0.509776 1.121552
C23   C     C_3   0.704329 0.033198 0.009109 1.119762
C24   C     C_3   0.704169 0.966592 0.510068 1.089906
C25   C     C_3   0.273369 0.555250 0.066943 1.359370
C26   C     C_3   0.271851 0.443897 0.569177 1.308508
C27   C     C_3   0.773575 0.054765 0.066935 1.334980
C28   C     C_3   0.773336 0.944710 0.568408 1.355285
H5    H     H_    0.269688 0.601861 0.131381 -0.211925
H6    H     H_    0.267690 0.397839 0.635706 -0.194320
H7    H     H_    0.769849 0.100950 0.133016 -0.203642
H8    H     H_    0.769483 0.898235 0.633476 -0.174625
O45   O     O_3   0.924190 0.533610 0.949240 -0.286761
O46   O     O_3   0.924190 0.466390 0.449240 -0.290785
O47   O     O_3   0.424190 0.033610 0.949240 -0.289565
O48   O     O_3   0.424190 0.966390 0.449240 -0.293540
P13   P     P_3+3 0.084220 0.714728 0.887694 0.687525
P14   P     P_3+3 0.082669 0.284318 0.391217 0.658882
P15   P     P_3+3 0.583732 0.215070 0.887680 0.677071
P16   P     P_3+3 0.586285 0.787424 0.380169 0.692519
C29   C     C_3   0.975070 0.208918 0.367903 1.235494
C30   C     C_3   0.981405 0.796234 0.863648 1.176393
C31   C     C_3   0.486078 0.707590 0.389028 1.249645
C32   C     C_3   0.479446 0.294625 0.866560 1.243815
C33   C     C_R   0.247135 0.307154 0.998387 0.728984
C34   C     C_R   0.246481 0.692837 0.500329 0.719066
C35   C     C_R   0.745663 0.806034 0.998614 0.714786
C36   C     C_R   0.746522 0.193137 0.498894 0.732281
C37   C     C_R   0.152703 0.348848 0.822503 0.172139
C38   C     C_R   0.153768 0.650456 0.320758 0.175500
C39   C     C_R   0.652209 0.848421 0.821177 0.158148
C40   C     C_R   0.653430 0.150649 0.320589 0.172161
C41   C     C_R   0.116181 0.340739 0.682029 0.389047
C42   C     C_R   0.119147 0.657422 0.177325 0.299317
C43   C     C_R   0.617173 0.841187 0.677907 0.362074
C44   C     C_R   0.618665 0.157621 0.177272 0.301387
C45   C     C_R   0.127810 0.289058 0.582582 -0.086308
C46   C     C_R   0.130190 0.709699 0.078713 -0.080958
C47   C     C_R   0.629153 0.789640 0.576952 -0.138896
C48   C     C_R   0.629630 0.209941 0.078619 -0.086307
C49   C     C_R   0.173839 0.241229 0.626860 0.813844
C50   C     C_R   0.175420 0.758009 0.124850 0.833255
C51   C     C_R   0.673952 0.740988 0.623768 0.761826
C52   C     C_R   0.674752 0.258332 0.124553 0.824732
C53   C     C_R   0.210988 0.245695 0.769185 -0.490745
C54   C     C_R   0.211771 0.753790 0.268644 -0.507933
C55   C     C_R   0.709833 0.744730 0.768466 -0.410468
C56   C     C_R   0.711180 0.254206 0.268111 -0.496451
C57   C     C_R   0.203471 0.301426 0.865481 -0.393072
C58   C     C_R   0.203812 0.698231 0.365421 -0.381097
C59   C     C_R   0.702071 0.800320 0.865362 -0.322605
C60   C     C_R   0.703430 0.198576 0.364844 -0.377356
C61   C     C_R   0.797427 0.699089 0.947852 -0.327240
C62   C     C_R   0.797827 0.300442 0.448345 -0.322060
C63   C     C_R   0.298182 0.199698 0.948214 -0.334960
C64   C     C_R   0.298948 0.799463 0.448448 -0.322116
C65   C     C_R   0.788591 0.753900 0.046237 -0.332334
C66   C     C_R   0.789113 0.245497 0.546739 -0.301889
C67   C     C_R   0.289695 0.254732 0.046261 -0.325856
C68   C     C_R   0.289455 0.744959 0.547698 -0.296044
C69   C     C_R   0.847837 0.651340 0.990958 0.185318
C70   C     C_R   0.847524 0.348764 0.492043 0.187571
C71   C     C_R   0.347722 0.151240 0.991981 0.189230
C72   C     C_R   0.349742 0.846912 0.490509 0.192261
C73   C     C_R   0.882811 0.658300 0.135465 0.085638
C74   C     C_R   0.881818 0.342248 0.637460 0.107404
C75   C     C_R   0.382185 0.157745 0.137193 0.088579
C76   C     C_R   0.387144 0.837376 0.632083 0.188765
C77   C     C_R   0.868222 0.708252 0.237637 0.088873
C78   C     C_R   0.868562 0.291229 0.738005 0.104767
C79   C     C_R   0.368353 0.208337 0.238442 0.085764
C80   C     C_R   0.371436 0.788097 0.736917 0.096731
C81   C     C_R   0.821183 0.755150 0.194812 0.731604
C82   C     C_R   0.821954 0.244011 0.694912 0.733806
C83   C     C_R   0.322206 0.255922 0.194728 0.752829
C84   C     C_R   0.321120 0.744093 0.697191 0.713930
C85   C     C_R   0.755085 0.694421 0.812782 0.972168
C86   C     C_R   0.756056 0.304718 0.312567 0.945400
C87   C     C_R   0.256234 0.195386 0.812860 0.955208
C88   C     C_R   0.256733 0.804163 0.313365 0.945796
F1    F     F_    0.947939 0.252459 0.262191 -0.694806
F2    F     F_    0.948672 0.752434 0.766274 -0.711384
F3    F     F_    0.441869 0.748375 0.309607 -0.701242
F4    F     F_    0.447489 0.250787 0.768047 -0.715062
F5    F     F_    0.691563 0.469763 0.683476 -0.617012
F6    F     F_    0.692981 0.531091 0.178934 -0.624715
F7    F     F_    0.196105 0.966489 0.673388 -0.608081
F8    F     F_    0.191184 0.030527 0.184448 -0.593415
F9    F     F_    0.735640 0.371393 0.739069 -0.751979
F10   F     F_    0.736329 0.629201 0.239307 -0.717338
F11   F     F_    0.239678 0.869045 0.739648 -0.754536
F12   F     F_    0.235702 0.128632 0.240715 -0.756657
F13   F     F_    0.697816 0.434196 0.930270 -0.539166
F14   F     F_    0.697214 0.565206 0.426845 -0.547502
F15   F     F_    0.197964 0.933724 0.922379 -0.524006
F16   F     F_    0.197724 0.065637 0.431573 -0.533019
F17   F     F_    0.165571 0.526385 0.135805 -0.714705
F18   F     F_    0.163541 0.472712 0.634669 -0.721413
F19   F     F_    0.665587 0.026522 0.135265 -0.716148
F20   F     F_    0.665208 0.973297 0.635705 -0.716802
O49   O     O_3   0.178062 0.580740 0.908062 -0.743614
H9    H     H_    0.129854 0.571961 0.894249 0.377047
O50   O     O_3   0.177237 0.418680 0.407387 -0.744801
H10   H     H_    0.128816 0.426707 0.395190 0.373562
O51   O     O_3   0.678519 0.080760 0.907539 -0.743723
H11   H     H_    0.630246 0.072255 0.893894 0.376228
O52   O     O_3   0.678398 0.919193 0.408348 -0.744104
H12   H     H_    0.630261 0.928156 0.393506 0.376163
F21   F     F_    0.301890 0.508853 0.164847 -0.623350
F22   F     F_    0.300237 0.491009 0.665077 -0.656748
F23   F     F_    0.801942 0.007604 0.162912 -0.643165
F24   F     F_    0.801629 0.991281 0.665969 -0.608784
F25   F     F_    0.313771 0.564608 0.942752 -0.606835
F26   F     F_    0.312747 0.433350 0.446309 -0.571273
F27   F     F_    0.814127 0.064938 0.943263 -0.561968
F28   F     F_    0.814152 0.935063 0.444990 -0.574678
O53   O     O_3   0.955105 0.225325 0.515692 -0.827083
H13   H     H_    0.971555 0.269475 0.538992 0.294272
O54   O     O_3   0.965319 0.784227 0.016441 -0.782386
H14   H     H_    0.966574 0.736613 0.030141 0.284575
O55   O     O_3   0.488631 0.724839 0.544890 -0.806300
H15   H     H_    0.526663 0.699532 0.590269 0.325351
O56   O     O_3   0.463805 0.281456 0.019099 -0.746878
H16   H     H_    0.467505 0.233966 0.032582 0.271108
O57   O     O_3   0.878108 0.140484 0.361398 -0.799652
H17   H     H_    0.863213 0.094755 0.346875 0.380350
O58   O     O_3   0.891336 0.874405 0.872452 -0.765116
H18   H     H_    0.895757 0.890490 0.980756 0.382462
O59   O     O_3   0.400501 0.631282 0.452288 -0.767791
H19   H     H_    0.384442 0.586255 0.431984 0.387941
O60   O     O_3   0.386301 0.367731 0.873330 -0.786953
H20   H     H_    0.372271 0.413230 0.851354 0.388793
O61   O     O_3   0.094987 0.111832 0.867624 -0.614627
H21   H     H_    0.132591 0.141590 0.893310 0.264137
O62   O     O_3   0.085447 0.886555 0.321198 -0.587044
H22   H     H_    0.125691 0.861427 0.353854 0.265160
O63   O     O_3   0.541969 0.574268 0.853774 -0.588538
H23   H     H_    0.585590 0.595478 0.837966 0.358285
O64   O     O_3   0.585189 0.388016 0.328863 -0.599139
H24   H     H_    0.625345 0.362611 0.360866 0.265581
F29   F     F_    0.072696 0.387055 0.634240 -0.678084
F30   F     F_    0.075138 0.611402 0.130090 -0.673260
F31   F     F_    0.574954 0.888450 0.629373 -0.664436
F32   F     F_    0.574821 0.111472 0.129899 -0.674796
F33   F     F_    0.183505 0.191404 0.526974 -0.534786
F34   F     F_    0.184946 0.808192 0.025762 -0.526075
F35   F     F_    0.684135 0.691355 0.523725 -0.541845
F36   F     F_    0.684118 0.308503 0.025360 -0.531366
F37   F     F_    0.805251 0.800118 0.302879 -0.614076
F38   F     F_    0.807040 0.198202 0.801965 -0.615369
F39   F     F_    0.307139 0.301650 0.301718 -0.609182
F40   F     F_    0.300525 0.702829 0.808961 -0.646218
O65   O     O_3   0.931876 0.615563 0.180627 -0.630046
H25   H     H_    0.964531 0.618833 0.099167 0.355798
O66   O     O_3   0.929551 0.386027 0.684354 -0.625915
H26   H     H_    0.962917 0.383261 0.604507 0.359299
O67   O     O_3   0.430251 0.114138 0.183535 -0.629048
H27   H     H_    0.463915 0.117624 0.104341 0.354510
O68   O     O_3   0.436964 0.879273 0.675976 -0.638719
H28   H     H_    0.466002 0.880024 0.587417 0.374222
O69   O     O_3   0.251401 0.365573 0.075792 -0.622960
H29   H     H_    0.299136 0.375531 0.096916 0.405414
O70   O     O_3   0.249572 0.634720 0.579689 -0.629881
H30   H     H_    0.296439 0.625695 0.611949 0.392118
O71   O     O_3   0.749500 0.864348 0.076535 -0.623829
H31   H     H_    0.796927 0.874183 0.101079 0.383343
O72   O     O_3   0.750806 0.134725 0.576519 -0.625472
H32   H     H_    0.798543 0.124620 0.597210 0.400916
F41   F     F_    0.753746 0.639276 0.727137 -0.583463
F42   F     F_    0.754430 0.359952 0.227105 -0.579783
F43   F     F_    0.254404 0.140079 0.727816 -0.575257
F44   F     F_    0.254908 0.859530 0.228457 -0.578430
F45   F     F_    0.979234 0.094769 0.420738 -0.548925
F46   F     F_    0.998866 0.911773 0.885066 -0.523233
F47   F     F_    0.506473 0.593890 0.432447 -0.575774
F48   F     F_    0.491009 0.409411 0.904498 -0.533102
O73   O     O_3   0.054345 0.243055 0.030719 -0.705782
H33   H     H_    0.100847 0.242122 0.996967 0.268491
O74   O     O_3   0.055674 0.763750 0.530509 -0.748646
H34   H     H_    0.101917 0.765610 0.494891 0.260777
O75   O     O_3   0.542530 0.711797 0.868679 -0.810366
H35   H     H_    0.529251 0.752098 0.813419 0.314832
O76   O     O_3   0.555367 0.263705 0.531951 -0.751541
H36   H     H_    0.601570 0.265846 0.496124 0.259718
O77   O     O_3   0.027549 0.218105 0.778747 -0.838178
H37   H     H_    0.017011 0.179252 0.714373 0.373643
O78   O     O_3   0.025055 0.777046 0.272965 -0.793070
H38   H     H_    0.028590 0.729234 0.275975 0.294524
O79   O     O_3   0.446131 0.662439 0.767395 -0.743366
H39   H     H_    0.406376 0.637792 0.798607 0.389940
O80   O     O_3   0.524679 0.278782 0.275009 -0.784183
H40   H     H_    0.528738 0.230969 0.276461 0.289476
O81   O     O_3   0.061347 0.117354 0.118893 -0.674176
H41   H     H_    0.104736 0.139162 0.140476 0.342967
O82   O     O_3   0.056516 0.893722 0.576222 -0.684336
H42   H     H_    0.100757 0.874283 0.601818 0.332365
O83   O     O_3   0.553763 0.619690 0.096644 -0.743348
H43   H     H_    0.564880 0.575957 0.139303 0.415748
O84   O     O_3   0.555385 0.393311 0.583591 -0.696714
H44   H     H_    0.599670 0.373933 0.608991 0.334537
F49   F     F_    0.989892 0.086705 0.924857 -0.517580
F50   F     F_    0.980272 0.909546 0.381339 -0.519067
F51   F     F_    0.455781 0.573039 0.013726 -0.617175
F52   F     F_    0.479724 0.410305 0.388037 -0.519893
F53   F     F_    0.826418 0.471635 0.672397 -0.705805
F54   F     F_    0.827922 0.529134 0.173559 -0.704900
F55   F     F_    0.331468 0.969240 0.676156 -0.715711
F56   F     F_    0.325908 0.028308 0.172650 -0.704230
F57   F     F_    0.837801 0.428093 0.911445 -0.652985
F58   F     F_    0.837630 0.572015 0.413056 -0.650401
F59   F     F_    0.338625 0.927875 0.916641 -0.647550
F60   F     F_    0.337720 0.071538 0.411784 -0.651199

loop_
_geom_bond_atom_site_label_1
_geom_bond_atom_site_label_2
_geom_bond_distance
_ccdc_geom_bond_type
C34   O70   1.375628 S    
C62   C66   1.426334 A    
C24   O52   1.397116 S    
C9    F49   1.384678 S    
O54   H14   0.984911 S    
C14   F54   1.365650 S    
P1    O17   1.766206 S    
C11   O63   1.408394 S    
C1    H1    1.104247 S    
O6    Ba1   2.841300 S    
C11   F51   1.386272 S    
O53   H13   0.983221 S    
P8    Ba4   3.459781 S    
P3    O19   1.765639 S    
O66   H26   0.981478 S    
C12   F52   1.384763 S    
O42   C6    1.424051 S    
P9    O41   1.777006 S    
P4    O4    1.577228 D    
C35   C59   1.423402 A    
C64   C72   1.447637 A    
P8    O47   1.576082 S    
C85   F41   1.352139 S    
Ba1   Ba2   4.741714 S    
O49   H9    0.988465 S    
O21   C29   1.423267 S    
O72   H32   0.991243 S    
O16   P15   1.547143 D    
P2    O2    1.577228 D    
O59   H19   0.992757 S    
C42   F30   1.347050 S    
C41   F29   1.345433 S    
O71   H31   0.989531 S    
C15   C19   1.527163 S    
Ba1   O45   2.839950 S    
P2    Ba2   3.456709 S    
P1    O1    1.576695 D    
C54   C88   1.417568 A    
C4    H4    1.104646 S    
C61   C69   1.448050 A    
C50   F34   1.356759 S    
C36   C60   1.422381 A    
C40   C60   1.447643 A    
C78   C82   1.389209 A    
P3    O3    1.576695 D    
P6    O45   1.576082 S    
O22   P13   1.770664 S    
C23   F19   1.369345 S    
O73   H33   0.989950 S    
P4    O20   1.766935 S    
O21   P14   1.769537 S    
C24   F20   1.368519 S    
C72   C76   1.422887 A    
Ba1   O46   3.023412 S    
P15   C48   1.859832 S    
C36   C66   1.425765 A    
O78   H38   0.984530 S    
O9    Ba1   2.845134 S    
O23   P16   1.759434 S    
C28   H8    1.111069 S    
C27   F23   1.382440 S    
C53   C87   1.417504 A    
C82   F38   1.359402 S    
C13   F57   1.379652 S    
O67   H27   0.982595 S    
C42   C46   1.392388 A    
C3    C31   1.532504 S    
C19   F7    1.383027 S    
O32   Ba4   2.843207 S    
C73   C77   1.391397 A    
C8    O76   1.404485 S    
C15   F59   1.377316 S    
C6    O78   1.397513 S    
O65   H25   0.982266 S    
C30   O54   1.391224 S    
P6    O38   1.757085 S    
C4    O60   1.401148 S    
C29   O53   1.392923 S    
O64   H24   0.991256 S    
C50   C54   1.417995 A    
C10   F50   1.384771 S    
P4    Ba4   3.456709 S    
P7    C72   1.912740 S    
P2    O18   1.765435 S    
C21   F17   1.368837 S    
O82   H42   0.991841 S    
C75   C79   1.392562 A    
P5    C70   1.895278 S    
P4    O8    1.572503 S    
P14   C45   1.855739 S    
C5    O77   1.402307 S    
O75   H35   0.986392 S    
P10   O42   1.772370 S    
C14   C18   1.527535 S    
C86   F42   1.352049 S    
O5    Ba2   2.839828 S    
C48   C52   1.392885 A    
C27   F27   1.383250 S    
C7    O79   1.402689 S    
P12   O32   1.757347 S    
O74   H34   0.990997 S    
C32   F4    1.379990 S    
C33   O69   1.374317 S    
C22   O50   1.398225 S    
C52   F36   1.356611 S    
C18   F14   1.382902 S    
O81   H41   0.991785 S    
P6    Ba2   3.459781 S    
C16   F56   1.366722 S    
C25   H5    1.110993 S    
Ba2   O46   2.841423 S    
O22   C30   1.420277 S    
C88   F44   1.351763 S    
C63   C67   1.426129 A    
C1    O57   1.400191 S    
C66   C82   1.416351 A    
C32   O56   1.391188 S    
O2    Ba2   2.844081 S    
C52   C56   1.416885 A    
P9    O29   1.756625 S    
P5    O46   1.576601 S    
C26   H6    1.110793 S    
C51   C55   1.419702 A    
C81   F37   1.359546 S    
C21   O49   1.397955 S    
P5    O37   1.756862 S    
C31   F3    1.383090 S    
P6    O26   1.575731 D    
C23   C27   1.526335 S    
C2    H2    1.102587 S    
C43   F31   1.345140 S    
O56   H16   0.984399 S    
C11   O83   1.403566 S    
C76   C80   1.400900 A    
C4    F48   1.386954 S    
P10   C77   1.852658 S    
P1    O5    1.571990 S    
C20   F12   1.380865 S    
C76   O68   1.363047 S    
C15   F55   1.365927 S    
C22   C26   1.526856 S    
O31   Ba3   2.844959 S    
C2    O58   1.403226 S    
P16   C47   1.874738 S    
C3    H3    1.100201 S    
C21   C25   1.527081 S    
C55   C85   1.418929 A    
O10   P13   1.756547 S    
O11   Ba3   2.845134 S    
O4    Ba4   2.844081 S    
O61   H21   0.990587 S    
O55   H15   0.992193 S    
C12   O64   1.409695 S    
C79   C83   1.389217 A    
O17   C21   1.397929 S    
P12   O44   1.772876 S    
C10   O82   1.406847 S    
O28   Ba4   2.847970 S    
O8    Ba3   2.841300 S    
C44   C48   1.393000 A    
C17   F13   1.382722 S    
Ba3   O47   2.839950 S    
O14   P13   1.546743 D    
Ba4   O48   2.841423 S    
O37   C14   1.392313 S    
C46   C50   1.393534 A    
P5    Ba1   3.459497 S    
C34   C68   1.425575 A    
O13   P14   1.547985 D    
P11   C80   1.873291 S    
P6    C69   1.892000 S    
C45   C49   1.392388 A    
O63   H23   0.993190 S    
O41   C5    1.423814 S    
C75   O67   1.365599 S    
O1    Ba1   2.844085 S    
O15   P16   1.543997 D    
P12   O36   1.545752 D    
O12   P15   1.754592 S    
O12   Ba4   2.846888 S    
Ba3   Ba4   4.741714 S    
C26   F22   1.382284 S    
O23   C31   1.416701 S    
C8    C12   1.566258 S    
P7    O39   1.756851 S    
C51   F35   1.356520 S    
O57   H17   0.992109 S    
C38   C58   1.446957 A    
C33   C67   1.425920 A    
C12   O84   1.406990 S    
C24   C28   1.527844 S    
C87   F43   1.352146 S    
O20   C24   1.397821 S    
P9    O33   1.546674 D    
C38   C42   1.403468 A    
C30   F2    1.380613 S    
O43   C7    1.418700 S    
P10   O30   1.757894 S    
C53   C57   1.425952 A    
C25   F21   1.382542 S    
C63   C71   1.447332 A    
C14   F58   1.379191 S    
C65   C81   1.417214 A    
O80   H40   0.985154 S    
O27   Ba3   2.847960 S    
Ba3   O48   3.023412 S    
C49   C53   1.415461 A    
C4    C32   1.531955 S    
O84   H44   0.991806 S    
O11   P16   1.749744 S    
Ba2   O45   3.023138 S    
C9    O61   1.409721 S    
C34   C58   1.423297 A    
C68   C84   1.416264 A    
C16   C20   1.526729 S    
C20   F8    1.383515 S    
P5    O25   1.576263 D    
C6    O74   1.404800 S    
P2    O6    1.572503 S    
O44   C8    1.423799 S    
C47   C51   1.394064 A    
O62   H22   0.991105 S    
P11   O43   1.779916 S    
O30   Ba2   2.843207 S    
C36   O72   1.374400 S    
P7    O27   1.576263 D    
P9    C78   1.851275 S    
O3    Ba3   2.844085 S    
C37   C41   1.402648 A    
P11   O35   1.541742 D    
O52   H12   0.988491 S    
P8    O28   1.575731 D    
C44   F32   1.347104 S    
C56   C60   1.426306 A    
C9    O81   1.405832 S    
C1    C29   1.532383 S    
C19   F11   1.379965 S    
C17   F9    1.380766 S    
C70   C74   1.414369 A    
P8    C71   1.895284 S    
C2    F46   1.389168 S    
Ba4   O47   3.023138 S    
C83   F39   1.359378 S    
C55   C59   1.427304 A    
P4    C40   1.887271 S    
C5    O73   1.399269 S    
C64   C68   1.426013 A    
O69   H29   0.991216 S    
C28   F24   1.382252 S    
O26   Ba2   2.847970 S    
C3    F47   1.386440 S    
C13   F53   1.365944 S    
O70   H30   0.989547 S    
O9    P14   1.751892 S    
C16   F60   1.379620 S    
C3    O59   1.398899 S    
C80   C84   1.389545 A    
C43   C47   1.397900 A    
O7    Ba4   2.839828 S    
C35   O71   1.374257 S    
C25   F25   1.382531 S    
C26   F26   1.383400 S    
O29   Ba1   2.844959 S    
O40   C15   1.394005 S    
C49   F33   1.356831 S    
P13   C46   1.860993 S    
C7    O75   1.409952 S    
C23   O51   1.398094 S    
C62   C70   1.447871 A    
O76   H36   0.991082 S    
C69   C73   1.414887 A    
P12   C79   1.851089 S    
C63   C87   1.416691 A    
O83   H43   0.992463 S    
P7    Ba3   3.459497 S    
O50   H10   0.988837 S    
C62   C86   1.417495 A    
P3    C39   1.896982 S    
P10   O34   1.546206 D    
C61   C85   1.419692 A    
P2    C38   1.884564 S    
O24   P15   1.771528 S    
P11   O31   1.764268 S    
P7    O48   1.576601 S    
C20   F16   1.382656 S    
C8    O80   1.397663 S    
C39   C59   1.447574 A    
O24   C32   1.421006 S    
C5    C9    1.579772 S    
C71   C75   1.414514 A    
C10   O62   1.409539 S    
C39   C43   1.406866 A    
C18   F10   1.380335 S    
C29   F1    1.374477 S    
C18   F6    1.383073 S    
C7    C11   1.550450 S    
C67   C83   1.415670 A    
O18   C22   1.398261 S    
C33   C57   1.421928 A    
C77   C81   1.389405 A    
O51   H11   0.988605 S    
C54   C58   1.425917 A    
C1    F45   1.387174 S    
C31   O55   1.389826 S    
P3    O7    1.571990 S    
P1    C37   1.885639 S    
C61   C65   1.425264 A    
C27   H7    1.110791 S    
O58   H18   0.992009 S    
C37   C57   1.448239 A    
C40   C44   1.403945 A    
O60   H20   0.991915 S    
C19   F15   1.383053 S    
P3    Ba3   3.456992 S    
C6    C10   1.566537 S    
C13   C17   1.527175 S    
C17   F5    1.383320 S    
C74   O66   1.364993 S    
C74   C78   1.391977 A    
C35   C65   1.425278 A    
C28   F28   1.383378 S    
P8    O40   1.756061 S    
C22   F18   1.368832 S    
O10   Ba2   2.846888 S    
C73   O65   1.365489 S    
O19   C23   1.397950 S    
C41   C45   1.390442 A    
O25   Ba1   2.847960 S    
C56   C86   1.417990 A    
O77   H37   0.990589 S    
P1    Ba1   3.456992 S    
O39   C16   1.393080 S    
C64   C88   1.418273 A    
C2    C30   1.536365 S    
O68   H28   0.979332 S    
O38   C13   1.392021 S    
C84   F40   1.359749 S    
O79   H39   0.991871 S    
