data_mof_unit_52258.cif
_audit_creation_date              2012-12-10T20:31:05-0500
_audit_creation_method            fapswitch 2.2
_symmetry_space_group_name_H-M    P1
_symmetry_Int_Tables_number       1
_space_group_crystal_system       triclinic
_cell_length_a                    15.004879
_cell_length_b                    10.680504
_cell_length_c                    9.851359
_cell_angle_alpha                 90.004161
_cell_angle_beta                  90.180605
_cell_angle_gamma                 90.08254
_cell_volume                      1578.76605784

loop_
_atom_site_label
_atom_site_type_symbol
_atom_type_description
_atom_site_fract_x
_atom_site_fract_y
_atom_site_fract_z
_atom_type_partial_charge
C1    C     C_R   0.502317 0.259937 0.500035 0.886510
C2    C     C_R   0.906894 0.471805 0.379561 0.118288
C3    C     C_R   0.954201 0.550188 0.742252 -0.216349
C4    C     C_R   0.046823 0.550756 0.742051 -0.219076
C5    C     C_R   0.092938 0.524878 0.621975 0.119763
C6    C     C_R   0.046241 0.497774 0.500950 0.061284
C7    C     C_R   0.092282 0.470969 0.379797 0.121405
C8    C     C_R   0.045623 0.444572 0.259863 -0.219383
C9    C     C_R   0.953034 0.445246 0.259682 -0.217128
C10   C     C_R   0.185147 0.526015 0.620528 -0.261709
C11   C     C_R   0.230609 0.499127 0.500301 -0.073225
C12   C     C_R   0.326556 0.499788 0.499953 0.887582
C13   C     C_R   0.184421 0.471193 0.380729 -0.263684
C14   C     C_R   0.513118 0.063919 0.623353 0.055597
C15   C     C_R   0.515578 0.128546 0.500765 -0.099330
C16   C     C_R   0.534379 0.064806 0.379748 -0.214806
C17   C     C_R   0.534623 0.935357 0.379816 -0.187137
C18   C     C_R   0.516000 0.871501 0.500880 -0.180044
C19   C     C_R   0.513594 0.936154 0.623505 0.095674
C20   C     C_3   0.447520 0.929175 0.736589 0.481588
C21   C     C_3   0.447018 0.071044 0.736367 -0.547003
C22   C     C_R   0.457321 0.407092 0.071082 0.216001
C23   C     C_R   0.502563 0.740061 0.500026 0.881850
C24   C     C_R   0.548918 0.584687 0.072270 -0.119135
C25   C     C_R   0.548995 0.584611 0.928194 -0.059420
C26   C     C_R   0.457408 0.407103 0.928224 0.161942
C27   C     C_3   0.360550 0.376975 0.920579 -0.499497
C28   C     C_3   0.359893 0.378610 0.074916 -0.076324
C29   C     C_R   0.673396 0.499938 0.500182 0.893314
C30   C     C_R   0.814724 0.472935 0.380238 -0.258088
C31   C     C_R   0.769244 0.499149 0.500576 -0.071228
C32   C     C_R   0.815233 0.524363 0.621228 -0.253760
C33   C     C_R   0.907451 0.524161 0.622272 0.118043
C34   C     C_R   0.953524 0.497805 0.500963 0.060643
H1    H     H_    0.778524 0.452644 0.287298 0.162283
H2    H     H_    0.543367 0.886334 0.284506 0.184088
H3    H     H_    0.382990 0.885252 0.707461 0.065283
H4    H     H_    0.382166 0.111405 0.703487 0.153485
H5    H     H_    0.476150 0.113238 0.829708 0.233334
H6    H     H_    0.586987 0.654583 0.126912 0.154887
H7    H     H_    0.587210 0.654337 0.873922 0.179165
H8    H     H_    0.320901 0.454268 0.875518 0.194375
H9    H     H_    0.348118 0.283634 0.874404 0.207319
H10   H     H_    0.320274 0.457234 0.116833 0.177854
H11   H     H_    0.779407 0.545170 0.713989 0.159584
H12   H     H_    0.919186 0.570348 0.835788 0.145936
H13   H     H_    0.082333 0.571334 0.835427 0.145825
H14   H     H_    0.221304 0.548892 0.712646 0.154068
H15   H     H_    0.219897 0.448916 0.288612 0.158001
H16   H     H_    0.080697 0.423945 0.166476 0.146182
H17   H     H_    0.917573 0.425151 0.166141 0.146351
H18   H     H_    0.542938 0.113853 0.284392 0.177725
N1    N     N_R   0.499390 0.499140 0.142800 -0.129510
N2    N     N_R   0.499390 0.499180 0.857150 -0.114934
O1    O     O_R   0.500010 0.316790 0.614690 -0.609263
O2    O     O_R   0.500000 0.316760 0.385350 -0.629593
O3    O     O_R   0.367850 0.499990 0.614680 -0.626062
O4    O     O_R   0.367840 0.499950 0.385340 -0.626241
O5    O     O_R   0.500000 0.683240 0.614650 -0.600588
O6    O     O_R   0.499990 0.683210 0.385310 -0.619396
O7    O     O_R   0.632160 0.500050 0.614660 -0.629149
O8    O     O_R   0.632150 0.500010 0.385320 -0.628895
Zn1   Zn    Zn3+2 0.500010 0.500020 0.653130 0.964789
Zn2   Zn    Zn3+2 0.499990 0.499980 0.346870 0.946849
F1    F     F_    0.485289 0.880425 0.853509 -0.662298
C35   C     C_3   0.339319 0.251583 0.139424 -0.854738
H19   H     H_    0.383635 0.177152 0.098903 0.251275
H20   H     H_    0.348425 0.257467 0.251060 0.258337
H21   H     H_    0.268947 0.225828 0.118114 0.240513

loop_
_geom_bond_atom_site_label_1
_geom_bond_atom_site_label_2
_ccdc_geom_bond_type
C28   C35   S    
C11   C12   S    
O2    Zn2   S    
C24   C25   A    
O3    Zn1   S    
C6    C7    A    
C1    C15   S    
C17   H2    S    
C27   H9    S    
C32   H11   S    
C3    H12   S    
C35   H20   S    
C19   C20   S    
C21   H5    S    
C7    C13   A    
C30   C31   A    
O6    Zn2   S    
C12   O4    A    
C32   C33   A    
C2    C34   A    
C17   C18   A    
C1    O1    A    
C5    C10   A    
C29   C31   S    
C22   C28   S    
C3    C4    A    
C25   N2    A    
C4    C5    A    
C23   O5    A    
C20   H3    S    
C11   C13   A    
C27   H8    S    
C26   C27   S    
C23   O6    A    
C30   H1    S    
C13   H15   S    
C12   O3    A    
C26   N2    A    
C14   C21   S    
C24   H6    S    
C1    O2    A    
C33   C34   A    
C35   H19   S    
C22   N1    A    
C10   H14   S    
C5    C6    A    
N1    Zn2   S    
C29   O7    A    
C35   H21   S    
C6    C34   A    
C10   C11   A    
C3    C33   A    
C22   C26   A    
C15   C16   A    
C8    H16   S    
C20   F1    S    
C7    C8    A    
C2    C30   A    
C20   C21   S    
C16   H18   S    
C18   C19   A    
N2    Zn1   S    
C25   H7    S    
C27   C28   S    
O7    Zn1   S    
C14   C15   A    
C16   C17   A    
O8    Zn2   S    
O4    Zn2   S    
C24   N1    A    
C29   O8    A    
C2    C9    A    
O5    Zn1   S    
C14   C19   A    
C28   H10   S    
C31   C32   A    
C21   H4    S    
C18   C23   S    
O1    Zn1   S    
C8    C9    A    
C4    H13   S    
C9    H17   S    
