data_mof_unit_55494.cif
_audit_creation_date              2012-12-10T18:57:49-0500
_audit_creation_method            fapswitch 2.2
_symmetry_space_group_name_H-M    P1
_symmetry_Int_Tables_number       1
_space_group_crystal_system       monoclinic
_cell_length_a                    10.724205
_cell_length_b                    10.020509
_cell_length_c                    8.906542
_cell_angle_alpha                 90.0
_cell_angle_beta                  93.590623
_cell_angle_gamma                 90.0
_cell_volume                      955.235927011

loop_
_atom_site_label
_atom_site_type_symbol
_atom_type_description
_atom_site_fract_x
_atom_site_fract_y
_atom_site_fract_z
_atom_type_partial_charge
C1    C     C_R   0.260361 0.500000 0.499412 0.845686
C2    C     C_R   0.063864 0.621680 0.499681 -0.197696
C3    C     C_R   0.872402 0.500000 0.500555 -0.002896
C4    C     C_R   0.127599 0.500000 0.499451 -0.002896
C5    C     C_R   0.580517 0.071617 0.596715 0.202493
C6    C     C_R   0.419483 0.928383 0.403285 0.202492
C7    C     C_R   0.419483 0.071617 0.403285 0.202489
C8    C     C_R   0.580517 0.928383 0.596715 0.202489
C9    C     C_3   0.671646 0.142195 0.706346 -0.823708
C10   C     C_3   0.328354 0.857804 0.293654 -0.823706
C11   C     C_3   0.328353 0.142196 0.293654 -0.823701
C12   C     C_R   0.739639 0.500000 0.500589 0.845685
C13   C     C_3   0.671646 0.857804 0.706346 -0.823702
C14   C     C_R   0.499468 0.500000 0.219178 0.922111
C15   C     C_R   0.500532 0.500000 0.780822 0.922109
C16   C     C_1   0.499799 0.500000 0.065502 -0.193832
C17   C     C_1   0.500201 0.500000 0.934497 -0.193831
C18   C     C_R   0.063866 0.378319 0.499717 -0.197696
C19   C     C_R   0.936134 0.621680 0.500290 -0.197695
C20   C     C_R   0.936137 0.378320 0.500326 -0.197697
H1    H     H_    0.112130 0.283344 0.499599 0.161756
H2    H     H_    0.347169 0.885138 0.176489 0.220297
H3    H     H_    0.332086 0.250198 0.298315 0.287614
H4    H     H_    0.347168 0.114862 0.176490 0.220296
H5    H     H_    0.231071 0.114700 0.316214 0.206626
H6    H     H_    0.667914 0.749802 0.701685 0.287614
H7    H     H_    0.768928 0.885301 0.683787 0.206625
H8    H     H_    0.652831 0.885137 0.823511 0.220296
H9    H     H_    0.887870 0.716656 0.500410 0.161755
H10   H     H_    0.887874 0.283344 0.500475 0.161753
H11   H     H_    0.112126 0.716656 0.499533 0.161752
H12   H     H_    0.667914 0.250198 0.701685 0.287613
H13   H     H_    0.652832 0.114862 0.823511 0.220297
H14   H     H_    0.768928 0.114699 0.683786 0.206622
H15   H     H_    0.332086 0.749802 0.298315 0.287614
H16   H     H_    0.231072 0.885301 0.316213 0.206622
N1    N     N_R   0.500000 0.857200 0.500000 -0.115619
N2    N     N_R   0.500000 0.142800 0.500000 -0.115619
O1    O     O_R   0.316770 0.614620 0.499990 -0.632816
O2    O     O_R   0.683230 0.385380 0.500010 -0.632815
O3    O     O_R   0.683230 0.614620 0.500010 -0.632818
O4    O     O_R   0.316770 0.385380 0.499990 -0.632818
O5    O     O_R   0.500010 0.614640 0.285340 -0.618262
O6    O     O_R   0.499990 0.385360 0.714660 -0.618263
O7    O     O_R   0.499990 0.614640 0.714660 -0.618262
O8    O     O_R   0.500010 0.385360 0.285340 -0.618262
Zn1   Zn    Zn3+2 0.500000 0.653120 0.500000 0.931953
Zn2   Zn    Zn3+2 0.500000 0.346880 0.500000 0.931953

loop_
_geom_bond_atom_site_label_1
_geom_bond_atom_site_label_2
_ccdc_geom_bond_type
C6    C10   S    
C5    C8    A    
C2    C4    A    
C13   H8    S    
C5    C9    S    
C8    C13   S    
N1    Zn1   S    
C18   H1    S    
C11   H4    S    
N2    Zn2   S    
C1    C4    S    
C4    C18   A    
C14   O5    A    
O3    Zn1   S    
C6    N1    A    
C3    C20   A    
C14   O8    A    
O4    Zn2   S    
C5    N2    A    
C10   H2    S    
C3    C19   A    
C6    C7    A    
C9    H13   S    
C11   H3    S    
C7    N2    A    
C10   H16   S    
C15   O6    A    
C7    C11   S    
C18   C20   A    
O7    Zn1   S    
C9    H14   S    
C10   H15   S    
C14   C16   S    
C13   H6    S    
C8    N1    A    
C1    O1    A    
C19   H9    S    
O8    Zn2   S    
C1    O4    A    
C12   O3    A    
O1    Zn1   S    
C15   C17   S    
C11   H5    S    
O2    Zn2   S    
C16   C17   T    
C20   H10   S    
C3    C12   S    
C9    H12   S    
C2    C19   A    
O5    Zn1   S    
C13   H7    S    
O6    Zn2   S    
C2    H11   S    
C15   O7    A    
C12   O2    A    
