data_mof_unit_20763.cif
_audit_creation_date              2012-12-10T20:41:47-0500
_audit_creation_method            fapswitch 2.2
_symmetry_space_group_name_H-M    P1
_symmetry_Int_Tables_number       1
_space_group_crystal_system       triclinic
_cell_length_a                    15.017945
_cell_length_b                    15.120689
_cell_length_c                    9.867358
_cell_angle_alpha                 90.304443
_cell_angle_beta                  89.998748
_cell_angle_gamma                 89.880273
_cell_volume                      2240.65966538

loop_
_atom_site_label
_atom_site_type_symbol
_atom_type_description
_atom_site_fract_x
_atom_site_fract_y
_atom_site_fract_z
_atom_type_partial_charge
C1    C     C_R   0.383394 0.876830 0.499707 0.909660
C2    C     C_R   0.381672 0.121406 0.500239 0.921149
C3    C     C_R   0.883392 0.376833 0.499708 0.909655
C4    C     C_R   0.881670 0.621403 0.500240 0.921167
C5    C     C_3   0.187504 0.118022 0.627216 -0.526987
C6    C     C_3   0.223749 0.850869 0.701770 -0.495596
C7    C     C_3   0.687451 0.617954 0.627020 -0.526968
C8    C     C_3   0.723693 0.350923 0.701692 -0.495589
C9    C     C_R   0.422431 0.988605 0.071260 0.263284
C10   C     C_R   0.922423 0.488654 0.071259 0.263242
C11   C     C_R   0.577450 0.002524 0.072000 -0.050206
C12   C     C_R   0.077452 0.502474 0.071999 -0.050162
C13   C     C_R   0.577460 0.002323 0.927986 -0.020950
C14   C     C_R   0.077461 0.502272 0.927985 -0.020836
C15   C     C_R   0.422425 0.988471 0.928793 0.229423
C16   C     C_R   0.922417 0.488520 0.928793 0.229372
C17   C     C_3   0.342148 0.046470 0.924127 -0.498857
C18   C     C_3   0.842174 0.546566 0.924120 -0.498745
C19   C     C_3   0.342395 0.046774 0.077888 -0.459318
C20   C     C_3   0.842423 0.546875 0.077883 -0.459386
C21   C     C_R   0.621197 0.118682 0.500349 0.913957
C22   C     C_R   0.620452 0.880876 0.499857 0.897802
C23   C     C_R   0.121199 0.618680 0.500349 0.913992
C24   C     C_R   0.120455 0.380879 0.499857 0.897808
C25   C     C_R   0.253165 0.189947 0.599069 0.047079
C26   C     C_R   0.277296 0.787313 0.618483 0.090803
C27   C     C_R   0.753118 0.689898 0.599010 0.047014
C28   C     C_R   0.777261 0.287348 0.618469 0.090726
C29   C     C_R   0.320530 0.192187 0.502510 -0.165783
C30   C     C_R   0.326945 0.801696 0.501577 -0.184776
C31   C     C_R   0.820521 0.692178 0.502513 -0.165753
C32   C     C_R   0.826934 0.301707 0.501579 -0.184773
C33   C     C_R   0.329927 0.265362 0.415865 0.248158
C34   C     C_R   0.322122 0.740882 0.392612 0.263351
C35   C     C_R   0.829948 0.765382 0.415936 0.248141
C36   C     C_R   0.822129 0.240875 0.392636 0.263349
C37   C     C_R   0.763292 0.828953 0.415267 -0.214561
C38   C     C_R   0.754788 0.178198 0.393743 -0.200773
C39   C     C_R   0.263270 0.328932 0.415197 -0.214525
C40   C     C_R   0.254779 0.678206 0.393720 -0.200735
C41   C     C_R   0.690344 0.819165 0.501777 -0.179124
C42   C     C_R   0.695311 0.176027 0.502979 -0.193981
C43   C     C_R   0.190355 0.319177 0.501779 -0.179149
C44   C     C_R   0.195320 0.676018 0.502977 -0.194006
C45   C     C_R   0.688627 0.753567 0.599191 0.127952
C46   C     C_R   0.712297 0.224756 0.619677 0.114420
C47   C     C_R   0.188678 0.253619 0.599256 0.127947
C48   C     C_R   0.212331 0.724723 0.619691 0.114457
C49   C     C_3   0.616042 0.688993 0.627679 0.120047
C50   C     C_3   0.650936 0.281458 0.702293 0.127128
C51   C     C_3   0.116102 0.189067 0.627894 0.120086
C52   C     C_3   0.150989 0.781407 0.702367 0.127107
H1    H     H_    0.356916 0.112895 0.122308 0.252707
H2    H     H_    0.284105 0.012326 0.122486 0.221289
H3    H     H_    0.856988 0.612989 0.122297 0.252706
H4    H     H_    0.784110 0.512466 0.122485 0.221273
H5    H     H_    0.767370 0.884407 0.346385 0.185185
H6    H     H_    0.746973 0.133953 0.307806 0.196240
H7    H     H_    0.267322 0.384359 0.346260 0.185208
H8    H     H_    0.246948 0.633977 0.307767 0.196274
H9    H     H_    0.567250 0.682780 0.543331 0.141796
H10   H     H_    0.589804 0.301345 0.646450 0.142628
H11   H     H_    0.067265 0.182825 0.543616 0.141770
H12   H     H_    0.089847 0.801310 0.646563 0.142637
H13   H     H_    0.198228 0.087067 0.727382 0.233216
H14   H     H_    0.254650 0.862833 0.802472 0.243938
H15   H     H_    0.698134 0.586960 0.727172 0.233189
H16   H     H_    0.754572 0.362919 0.802402 0.243917
H17   H     H_    0.181005 0.070505 0.541358 0.180700
H18   H     H_    0.205274 0.911540 0.645071 0.169846
H19   H     H_    0.680997 0.570469 0.541111 0.180698
H20   H     H_    0.705228 0.411577 0.644944 0.169844
H21   H     H_    0.639876 0.006576 0.126362 0.148985
H22   H     H_    0.139880 0.506487 0.126362 0.148976
H23   H     H_    0.639888 0.006227 0.873680 0.166795
H24   H     H_    0.139892 0.506137 0.873679 0.166802
H25   H     H_    0.355940 0.112443 0.879614 0.245576
H26   H     H_    0.283869 0.011307 0.881063 0.201336
H27   H     H_    0.856005 0.612529 0.879602 0.245567
H28   H     H_    0.783875 0.511436 0.881058 0.201346
N1    N     N_R   0.499140 1.000000 0.142800 -0.111284
N2    N     N_R   0.999140 0.500000 0.142800 -0.111286
N3    N     N_R   0.499160 0.000000 0.857150 -0.111412
N4    N     N_R   0.999160 0.500000 0.857150 -0.111414
O1    O     O_R   0.408400 0.908380 0.614690 -0.607206
O2    O     O_R   0.408400 0.091620 0.614690 -0.619519
O3    O     O_R   0.908400 0.408380 0.614690 -0.607210
O4    O     O_R   0.908400 0.591620 0.614690 -0.619542
O5    O     O_R   0.408370 0.908370 0.385350 -0.586426
O6    O     O_R   0.408370 0.091630 0.385350 -0.598666
O7    O     O_R   0.908370 0.408370 0.385350 -0.586414
O8    O     O_R   0.908370 0.591630 0.385350 -0.598685
O9    O     O_R   0.591610 0.091610 0.614650 -0.603977
O10   O     O_R   0.591610 0.908390 0.614650 -0.600195
O11   O     O_R   0.091610 0.591610 0.614650 -0.603970
O12   O     O_R   0.091610 0.408390 0.614650 -0.600201
O13   O     O_R   0.591590 0.091600 0.385310 -0.605919
O14   O     O_R   0.591590 0.908400 0.385310 -0.612462
O15   O     O_R   0.091590 0.591600 0.385310 -0.605910
O16   O     O_R   0.091590 0.408400 0.385310 -0.612460
Zn1   Zn    Zn3+2 0.500010 0.000000 0.653130 1.000503
Zn2   Zn    Zn3+2 0.000010 0.500000 0.653130 1.000501
Zn3   Zn    Zn3+2 0.499980 0.000000 0.346870 1.011061
Zn4   Zn    Zn3+2 0.999980 0.500000 0.346870 1.011069
Br1   Br    Br    0.430205 0.281315 0.297459 -0.469267
Br2   Br    Br    0.401430 0.740618 0.239467 -0.432615
Br3   Br    Br    0.930268 0.781370 0.297622 -0.469359
Br4   Br    Br    0.901466 0.240587 0.239525 -0.432584
Br5   Br    Br    0.563445 0.709542 0.804871 -0.423221
Br6   Br    Br    0.629814 0.232479 0.880903 -0.442912
Br7   Br    Br    0.063607 0.209697 0.805129 -0.423238
Br8   Br    Br    0.129901 0.732389 0.880960 -0.442962

loop_
_geom_bond_atom_site_label_1
_geom_bond_atom_site_label_2
_ccdc_geom_bond_type
C23   O15   A    
C22   O14   A    
O12   Zn2   S    
C36   Br4   S    
N4    Zn2   S    
C16   N4    A    
O7    Zn4   S    
C20   H4    S    
C11   N1    A    
C28   C46   A    
C33   C39   A    
C6    H14   S    
C2    C29   S    
C34   C40   A    
C32   C36   A    
C35   C37   A    
C38   C42   A    
C48   C52   S    
C12   H22   S    
C24   O12   A    
C7    H19   S    
C22   C41   S    
C52   Br8   S    
O14   Zn3   S    
C29   C33   A    
C50   Br6   S    
C7    C27   S    
C3    O7    A    
C42   C46   A    
C2    O6    A    
C17   H26   S    
C5    H17   S    
C38   H6    S    
C9    C19   S    
O16   Zn4   S    
C47   C51   S    
C13   H23   S    
O10   Zn1   S    
C10   C20   S    
C18   H27   S    
C51   Br7   S    
C14   N4    A    
C25   C47   A    
O11   Zn2   S    
C26   C48   A    
C27   C45   A    
O15   Zn4   S    
O5    Zn3   S    
C25   C29   A    
C22   O10   A    
C20   H3    S    
C1    O1    A    
C8    H20   S    
C49   H9    S    
C30   C34   A    
C27   C31   A    
C34   Br2   S    
C28   C32   A    
C51   H11   S    
C7    C49   S    
C5    H13   S    
C52   H12   S    
O9    Zn1   S    
C39   C43   A    
C3    O3    A    
C10   N2    A    
C23   C44   S    
N2    Zn4   S    
C14   H24   S    
O3    Zn2   S    
C21   O13   A    
C45   C49   S    
C39   H7    S    
C17   H25   S    
C12   N2    A    
O13   Zn3   S    
C5    C25   S    
C19   H2    S    
C18   H28   S    
C12   C14   A    
C8    H16   S    
C11   H21   S    
C50   H10   S    
C31   C35   A    
C8    C50   S    
O1    Zn1   S    
C49   Br5   S    
N1    Zn3   S    
C6    H18   S    
C46   C50   S    
C1    O5    A    
N3    Zn1   S    
C24   O16   A    
O4    Zn2   S    
C26   C30   A    
C4    O4    A    
C13   N3    A    
C33   Br1   S    
C36   C38   A    
C9    C15   A    
C10   C16   A    
C11   C13   A    
C19   H1    S    
C6    C26   S    
C21   O9    A    
C15   N3    A    
C1    C30   S    
C17   C19   S    
C23   O11   A    
C2    O2    A    
C18   C20   S    
C37   C41   A    
C3    C32   S    
O6    Zn3   S    
C4    C31   S    
C35   Br3   S    
O8    Zn4   S    
C7    H15   S    
C21   C42   S    
C40   C44   A    
C8    C28   S    
C16   C18   S    
C40   H8    S    
C24   C43   S    
C41   C45   A    
C5    C51   S    
C6    C52   S    
C15   C17   S    
O2    Zn1   S    
C43   C47   A    
C37   H5    S    
C44   C48   A    
C9    N1    A    
C4    O8    A    
