data_mof_unit_26414.cif
_audit_creation_date              2013-03-05T15:53:15-0500
_audit_creation_method            fapswitch 2.2
_symmetry_space_group_name_H-M    P1
_symmetry_Int_Tables_number       1
_space_group_crystal_system       triclinic
_cell_length_a                    17.35836
_cell_length_b                    24.417021
_cell_length_c                    14.977871
_cell_angle_alpha                 90.27689
_cell_angle_beta                  125.692272
_cell_angle_gamma                 89.733626
_cell_volume                      5155.70508691

loop_
_atom_site_label
_atom_site_type_symbol
_atom_site_description
_atom_site_fract_x
_atom_site_fract_y
_atom_site_fract_z
_atom_type_partial_charge
C1    C     C_R   0.357415 0.347623 0.908239 0.671772
C2    C     C_R   0.645875 0.348041 0.091884 0.696949
C3    C     C_R   0.811432 0.875920 0.909202 0.705259
C4    C     C_R   0.144564 0.847834 0.091872 0.689483
N1    N     N_R   0.395410 0.396350 0.944340 -0.113208
N2    N     N_R   0.604590 0.396350 0.055660 -0.108452
N3    N     N_R   0.895410 0.896350 0.944340 -0.115280
N4    N     N_R   0.104590 0.896350 0.055660 -0.107643
C5    C     C_R   0.402825 0.623459 0.092386 -0.061614
C6    C     C_R   0.556787 0.650652 0.909433 -0.015479
C7    C     C_R   0.900736 0.121580 0.091290 -0.059382
C8    C     C_R   0.088047 0.134132 0.908633 -0.053806
H1    H     H_    0.428376 0.624803 0.177270 0.156345
H2    H     H_    0.506364 0.664860 0.826572 0.119022
H3    H     H_    0.925901 0.122760 0.176025 0.153538
H4    H     H_    0.055470 0.144273 0.824674 0.161310
N5    N     N_R   0.449930 0.602500 0.055880 -0.052374
N6    N     N_R   0.550070 0.602500 0.944120 -0.066787
N7    N     N_R   0.949930 0.102500 0.055880 -0.045191
N8    N     N_R   0.050070 0.102500 0.944120 -0.057901
C9    C     C_R   0.548662 0.453119 0.301650 -0.135634
C10   C     C_R   0.521271 0.452926 0.754465 -0.035838
C11   C     C_R   0.050980 0.953159 0.302451 -0.149753
C12   C     C_R   0.016512 0.952257 0.749315 -0.061879
H5    H     H_    0.570026 0.411418 0.328633 0.157546
H6    H     H_    0.535578 0.410445 0.749742 0.106302
H7    H     H_    0.073807 0.911629 0.329827 0.170976
H8    H     H_    0.030834 0.909715 0.744972 0.111922
N9    N     N_R   0.525080 0.471030 0.205650 -0.049153
N10   N     N_R   0.474920 0.471030 0.794350 -0.044537
N11   N     N_R   0.025080 0.971030 0.205650 -0.052248
N12   N     N_R   0.974920 0.971030 0.794350 -0.060070
C13   C     C_R   0.230408 0.544196 0.723141 -0.115204
C14   C     C_R   0.752800 0.544721 0.304541 -0.099723
C15   C     C_R   0.748927 0.044984 0.694431 -0.151890
C16   C     C_R   0.269668 0.044356 0.274469 -0.121883
H9    H     H_    0.206755 0.585374 0.693901 0.113816
H10   H     H_    0.762288 0.586380 0.334181 0.122426
H11   H     H_    0.739522 0.086797 0.666130 0.132406
H12   H     H_    0.293317 0.085708 0.301979 0.114432
N13   N     N_R   0.320260 0.527820 0.794570 -0.053754
N14   N     N_R   0.679740 0.527820 0.205430 -0.053398
N15   N     N_R   0.820260 0.027820 0.794570 -0.062186
N16   N     N_R   0.179740 0.027820 0.205430 -0.054093
C17   C     C_R   0.548253 0.544135 0.303995 -0.074094
C18   C     C_R   0.518208 0.544660 0.748905 -0.021150
C19   C     C_R   0.049157 0.044058 0.304390 -0.066105
C20   C     C_R   0.007106 0.043517 0.735965 -0.066842
H13   H     H_    0.565264 0.585918 0.332946 0.203856
H14   H     H_    0.526683 0.586870 0.735379 0.207647
H15   H     H_    0.065598 0.085891 0.333178 0.207172
H16   H     H_    0.002604 0.084009 0.705487 0.188339
N17   N     N_R   0.524590 0.527840 0.205200 -0.073660
N18   N     N_R   0.475410 0.527840 0.794800 -0.075763
N19   N     N_R   0.024590 0.027840 0.205200 -0.076509
N20   N     N_R   0.975410 0.027840 0.794800 -0.073834
C21   C     C_R   0.232126 0.452491 0.733085 -0.057305
C22   C     C_R   0.752168 0.453497 0.303085 -0.080305
C23   C     C_R   0.752102 0.954445 0.693037 0.105355
C24   C     C_R   0.268334 0.952588 0.265819 -0.091756
H17   H     H_    0.211596 0.409872 0.718632 0.150826
H18   H     H_    0.760008 0.411718 0.330639 0.162790
H19   H     H_    0.747648 0.913353 0.663160 0.143768
H20   H     H_    0.289384 0.910012 0.280354 0.156071
N21   N     N_R   0.320750 0.471000 0.795020 -0.046153
N22   N     N_R   0.679250 0.471000 0.204980 -0.053671
N23   N     N_R   0.820750 0.971000 0.795020 -0.058119
N24   N     N_R   0.179250 0.971000 0.204980 -0.049633
C25   C     C_R   0.313558 0.629497 0.909267 -0.087910
C26   C     C_R   0.651356 0.650651 0.092118 -0.080866
C27   C     C_R   0.809925 0.125221 0.907566 -0.046710
C28   C     C_R   0.181344 0.134497 0.091993 -0.064495
H21   H     H_    0.258991 0.641660 0.826343 0.105812
H22   H     H_    0.691600 0.664563 0.176499 0.114025
H23   H     H_    0.751890 0.131894 0.822530 0.103648
H24   H     H_    0.235329 0.145902 0.175754 0.107810
N25   N     N_R   0.393620 0.602490 0.942710 -0.055135
N26   N     N_R   0.606380 0.602490 0.057290 -0.053409
N27   N     N_R   0.893620 0.102490 0.942710 -0.046439
N28   N     N_R   0.106380 0.102490 0.057290 -0.049349
C29   C     C_R   0.443049 0.347369 0.090428 -0.155097
C30   C     C_R   0.557570 0.346974 0.909780 -0.199615
C31   C     C_R   0.903711 0.872749 0.091939 -0.171077
C32   C     C_R   0.057073 0.846853 0.909863 -0.251674
H25   H     H_    0.486361 0.333464 0.174658 0.195559
H26   H     H_    0.512517 0.332286 0.825994 0.178723
H27   H     H_    0.930761 0.866471 0.176774 0.176852
H28   H     H_    0.012316 0.832165 0.826050 0.154487
N29   N     N_R   0.451720 0.396350 0.057510 -0.083443
N30   N     N_R   0.548280 0.396350 0.942490 -0.082760
N31   N     N_R   0.951720 0.896350 0.057510 -0.070752
N32   N     N_R   0.048280 0.896350 0.942490 -0.081965
C33   C     C_R   0.384354 0.315861 0.997055 -0.117963
C34   C     C_R   0.618799 0.315709 0.002711 -0.116737
C35   C     C_R   0.814025 0.859526 0.998830 -0.130063
C36   C     C_R   0.117695 0.815627 0.002984 -0.093979
C37   C     C_R   0.316882 0.641341 0.002276 0.063064
C38   C     C_R   0.620860 0.681786 0.999899 0.093571
C39   C     C_R   0.813213 0.137752 0.000602 0.041671
C40   C     C_R   0.173259 0.152184 0.999140 0.070424
C41   C     C_R   0.563894 0.497792 0.366067 0.157597
C42   C     C_R   0.547916 0.497955 0.722978 0.154557
C43   C     C_R   0.065944 0.997620 0.366613 0.158573
C44   C     C_R   0.038345 0.996954 0.712500 0.183358
C45   C     C_R   0.174186 0.498014 0.689502 0.106903
C46   C     C_R   0.797361 0.498955 0.368056 0.093626
C47   C     C_R   0.706297 0.999717 0.628832 0.060726
C48   C     C_R   0.326251 0.998181 0.308056 0.113957
Ni1   Ni    Ni4+2 0.435420 0.434270 0.870230 0.298248
Ni2   Ni    Ni4+2 0.564580 0.434270 0.129770 0.258570
Ni3   Ni    Ni4+2 0.935420 0.934270 0.870230 0.240452
Ni4   Ni    Ni4+2 0.064580 0.934270 0.129770 0.282277
Ni5   Ni    Ni4+2 0.563430 0.564580 0.128740 0.244719
Ni6   Ni    Ni4+2 0.436570 0.564580 0.871260 0.249886
Ni7   Ni    Ni4+2 0.063430 0.064580 0.128740 0.271391
Ni8   Ni    Ni4+2 0.936570 0.064580 0.871260 0.255451
C49   C     C_2   0.919814 0.454580 0.537810 -0.064935
C50   C     C_2   0.021654 0.458210 0.622975 -0.090160
C51   C     C_2   0.479760 0.958472 0.374841 -0.104345
C52   C     C_2   0.582023 0.955333 0.459560 -0.034818
C53   C     C_2   0.870406 0.499858 0.485536 -0.170167
C54   C     C_2   0.072204 0.498141 0.618626 -0.180092
C55   C     C_2   0.428557 0.998658 0.378208 -0.182249
C56   C     C_2   0.631625 0.000696 0.511514 -0.147592
H29   H     H_    0.892284 0.414098 0.504534 0.148863
H30   H     H_    0.056537 0.424174 0.679614 0.143030
H31   H     H_    0.445191 0.923858 0.319455 0.143754
H32   H     H_    0.610330 0.914936 0.492590 0.149397
H33   H     H_    0.896335 0.539863 0.523644 0.151863
H34   H     H_    0.039014 0.531595 0.560295 0.148623
H35   H     H_    0.461513 0.032732 0.435296 0.144199
H36   H     H_    0.604813 0.040690 0.474140 0.143019
C57   C     C_R   0.276634 0.696348 0.107647 -0.096076
C58   C     C_R   0.619024 0.759488 0.895011 -0.126105
C59   C     C_R   0.773554 0.193959 0.106003 -0.099218
C60   C     C_R   0.215813 0.203532 0.893456 -0.029566
C61   C     C_R   0.248245 0.671574 0.008461 0.044098
C62   C     C_R   0.642297 0.738613 0.994699 0.063830
C63   C     C_R   0.744756 0.168740 0.006816 0.051668
C64   C     C_R   0.242159 0.181527 0.993604 0.029900
C65   C     C_R   0.156748 0.682519 0.913828 -0.125480
C66   C     C_R   0.697849 0.770892 0.090055 -0.100583
C67   C     C_R   0.654190 0.181234 0.911881 -0.127462
C68   C     C_R   0.335454 0.189192 0.087233 -0.126287
H37   H     H_    0.129957 0.661644 0.837016 0.128799
H38   H     H_    0.712638 0.757912 0.167597 0.149860
H39   H     H_    0.626996 0.160619 0.834741 0.133295
H40   H     H_    0.361046 0.169124 0.164160 0.133765
C69   C     C_R   0.604140 0.226270 0.912488 -0.147106
C70   C     C_R   0.392244 0.228702 0.085244 -0.137973
C71   C     C_R   0.104884 0.726402 0.914289 -0.149593
C72   C     C_R   0.746018 0.816471 0.089027 -0.143173
H41   H     H_    0.540062 0.239201 0.835522 0.154511
H42   H     H_    0.459176 0.239282 0.161388 0.169554
H43   H     H_    0.039906 0.738562 0.837454 0.142635
H44   H     H_    0.796535 0.837254 0.165843 0.155405
C73   C     C_R   0.644679 0.258314 0.008334 0.127201
C74   C     C_R   0.354696 0.259924 0.989641 0.106871
C75   C     C_R   0.144874 0.758659 0.009650 0.126194
C76   C     C_R   0.739019 0.829175 0.992983 0.119273
C77   C     C_R   0.723070 0.237253 0.107229 0.103647
C78   C     C_R   0.272053 0.241854 0.890989 0.132818
C79   C     C_R   0.224747 0.738700 0.108744 0.135667
C80   C     C_R   0.667368 0.803840 0.894193 0.114620
C81   C     C_3   0.810574 0.265289 0.200784 -0.503532
C82   C     C_3   0.187905 0.273282 0.799116 -0.536385
C83   C     C_3   0.311730 0.767846 0.201095 -0.535875
C84   C     C_3   0.668846 0.780086 0.802277 -0.478887
C85   C     C_3   0.368935 0.722021 0.198735 0.885273
C86   C     C_3   0.615572 0.731923 0.802652 0.869717
C87   C     C_3   0.866469 0.218785 0.198131 0.868341
C88   C     C_3   0.126285 0.231544 0.802482 0.864386
H45   H     H_    0.823942 0.305675 0.178213 0.185061
H46   H     H_    0.180621 0.315191 0.822850 0.165378
H47   H     H_    0.323313 0.808399 0.177230 0.168886
H48   H     H_    0.626042 0.804281 0.725138 0.245216
H49   H     H_    0.813898 0.265601 0.277196 0.269658
H50   H     H_    0.182838 0.271301 0.721663 0.280547
H51   H     H_    0.315880 0.768244 0.278034 0.278972
H52   H     H_    0.741496 0.769272 0.828143 0.214617
C89   C     C_R   0.576013 0.445780 0.603638 -0.075273
C90   C     C_R   0.585003 0.444893 0.518320 -0.013561
C91   C     C_R   0.072088 0.944891 0.598882 -0.081331
C92   C     C_R   0.084856 0.944007 0.516679 0.009908
C93   C     C_R   0.587437 0.494325 0.660092 -0.219745
C94   C     C_R   0.597867 0.494018 0.480787 -0.250746
C95   C     C_R   0.079809 0.993648 0.652357 -0.224726
C96   C     C_R   0.098792 0.993366 0.480480 -0.252093
C97   C     C_R   0.625975 0.539954 0.641869 0.659209
C98   C     C_R   0.630611 0.539997 0.551364 0.634676
C99   C     C_R   0.120280 0.039399 0.637447 0.633365
C100  C     C_R   0.129294 0.039431 0.550409 0.649164
C101  C     C_3   0.511303 0.400661 0.458595 0.092672
C102  C     C_3   0.499237 0.402932 0.550866 0.093856
C103  C     C_3   0.012359 0.899106 0.455898 0.063056
C104  C     C_3   0.996690 0.901431 0.545341 0.110192
H53   H     H_    0.447306 0.413018 0.376711 0.133299
H54   H     H_    0.519327 0.364533 0.599545 0.121322
H55   H     H_    0.949298 0.910748 0.372739 0.112697
H56   H     H_    0.016796 0.863386 0.595022 0.114883
F1    F     F_    0.330396 0.328543 0.808703 -0.711513
F2    F     F_    0.676206 0.329474 0.192580 -0.732026
F3    F     F_    0.733671 0.878734 0.804694 -0.748877
F4    F     F_    0.173048 0.829098 0.191877 -0.703351
N33   N     N_R   0.429727 0.740439 0.166383 0.206081
O1    O     O_R   0.394684 0.768377 0.076513 -0.424728
O2    O     O_R   0.520379 0.730411 0.229634 -0.348635
N34   N     N_R   0.519689 0.727198 0.700772 0.209360
O3    O     O_R   0.457156 0.765770 0.671318 -0.378041
O4    O     O_R   0.497954 0.685547 0.635687 -0.288662
N35   N     N_R   0.928403 0.236687 0.167060 0.212640
O5    O     O_R   0.894243 0.263764 0.076466 -0.392126
O6    O     O_R   0.019154 0.227225 0.232309 -0.309897
N36   N     N_R   0.068319 0.254874 0.835482 0.202243
O7    O     O_R   0.107139 0.282988 0.926115 -0.396036
O8    O     O_R   0.976650 0.248962 0.772191 -0.317276
F5    F     F_    0.417062 0.691377 0.294576 -0.643542
F6    F     F_    0.667424 0.683669 0.832190 -0.634605
F7    F     F_    0.913230 0.187819 0.293524 -0.648661
F8    F     F_    0.074399 0.200742 0.706671 -0.618810
F9    F     F_    0.650203 0.585989 0.703784 -0.592656
F10   F     F_    0.658802 0.586263 0.528419 -0.639011
F11   F     F_    0.142093 0.085458 0.698879 -0.632288
F12   F     F_    0.158554 0.085811 0.529159 -0.630807
N37   N     N_R   0.551905 0.348457 0.456047 0.241976
O9    O     O_R   0.504320 0.317540 0.369018 -0.401788
O10   O     O_R   0.633664 0.331575 0.541028 -0.345975
N38   N     N_R   0.405657 0.424020 0.513454 0.245761
O11   O     O_R   0.352397 0.395557 0.530730 -0.343373
O12   O     O_R   0.373924 0.470281 0.460848 -0.363811
N39   N     N_R   0.055287 0.847162 0.456610 0.244808
O13   O     O_R   0.009972 0.815354 0.370767 -0.392076
O14   O     O_R   0.136562 0.831188 0.543679 -0.335927
N40   N     N_R   0.901888 0.921827 0.504536 0.241979
O15   O     O_R   0.848685 0.893746 0.522446 -0.396667
O16   O     O_R   0.869402 0.967335 0.449257 -0.381822

loop_
_geom_bond_atom_site_label_1
_geom_bond_atom_site_label_2
_geom_bond_distance
_ccdc_geom_bond_type
C22   H18   1.080158 S    
C87   N35   1.467507 S    
C83   H51   1.111891 S    
C72   C76   1.407264 A    
C57   C61   1.398423 A    
C30   C34   1.387918 A    
N12   Ni3   1.868773 S    
C73   C77   1.399671 A    
C26   N26   1.338616 A    
C3    F3    1.345972 S    
C66   H38   1.081739 S    
C25   N25   1.341473 A    
C14   N14   1.335845 A    
C20   N20   1.340425 A    
N13   Ni6   1.871373 S    
C4    N4    1.318487 A    
C69   H41   1.081605 S    
C51   C55   1.341257 D    
N6    Ni6   1.851536 S    
C27   N27   1.341178 A    
N5    Ni5   1.847646 S    
C60   C88   1.505923 S    
C83   C85   1.506477 S    
C60   C78   1.371459 A    
C89   C90   1.374841 A    
C82   C88   1.502941 S    
C18   C42   1.393241 A    
C7    N7    1.322843 A    
C86   N34   1.465779 S    
C104  N40   1.466736 S    
C8    N8    1.315735 A    
C38   C62   1.452404 S    
C77   C81   1.502036 S    
C1    N1    1.314486 A    
C76   C80   1.403524 A    
C83   H47   1.112536 S    
C79   C83   1.504325 S    
C85   F5    1.386956 S    
C20   H16   1.074267 S    
C3    N3    1.326571 A    
C98   F10   1.356033 S    
C50   C54   1.341666 D    
C15   H11   1.081920 S    
C97   F9    1.356299 S    
C4    F4    1.355611 S    
C16   C48   1.381144 A    
C66   C72   1.400622 A    
C20   C44   1.386712 A    
C29   C33   1.385654 A    
C56   H36   1.086566 S    
C101  N37   1.464751 S    
C7    C39   1.378668 A    
C32   C36   1.387159 A    
C102  N38   1.466529 S    
C21   H17   1.080751 S    
C6    C38   1.374886 A    
C49   C53   1.336714 D    
C5    H1    1.075161 S    
C40   C64   1.440423 S    
C23   N23   1.338343 A    
C78   C82   1.506785 S    
C7    H3    1.074821 S    
C60   C64   1.397461 A    
C22   N22   1.332181 A    
C11   C43   1.367779 A    
C72   H44   1.082342 S    
N16   Ni7   1.867690 S    
C58   C80   1.377554 A    
N34   O3    1.302153 A    
C2    F2    1.354717 S    
C26   H22   1.080992 S    
C68   C70   1.395246 A    
N11   Ni4   1.860415 S    
C25   H21   1.075264 S    
C82   H50   1.111886 S    
N7    Ni7   1.847646 S    
C15   N15   1.338891 A    
C70   H42   1.082159 S    
C95   C99   1.408583 A    
C88   F8    1.387030 S    
C16   N16   1.336910 A    
C68   H40   1.082211 S    
N23   Ni3   1.847180 S    
C29   N29   1.337936 A    
C29   H25   1.080331 S    
C84   C86   1.501453 S    
C17   N17   1.342864 A    
C59   C87   1.508935 S    
C65   C71   1.398867 A    
C4    C36   1.370093 A    
N27   Ni8   1.863574 S    
N12   N20   1.387154 A    
N2    Ni2   1.858865 S    
C39   C63   1.453689 S    
C2    N2    1.320576 A    
N40   O16   1.302489 A    
C47   C56   1.452851 S    
C88   N36   1.467482 S    
C10   C42   1.381816 A    
C57   C79   1.374534 A    
N38   O12   1.302495 A    
N38   O11   1.300590 A    
N17   Ni5   1.867430 S    
C18   H14   1.078470 S    
N37   O9    1.300462 A    
C103  H55   1.113562 S    
N33   O2    1.301052 A    
C2    C34   1.374326 A    
N24   Ni4   1.850877 S    
C82   H46   1.112278 S    
C42   C93   1.455430 S    
C19   C43   1.389030 A    
C21   C45   1.379739 A    
N8    N28   1.376702 A    
N10   Ni1   1.868773 S    
C99   C100  1.400707 A    
C14   C46   1.376828 A    
C8    H4    1.065076 S    
N9    Ni2   1.860415 S    
C16   H12   1.077144 S    
C13   C45   1.381586 A    
C100  F12   1.356175 S    
C62   C66   1.407121 A    
C53   H33   1.086941 S    
C104  H56   1.113144 S    
N8    Ni8   1.851536 S    
C89   C93   1.398622 A    
N36   O7    1.302294 A    
C19   H15   1.079615 S    
C30   H26   1.080810 S    
C9    N9    1.320574 A    
N29   Ni2   1.843821 S    
C23   C47   1.374332 A    
C92   C96   1.402511 A    
C52   C56   1.338828 D    
C12   C44   1.375590 A    
C11   N11   1.318473 A    
N31   Ni4   1.843821 S    
C94   C98   1.412192 A    
C67   H39   1.082256 S    
C91   C92   1.372456 A    
C12   N12   1.322325 A    
C90   C94   1.400049 A    
N33   O1    1.302625 A    
C91   C95   1.394180 A    
N15   Ni8   1.871373 S    
N10   N18   1.387154 A    
N14   Ni5   1.867690 S    
N35   O5    1.302333 A    
N28   Ni7   1.872134 S    
C17   H13   1.079416 S    
C81   H49   1.111802 S    
N6    N26   1.376702 A    
C31   C35   1.392731 A    
C18   N18   1.339624 A    
N5    N25   1.376701 A    
C91   C104  1.504018 S    
N20   Ni8   1.859081 S    
C103  N39   1.464941 S    
C63   C67   1.406311 A    
N39   O14   1.302359 A    
C90   C101  1.507109 S    
N22   Ni2   1.850877 S    
N7    N27   1.376701 A    
C89   C102  1.507072 S    
N21   Ni1   1.847180 S    
C17   C41   1.389698 A    
C81   C87   1.505535 S    
N4    N32   1.376700 A    
C80   C84   1.505232 S    
N15   N23   1.387386 A    
N35   O6    1.300926 A    
C25   C37   1.389266 A    
C27   H23   1.080233 S    
C34   C73   1.457404 S    
C11   H7    1.078939 S    
C61   C65   1.405652 A    
C6    H2    1.077267 S    
C75   C79   1.400782 A    
N16   N24   1.387400 A    
N26   Ni5   1.872134 S    
N40   O15   1.300644 A    
C48   C55   1.442447 S    
C41   C94   1.458547 S    
C45   C54   1.438015 S    
C99   F11   1.357276 S    
N3    N31   1.376701 A    
C57   C85   1.507232 S    
C12   H8    1.077416 S    
C19   N19   1.342557 A    
C28   C40   1.384869 A    
C5    N5    1.320805 A    
C97   C98   1.404058 A    
C84   H48   1.112116 S    
C44   C95   1.446154 S    
C9    H5    1.078522 S    
C5    C37   1.374036 A    
C10   N10   1.324622 A    
C55   H35   1.085064 S    
C14   H10   1.082029 S    
C43   C96   1.452937 S    
C64   C68   1.405186 A    
C21   N21   1.329877 A    
C24   C48   1.382647 A    
C31   H27   1.078673 S    
C58   C62   1.397858 A    
N13   N21   1.387386 A    
C51   C52   1.462335 S    
C52   H32   1.084306 S    
N32   Ni3   1.839922 S    
C93   C97   1.409318 A    
C65   H37   1.082543 S    
C92   C103  1.510228 S    
C31   N31   1.342107 A    
C1    F1    1.356111 S    
C70   C74   1.404747 A    
C23   H19   1.081178 S    
C71   H43   1.081804 S    
C30   N30   1.343214 A    
C96   C100  1.410502 A    
C24   H20   1.080482 S    
C59   C63   1.401283 A    
C13   N13   1.337295 A    
N11   N19   1.387140 A    
N4    Ni4   1.858865 S    
C59   C77   1.376849 A    
C9    C41   1.373133 A    
C28   N28   1.338105 A    
N34   O4    1.300675 A    
C84   H52   1.112644 S    
C49   C50   1.459164 S    
C85   N33   1.467574 S    
N19   Ni7   1.867430 S    
C102  H54   1.113168 S    
C32   H28   1.080876 S    
N1    Ni1   1.867404 S    
C6    N6    1.320502 A    
C28   H24   1.075568 S    
C101  H53   1.113535 S    
N18   Ni6   1.859081 S    
C46   C53   1.449443 S    
N37   O10   1.302290 A    
N3    Ni3   1.867404 S    
C13   H9    1.077916 S    
N36   O8    1.300830 A    
C27   C39   1.393526 A    
C33   C74   1.442632 S    
C50   H30   1.086138 S    
C87   F7    1.386885 S    
C37   C61   1.446708 S    
C8    C40   1.371279 A    
C15   C47   1.372354 A    
C74   C78   1.400742 A    
C10   H6    1.077029 S    
C103  C104  1.515322 S    
C49   H29   1.084200 S    
C26   C38   1.385366 A    
C67   C69   1.401554 A    
C36   C75   1.451791 S    
N2    N30   1.376700 A    
C24   N24   1.333018 A    
C1    C33   1.367649 A    
C101  C102  1.514531 S    
C58   C86   1.504947 S    
N39   O13   1.300386 A    
N14   N22   1.387400 A    
C3    C35   1.378019 A    
C32   N32   1.342521 A    
N30   Ni1   1.839922 S    
C22   C46   1.378853 A    
C81   H45   1.112411 S    
C69   C73   1.408444 A    
C54   H34   1.085194 S    
N1    N29   1.376701 A    
C35   C76   1.458525 S    
N25   Ni6   1.863574 S    
N9    N17   1.387140 A    
C71   C75   1.406968 A    
C86   F6    1.387294 S    
C51   H31   1.086118 S    
