data_mof_unit_5970.cif
_audit_creation_date              2013-03-05T16:00:57-0500
_audit_creation_method            fapswitch 2.2
_symmetry_space_group_name_H-M    P1
_symmetry_Int_Tables_number       1
_space_group_crystal_system       triclinic
_cell_length_a                    10.592017
_cell_length_b                    14.82848
_cell_length_c                    14.80542
_cell_angle_alpha                 64.556401
_cell_angle_beta                  104.961322
_cell_angle_gamma                 102.313773
_cell_volume                      2014.65422019

loop_
_atom_site_label
_atom_site_type_symbol
_atom_site_description
_atom_site_fract_x
_atom_site_fract_y
_atom_site_fract_z
_atom_type_partial_charge
O1    O     O_R   0.454850 0.022100 0.338110 -0.592045
O2    O     O_R   0.545150 0.977900 0.661890 -0.592006
O3    O     O_R   0.512700 0.160150 0.379180 -0.551644
O4    O     O_R   0.487300 0.839850 0.620820 -0.551699
C1    C     C_R   0.478822 0.119484 0.312327 0.832605
C2    C     C_R   0.521219 0.880512 0.687676 0.832556
O5    O     O_R   0.287930 0.931000 0.479440 -0.615628
O6    O     O_R   0.712070 0.069000 0.520560 -0.615639
O7    O     O_R   0.345780 0.069050 0.520520 -0.508636
O8    O     O_R   0.654220 0.930950 0.479480 -0.508647
C3    C     C_R   0.259716 0.000343 0.499727 0.806399
C4    C     C_R   0.740284 0.999657 0.500272 0.806363
Cu1   Cu    Cu3+1 0.465750 0.918270 0.475680 1.006991
Cu2   Cu    Cu3+1 0.534250 0.081730 0.524320 1.007008
C5    C     C_3   0.010520 0.923056 0.478390 -0.096441
C6    C     C_3   0.989479 0.076944 0.521609 -0.096456
C7    C     C_3   0.927691 0.010378 0.407714 -0.179969
C8    C     C_3   0.072308 0.989622 0.592286 -0.179998
H1    H     H_    0.865240 0.018739 0.332363 0.165385
H2    H     H_    0.134760 0.981261 0.667637 0.165340
H3    H     H_    0.021589 0.859954 0.460614 0.169373
H4    H     H_    0.978411 0.140046 0.539386 0.169355
C9    C     C_3   0.877397 0.999815 0.500259 -0.010139
C10   C     C_3   0.122603 0.000185 0.499741 -0.010142
C11   C     C_3   0.957983 0.912616 0.570977 -0.123794
C12   C     C_3   0.042017 0.087383 0.429023 -0.123782
H5    H     H_    0.920634 0.841164 0.629022 0.188693
H6    H     H_    0.079367 0.158835 0.370978 0.188693
C13   C     C_R   0.471835 0.187315 0.204401 -0.124853
C14   C     C_R   0.528463 0.812653 0.795619 -0.124912
C15   C     C_R   0.459757 0.217613 0.027795 0.334403
C16   C     C_R   0.541213 0.782284 0.972331 0.334377
C17   C     C_R   0.459942 0.151053 0.129396 -0.235688
C18   C     C_R   0.540663 0.848873 0.870698 -0.235652
C19   C     C_R   0.483813 0.290641 0.177896 -0.219798
C20   C     C_R   0.516568 0.709335 0.822085 -0.219565
C21   C     C_R   0.487658 0.360353 0.077773 0.039544
C22   C     C_R   0.513236 0.639583 0.922265 0.039536
C23   C     C_R   0.469843 0.322740 0.001119 0.030694
C24   C     C_R   0.531262 0.677168 0.998971 0.030614
C25   C     C_R   0.505540 0.466240 0.051970 0.101121
C26   C     C_R   0.495570 0.533692 0.948066 0.101160
C27   C     C_R   0.466113 0.492986 0.873200 -0.230416
C28   C     C_R   0.535275 0.506922 0.126862 -0.230540
C29   C     C_R   0.456087 0.390444 0.899336 -0.161493
C30   C     C_R   0.545342 0.609457 0.100760 -0.161363
H7    H     H_    0.432558 0.364833 0.838001 0.198564
H8    H     H_    0.569109 0.635057 0.162113 0.198568
H9    H     H_    0.513082 0.685187 0.762723 0.188950
H10   H     H_    0.486886 0.314848 0.237149 0.188991
H11   H     H_    0.546693 0.928961 0.850076 0.210282
H12   H     H_    0.453854 0.070954 0.150055 0.210250
H13   H     H_    0.447387 0.537834 0.792598 0.142192
H14   H     H_    0.554286 0.462028 0.207455 0.142308
N1    N     N_R   0.585750 0.204560 0.560800 -0.230959
N2    N     N_R   0.414250 0.795440 0.439200 -0.230945
C31   C     C_R   0.729145 0.285603 0.663786 -0.246865
C32   C     C_R   0.270817 0.714385 0.336239 -0.247085
C33   C     C_R   0.695749 0.206706 0.631611 0.022790
C34   C     C_R   0.304236 0.793290 0.368402 0.022808
C35   C     C_R   0.507944 0.282091 0.515558 0.466362
C36   C     C_R   0.492048 0.717904 0.484443 0.466373
C37   C     C_R   0.548939 0.371163 0.535020 -0.110779
C38   C     C_R   0.451033 0.628827 0.464993 -0.110707
C39   C     C_R   0.654445 0.366819 0.617292 0.117118
C40   C     C_R   0.345514 0.633167 0.382730 0.117163
C41   C     C_R   0.484886 0.461482 0.480760 0.086476
C42   C     C_R   0.515077 0.538505 0.519256 0.086565
C43   C     C_R   0.604167 0.520494 0.612658 -0.156391
C44   C     C_R   0.395784 0.479490 0.387363 -0.156135
C45   C     C_R   0.678655 0.440215 0.656758 -0.138695
C46   C     C_R   0.321287 0.559764 0.343273 -0.138558
H15   H     H_    0.751585 0.432979 0.725311 0.156626
H16   H     H_    0.248345 0.566996 0.274727 0.156536
H17   H     H_    0.246090 0.855704 0.333004 0.150753
H18   H     H_    0.753899 0.144296 0.667011 0.150746
H19   H     H_    0.812133 0.282702 0.725371 0.162322
H20   H     H_    0.187816 0.717283 0.274664 0.162246
H21   H     H_    0.616170 0.566250 0.654765 0.186026
H22   H     H_    0.383780 0.433742 0.345249 0.186120
N3    N     N_R   0.626379 0.736468 0.530268 0.115207
O9    O     O_R   0.656709 0.740428 0.619454 -0.420828
O10   O     O_R   0.720182 0.738633 0.487089 -0.372757
N4    N     N_R   0.373619 0.263525 0.469721 0.115191
O11   O     O_R   0.279802 0.261338 0.512896 -0.372867
O12   O     O_R   0.343311 0.259579 0.380527 -0.420799
N5    N     N_R   0.453289 0.177206 0.953868 0.122307
O13   O     O_R   0.380038 0.093094 0.959796 -0.315225
O14   O     O_R   0.537798 0.213546 0.893116 -0.358360
N6    N     N_R   0.547915 0.822642 0.046337 0.122273
O15   O     O_R   0.621071 0.906815 0.040301 -0.315172
O16   O     O_R   0.463664 0.786188 0.107304 -0.358253

loop_
_geom_bond_atom_site_label_1
_geom_bond_atom_site_label_2
_geom_bond_distance
_ccdc_geom_bond_type
N5    O13   1.301406 A    
C37   C39   1.413205 A    
N1    C33   1.356385 A    
C25   C26   1.420263 A    
N3    O9    1.299903 A    
C17   H12   1.083429 S    
O5    C3    1.296000 A    
C4    C9    1.451854 S    
C18   H11   1.083429 S    
C7    C9    1.530544 S    
O1    C1    1.309765 A    
C7    C12   1.546698 S    
C38   C42   1.442575 A    
C19   C21   1.401494 A    
N4    O12   1.299931 A    
C22   C26   1.429221 A    
C5    C11   1.545148 S    
C32   C34   1.391432 A    
C13   C17   1.396469 A    
C3    C10   1.451855 S    
C35   C37   1.426148 A    
O4    Cu1   1.932559 S    
C43   C45   1.390202 A    
C36   C38   1.426133 A    
C27   H13   1.076019 S    
C16   N6    1.438353 S    
C40   C46   1.393438 A    
C42   C43   1.410842 A    
O6    Cu2   1.949619 S    
C15   C17   1.400173 A    
C8    C10   1.530544 S    
C23   C29   1.396094 A    
Cu1   N2    2.043544 S    
C9    C11   1.530609 S    
Cu2   N1    2.043544 S    
Cu1   Cu2   2.720304 S    
O2    C2    1.309804 A    
C8    C11   1.546700 S    
N3    O10   1.301387 A    
C32   C40   1.401126 A    
C1    C13   1.469736 S    
C29   H7    1.081710 S    
C6    C12   1.545150 S    
C37   C41   1.442579 A    
C15   N5    1.438374 S    
C14   C18   1.396410 A    
C44   H22   1.072768 S    
C41   C42   1.428631 A    
C31   H19   1.083726 S    
N4    O11   1.301368 A    
C46   H16   1.084125 S    
C45   H15   1.084126 S    
C28   C30   1.385536 A    
C39   C45   1.393448 A    
C35   N4    1.433712 S    
N2    C34   1.356390 A    
C38   C40   1.413204 A    
C24   C30   1.396127 A    
O7    Cu2   1.953111 S    
O7    C3    1.300857 A    
N6    O16   1.301619 A    
O5    Cu1   1.949619 S    
O6    C4    1.295999 A    
C19   H10   1.072545 S    
C27   C29   1.385572 A    
O3    Cu2   1.932560 S    
O8    C4    1.300856 A    
O4    C2    1.307366 A    
C5    C10   1.534647 S    
C2    C14   1.469803 S    
C36   N3    1.433717 S    
C6    C9    1.534647 S    
N5    O14   1.301603 A    
C25   C28   1.416320 A    
N2    C36   1.380938 A    
C43   H21   1.072776 S    
O1    Cu1   1.947355 S    
C26   C27   1.416438 A    
C5    C7    1.545195 S    
C6    H4    1.110356 S    
C10   C12   1.530609 S    
C31   C39   1.401119 A    
O3    C1    1.307381 A    
O8    Cu1   1.953112 S    
C11   H5    1.109960 S    
C13   C19   1.394204 A    
C34   H17   1.081771 S    
C12   H6    1.109961 S    
C14   C20   1.394242 A    
C41   C44   1.410848 A    
C20   C22   1.401514 A    
C21   C23   1.422358 A    
C22   C24   1.422428 A    
N6    O15   1.301415 A    
N1    C35   1.380938 A    
C7    H1    1.110224 S    
C15   C23   1.420997 A    
C8    H2    1.110224 S    
C16   C24   1.421050 A    
C21   C25   1.429079 A    
O2    Cu2   1.947355 S    
C31   C33   1.391435 A    
C32   H20   1.083729 S    
C30   H8    1.081699 S    
C28   H14   1.076122 S    
C5    H3    1.110357 S    
C6    C8    1.545196 S    
C44   C46   1.390207 A    
C33   H18   1.081761 S    
C20   H9    1.072391 S    
C16   C18   1.400176 A    
