data_mof_unit_52555.cif
_audit_creation_date              2012-12-11T14:43:40-0500
_audit_creation_method            fapswitch 2.2
_symmetry_space_group_name_H-M    P1
_symmetry_Int_Tables_number       1
_space_group_crystal_system       triclinic
_cell_length_a                    20.929913
_cell_length_b                    7.095919
_cell_length_c                    16.371664
_cell_angle_alpha                 88.349458
_cell_angle_beta                  92.617163
_cell_angle_gamma                 89.042357
_cell_volume                      2427.53018055

loop_
_atom_site_label
_atom_site_type_symbol
_atom_type_description
_atom_site_fract_x
_atom_site_fract_y
_atom_site_fract_z
_atom_type_partial_charge
O1    O     O_R   0.564840 0.505290 0.579830 -0.510229
O2    O     O_R   0.435160 0.005290 0.420170 -0.545959
O3    O     O_R   0.556720 0.179930 0.409350 -0.548900
O4    O     O_R   0.443280 0.679930 0.590650 -0.537868
C1    C     C_R   0.570878 0.346471 0.381499 0.683485
C2    C     C_R   0.429805 0.843732 0.619034 0.683450
O5    O     O_R   0.572280 0.175810 0.578530 -0.551363
O6    O     O_R   0.427720 0.675810 0.421470 -0.517662
O7    O     O_R   0.450830 0.001920 0.590540 -0.536489
O8    O     O_R   0.549170 0.501920 0.409460 -0.530604
C3    C     C_R   0.590794 0.340779 0.604144 0.758808
C4    C     C_R   0.409858 0.847710 0.395467 0.761595
O9    O     O_3   0.460130 0.338030 0.503750 -0.369191
O10   O     O_3   0.539870 0.838030 0.496250 -0.367158
V1    V     V_3+5 0.507400 0.064560 0.499310 1.468626
V2    V     V_3+5 0.492600 0.564560 0.500690 1.530461
C5    C     C_R   0.141002 0.895894 0.170848 -0.104754
C6    C     C_R   0.856240 0.434177 0.830871 -0.094766
C7    C     C_R   0.355873 0.870844 0.333443 -0.114805
C8    C     C_R   0.647048 0.335693 0.663751 -0.126844
C9    C     C_R   0.309582 0.045559 0.212832 0.378239
C10   C     C_R   0.713863 0.152901 0.766148 0.363760
C11   C     C_R   0.361199 0.003209 0.268892 -0.309011
C12   C     C_R   0.658642 0.173334 0.713970 -0.301919
C13   C     C_R   0.297324 0.779961 0.343372 0.322245
C14   C     C_R   0.692064 0.481065 0.665512 0.320641
C15   C     C_R   0.244683 0.819164 0.286397 -0.040273
C16   C     C_R   0.746904 0.465629 0.720476 -0.046480
C17   C     C_R   0.250991 0.953552 0.221307 0.078778
C18   C     C_R   0.758316 0.299574 0.769802 0.079756
C19   C     C_R   0.198826 0.991583 0.164744 -0.236612
C20   C     C_R   0.813441 0.284384 0.823303 -0.207405
C21   C     C_R   0.134288 0.765399 0.236167 0.401655
C22   C     C_R   0.843959 0.600801 0.782457 0.427146
C23   C     C_R   0.186153 0.725722 0.292212 -0.187879
C24   C     C_R   0.789774 0.614660 0.728514 -0.190675
H1    H     H_    0.203647 0.090709 0.113892 0.184413
H2    H     H_    0.822081 0.158481 0.861495 0.186795
H3    H     H_    0.180154 0.618122 0.339167 0.154726
H4    H     H_    0.780900 0.746142 0.694555 0.146765
H5    H     H_    0.406014 0.075456 0.262563 0.136546
H6    H     H_    0.624545 0.060106 0.712107 0.156094
C25   C     C_R   0.381946 0.844443 0.838688 -0.134167
C26   C     C_R   0.618431 0.477812 0.168317 -0.140684
H7    H     H_    0.303852 0.817640 0.958793 0.128432
H8    H     H_    0.695701 0.528435 0.047870 0.148382
H9    H     H_    0.405333 0.831376 0.899135 0.157973
H10   H     H_    0.594949 0.523821 0.110562 0.155200
C27   C     C_R   0.389927 0.849692 0.691328 -0.249433
C28   C     C_R   0.610114 0.364625 0.308639 -0.248830
C29   C     C_R   0.082032 0.971498 0.733476 0.229142
C30   C     C_R   0.919307 0.354900 0.266674 0.244215
C31   C     C_R   0.119092 0.020118 0.667479 0.400825
C32   C     C_R   0.885760 0.371136 0.338118 0.398301
C33   C     C_R   0.185760 0.014217 0.676040 0.335242
C34   C     C_R   0.820485 0.416750 0.333799 0.349435
C35   C     C_R   0.216914 0.927761 0.747193 -0.115322
C36   C     C_R   0.785281 0.413507 0.257266 -0.107403
C37   C     C_R   0.179743 0.895959 0.817773 -0.069420
C38   C     C_R   0.820541 0.424564 0.184106 -0.121332
C39   C     C_R   0.284408 0.884745 0.752009 0.068009
C40   C     C_R   0.716480 0.407406 0.251097 0.071034
C41   C     C_R   0.315213 0.859164 0.830102 -0.044035
C42   C     C_R   0.685128 0.462081 0.175615 -0.073368
C43   C     C_R   0.279354 0.843187 0.899588 -0.206035
C44   C     C_R   0.720209 0.493043 0.106256 -0.139678
C45   C     C_R   0.212269 0.849745 0.894054 0.369763
C46   C     C_R   0.785979 0.460953 0.108305 0.368518
C47   C     C_R   0.321703 0.857089 0.682161 0.289605
C48   C     C_R   0.678029 0.339082 0.315396 0.280650
C49   C     C_R   0.419747 0.847211 0.770869 0.325042
C50   C     C_R   0.580756 0.434675 0.233888 0.332171
C51   C     C_R   0.111486 0.919126 0.810015 -0.242297
C52   C     C_R   0.888762 0.400317 0.190024 -0.240266
O11   O     O_R   0.950790 0.256670 0.090520 -0.540204
O12   O     O_R   0.049210 0.756670 0.909480 -0.518950
O13   O     O_R   0.927720 0.590370 0.921470 -0.504202
O14   O     O_R   0.072280 0.090370 0.078530 -0.537080
C53   C     C_R   0.910556 0.425748 0.893806 0.765563
C54   C     C_R   0.089128 0.918397 0.105857 0.800724
O15   O     O_R   0.943270 0.586180 0.090640 -0.523322
O16   O     O_R   0.056730 0.086180 0.909360 -0.546608
O17   O     O_R   0.064850 0.759970 0.079840 -0.517822
O18   O     O_R   0.935150 0.259970 0.920160 -0.549756
C55   C     C_R   0.929729 0.415971 0.118523 0.849613
C56   C     C_R   0.070255 0.919072 0.881490 0.903839
O19   O     O_3   0.039850 0.428050 0.996240 -0.380954
O20   O     O_3   0.960150 0.928050 0.003760 -0.383213
V3    V     V_3+5 0.992610 0.701540 0.000700 1.635373
V4    V     V_3+5 0.007390 0.201540 0.999300 1.553564
O21   O     O_3   0.290077 0.822593 0.608061 -0.604341
H11   H     H_    0.320773 0.797374 0.565473 0.307244
O22   O     O_3   0.707579 0.238446 0.380696 -0.610837
H12   H     H_    0.675548 0.184613 0.416730 0.302838
Cl1   Cl    Cl    0.997889 0.997109 0.721932 -0.517555
Cl2   Cl    Cl    0.000937 0.284667 0.274149 -0.538761
O23   O     O_3   0.218310 0.114189 0.618000 -0.571066
H13   H     H_    0.257140 0.166498 0.645157 0.307210
O24   O     O_3   0.794433 0.480895 0.404067 -0.572889
H14   H     H_    0.758402 0.568685 0.387991 0.309760
Cl3   Cl    Cl    0.082326 0.109150 0.574686 -0.362926
Cl4   Cl    Cl    0.926232 0.347397 0.434953 -0.361044
O25   O     O_3   0.178453 0.814329 0.963176 -0.670582
H15   H     H_    0.208425 0.778999 0.009983 0.276566
O26   O     O_3   0.814484 0.464713 0.034548 -0.654604
H16   H     H_    0.830710 0.334394 0.027483 0.256594
O27   O     O_3   0.076230 0.678952 0.244539 -0.609404
H17   H     H_    0.077809 0.603873 0.296599 0.351827
O28   O     O_3   0.885461 0.749730 0.788519 -0.601744
H18   H     H_    0.868659 0.857517 0.753571 0.333669
O29   O     O_3   0.315491 0.176514 0.149571 -0.644949
H19   H     H_    0.359285 0.227909 0.152465 0.303100
O30   O     O_3   0.724788 0.991666 0.814547 -0.647544
H20   H     H_    0.689556 0.902464 0.804183 0.302345
O31   O     O_3   0.292716 0.659032 0.410326 -0.634243
H21   H     H_    0.250258 0.678798 0.433205 0.321368
O32   O     O_3   0.682166 0.633029 0.611577 -0.635480
H22   H     H_    0.723785 0.666587 0.589256 0.309662
O33   O     O_3   0.485338 0.839334 0.786044 -0.638128
H23   H     H_    0.507801 0.845459 0.734269 0.281779
O34   O     O_3   0.515341 0.459789 0.221129 -0.640518
H24   H     H_    0.492728 0.397662 0.265998 0.279286

loop_
_geom_bond_atom_site_label_1
_geom_bond_atom_site_label_2
_ccdc_geom_bond_type
C36   C40   A    
C44   C46   A    
C41   C43   A    
O22   H12   S    
C50   O34   S    
C15   C17   A    
C12   H6    S    
C31   C33   A    
C23   H3    S    
O29   H19   S    
O1    C3    A    
C14   O32   S    
O2    C4    A    
C2    O7    A    
O23   H13   S    
C45   O25   S    
O14   V4    S    
O5    C3    A    
O13   V3    S    
C5    C21   A    
H8    C44   S    
C30   C52   A    
C13   O31   S    
C53   O18   A    
O14   C54   A    
C35   C37   A    
C36   C38   A    
O31   H21   S    
C40   C48   A    
C38   C52   A    
C39   C41   A    
C28   C50   A    
C40   C42   A    
O11   V4    S    
C37   C45   A    
O11   C55   A    
C10   O30   S    
C8    C12   A    
C31   Cl3   S    
C6    C53   S    
C43   C45   A    
C21   O27   S    
O27   H17   S    
C30   Cl2   S    
C20   H2    S    
C37   C51   A    
O12   V3    S    
O15   V3    S    
O5    V1    S    
C47   O21   S    
O6    V2    S    
C27   C47   A    
O18   V4    S    
C54   O17   A    
C9    O29   S    
C30   C32   A    
O13   C53   A    
C9    C11   A    
O17   V3    S    
C32   C34   A    
C3    C8    S    
C25   C41   A    
C24   H4    S    
C48   O22   S    
O4    C2    A    
O21   H11   S    
C15   C23   A    
O16   C56   A    
C9    C17   A    
C5    C54   S    
C26   C42   A    
C19   H1    S    
C29   C31   A    
C42   C44   A    
O4    V2    S    
C7    C11   A    
O24   H14   S    
O6    C4    A    
C33   O23   S    
O1    V2    S    
O2    V1    S    
C6    C22   A    
C38   C46   A    
O34   H24   S    
O20   V4    S    
C33   C35   A    
H7    C43   S    
C5    C19   A    
C10   C12   A    
C1    C28   S    
O19   V4    S    
C6    C20   A    
C46   O26   S    
O12   C56   A    
O3    V1    S    
O30   H20   S    
C39   C47   A    
C25   C49   A    
C10   C18   A    
C32   Cl4   S    
C29   C51   A    
O3    C1    A    
C11   H5    S    
O33   H23   S    
C35   C39   A    
C13   C15   A    
O26   H16   S    
C14   C16   A    
O16   V4    S    
C49   O33   S    
O19   V3    S    
C28   C48   A    
C1    O8    A    
C17   C19   A    
O8    V2    S    
O32   H22   S    
C18   C20   A    
C8    C14   A    
C4    C7    S    
C16   C18   A    
C21   C23   A    
C34   C36   A    
C26   C50   A    
C22   C24   A    
C52   C55   S    
O7    V1    S    
C7    C13   A    
C51   C56   S    
O20   V3    S    
C16   C24   A    
C27   C49   A    
O9    V2    S    
O25   H15   S    
C22   O28   S    
O10   V1    S    
C34   O24   S    
O28   H18   S    
C25   H9    S    
O15   C55   A    
C2    C27   S    
C26   H10   S    
C29   Cl1   S    
