data_mof_unit_14778.cif
_audit_creation_date              2013-03-05T16:47:42-0500
_audit_creation_method            fapswitch 2.2
_symmetry_space_group_name_H-M    P1
_symmetry_Int_Tables_number       1
_space_group_crystal_system       triclinic
_cell_length_a                    10.938701
_cell_length_b                    12.939342
_cell_length_c                    11.77958
_cell_angle_alpha                 97.924597
_cell_angle_beta                  93.636256
_cell_angle_gamma                 93.032917
_cell_volume                      1644.82162943

loop_
_atom_site_label
_atom_site_type_symbol
_atom_site_description
_atom_site_fract_x
_atom_site_fract_y
_atom_site_fract_z
_atom_type_partial_charge
O1    O     O_R   0.506570 0.354460 0.582000 -0.540787
O2    O     O_R   0.493430 0.645540 0.418000 -0.540823
O3    O     O_R   0.490940 0.341410 0.386200 -0.599185
O4    O     O_R   0.509060 0.658590 0.613800 -0.599167
C1    C     C_R   0.496604 0.299750 0.479933 0.805668
C2    C     C_R   0.503391 0.700250 0.520066 0.805642
O5    O     O_R   0.327460 0.506540 0.597900 -0.496309
O6    O     O_R   0.672540 0.493460 0.402100 -0.496323
O7    O     O_R   0.311830 0.493480 0.402100 -0.608149
O8    O     O_R   0.688170 0.506520 0.597900 -0.608128
C3    C     C_R   0.262873 0.506218 0.500986 0.833997
C4    C     C_R   0.737129 0.493797 0.499014 0.834029
Cu1   Cu    Cu3+1 0.509250 0.507730 0.615930 1.039344
Cu2   Cu    Cu3+1 0.490750 0.492270 0.384070 1.039316
C5    C     C_R   0.207877 0.682622 0.199963 -0.087406
C6    C     C_R   0.792294 0.317030 0.799722 -0.087235
H1    H     H_    0.245256 0.762087 0.202395 0.156453
H2    H     H_    0.755056 0.237512 0.797180 0.156174
C7    C     C_R   0.161502 0.650467 0.298245 -0.100738
C8    C     C_R   0.838685 0.349349 0.701533 -0.101071
H3    H     H_    0.163045 0.705824 0.376278 0.118182
H4    H     H_    0.837287 0.294066 0.623457 0.118291
C9    C     C_R   0.111980 0.547554 0.295321 0.206932
C10   C     C_R   0.888038 0.452326 0.704599 0.206921
C11   C     C_R   0.110953 0.477114 0.193044 -0.071224
C12   C     C_R   0.888879 0.522669 0.806927 -0.070982
C13   C     C_R   0.155401 0.510353 0.094562 -0.145669
C14   C     C_R   0.844375 0.489278 0.905311 -0.145965
C15   C     C_R   0.204557 0.612681 0.098102 -0.085276
C16   C     C_R   0.795401 0.386880 0.901628 -0.085116
C17   C     C_R   0.929489 0.496956 0.394907 0.334089
C18   C     C_R   0.070510 0.503119 0.605096 0.334173
C19   C     C_R   0.871350 0.487660 0.497491 -0.245057
C20   C     C_R   0.128655 0.512392 0.502508 -0.245046
C21   C     C_R   0.943053 0.484125 0.601214 -0.162763
C22   C     C_R   0.056953 0.515915 0.398778 -0.162741
C23   C     C_R   0.511962 0.813159 0.530564 -0.035376
C24   C     C_R   0.488029 0.186840 0.469432 -0.035387
C25   C     C_R   0.402709 0.019965 0.370549 -0.140229
C26   C     C_R   0.597287 0.980034 0.629440 -0.140249
C27   C     C_R   0.415619 0.128075 0.377953 -0.154557
C28   C     C_R   0.584375 0.871925 0.622038 -0.154535
C29   C     C_R   0.550273 0.137622 0.551769 -0.172028
C30   C     C_R   0.449718 0.862376 0.448225 -0.171997
C31   C     C_R   0.537327 0.029645 0.545616 0.150418
C32   C     C_R   0.462666 0.970352 0.454375 0.150430
H5    H     H_    0.390586 0.816689 0.380229 0.159189
H6    H     H_    0.609400 0.183309 0.619767 0.159225
H7    H     H_    0.632752 0.834036 0.686406 0.164515
H8    H     H_    0.367244 0.165964 0.313585 0.164519
N1    N     N_R   0.523180 0.519350 0.790130 -0.257010
N2    N     N_R   0.476820 0.480650 0.209870 -0.257017
C33   C     C_R   0.416040 0.376935 0.028494 0.257328
C34   C     C_R   0.583980 0.623047 0.971510 0.257292
C35   C     C_R   0.422454 0.392446 0.148518 -0.045939
C36   C     C_R   0.577557 0.607547 0.851486 -0.046021
C37   C     C_R   0.526501 0.558847 0.154579 0.529859
C38   C     C_R   0.473495 0.441150 0.845417 0.529859
C39   C     C_R   0.528276 0.546344 0.032205 -0.232547
C40   C     C_R   0.471730 0.453644 0.967794 -0.232555
H9    H     H_    0.619709 0.666172 0.806807 0.166983
H10   H     H_    0.380309 0.333819 0.193200 0.166984
H11   H     H_    0.239762 0.637787 0.021841 0.189253
H12   H     H_    0.760165 0.361648 0.977812 0.189117
N3    N     N_R   0.431775 0.343110 0.780071 0.161065
O9    O     O_R   0.328502 0.333248 0.717461 -0.260002
O10   O     O_R   0.493958 0.261252 0.788669 -0.376045
N4    N     N_R   0.568206 0.656893 0.219919 0.161029
O11   O     O_R   0.671478 0.666768 0.282531 -0.259973
O12   O     O_R   0.506023 0.738748 0.211298 -0.376134
N5    N     N_R   0.349525 0.283596 0.972277 0.161065
O13   O     O_R   0.382368 0.193302 0.995939 -0.306351
O14   O     O_R   0.240796 0.289494 0.923088 -0.294318
N6    N     N_R   0.650551 0.716355 0.027736 0.161095
O15   O     O_R   0.759310 0.710411 0.076837 -0.294263
O16   O     O_R   0.617721 0.806673 0.004143 -0.306269
H13   H     H_    0.073502 0.397429 0.189138 0.160513
H14   H     H_    0.926195 0.602403 0.810942 0.160468
H15   H     H_    0.151246 0.456957 0.015301 0.221817
H16   H     H_    0.848328 0.542607 0.984606 0.221750
N7    N     N_R   0.860443 0.482123 0.285193 0.132831
O17   O     O_R   0.862246 0.555204 0.219693 -0.319425
O18   O     O_R   0.809775 0.390161 0.244256 -0.371826
N8    N     N_R   0.139546 0.517993 0.714817 0.132829
O19   O     O_R   0.137787 0.444928 0.780336 -0.319641
O20   O     O_R   0.190230 0.609958 0.755710 -0.371746
H17   H     H_    0.345715 0.975390 0.300023 0.159001
H18   H     H_    0.654283 0.024608 0.699964 0.158954

loop_
_geom_bond_atom_site_label_1
_geom_bond_atom_site_label_2
_geom_bond_distance
_ccdc_geom_bond_type
C15   H11   1.082561 S    
C16   H12   1.082528 S    
C13   C15   1.396633 A    
C25   H17   1.084274 S    
N7    O17   1.300401 A    
C25   C27   1.388622 A    
C31   C32   1.416239 A    
O5    C3    1.303259 A    
C12   H14   1.082955 S    
N6    O16   1.301254 A    
O1    C1    1.303494 A    
C7    H3    1.083275 S    
C10   C12   1.405936 A    
C5    C7    1.398477 A    
C13   H15   1.079150 S    
C37   C39   1.429723 A    
C38   C40   1.429743 A    
C35   H10   1.081151 S    
C23   C28   1.403126 A    
N1    C36   1.350827 A    
O4    Cu1   1.955757 S    
Cu1   N1    2.032089 S    
Cu2   N2    2.032088 S    
C8    C10   1.405816 A    
N4    O11   1.299806 A    
N3    O10   1.300729 A    
C17   C19   1.417253 A    
C29   H6    1.082884 S    
C30   H5    1.082889 S    
C6    C8    1.398409 A    
C26   C28   1.388615 A    
C39   C40   1.417046 A    
C34   N6    1.432447 S    
Cu1   Cu2   2.704708 S    
O2    C2    1.303484 A    
O2    Cu2   1.966605 S    
N7    O18   1.301429 A    
C33   C40   1.433348 A    
C30   C32   1.388223 A    
C5    C15   1.397004 A    
C34   C39   1.433326 A    
C33   C35   1.397083 A    
C26   C31   1.398014 A    
C18   N8    1.438748 S    
C34   C36   1.397073 A    
C10   C21   1.489792 S    
N6    O15   1.300174 A    
C18   C21   1.399604 A    
N8    O19   1.300388 A    
C24   C27   1.403140 A    
O4    C2    1.293259 A    
N5    O14   1.300196 A    
C18   C20   1.417275 A    
C7    C9    1.405878 A    
O7    Cu2   1.982636 S    
C29   C31   1.388220 A    
C38   N3    1.426529 S    
O6    C4    1.303243 A    
C2    C23   1.446629 S    
N1    C38   1.382668 A    
O7    C3    1.306263 A    
O3    Cu2   1.955755 S    
O8    C4    1.306264 A    
C25   C32   1.398024 A    
C6    H2    1.082164 S    
C8    H4    1.083252 S    
N3    O9    1.299808 A    
C11   H13   1.083001 S    
O1    Cu1   1.966603 S    
C37   N4    1.426528 S    
C33   N5    1.432450 S    
C27   H8    1.083676 S    
C5    H1    1.082197 S    
O6    Cu2   1.985434 S    
C36   H9    1.081144 S    
C3    C20   1.475665 S    
N8    O20   1.301416 A    
O3    C1    1.293251 A    
O8    Cu1   1.982636 S    
N2    C35   1.350831 A    
C11   C13   1.397908 A    
C12   C14   1.397914 A    
C17   N7    1.438751 S    
C26   H18   1.084263 S    
C23   C30   1.393676 A    
C14   C16   1.396589 A    
C24   C29   1.393665 A    
C19   C21   1.416956 A    
C20   C22   1.416987 A    
C9    C11   1.405969 A    
C14   H16   1.079118 S    
N2    C37   1.382647 A    
C28   H7    1.083671 S    
O5    Cu1   1.985434 S    
N5    O13   1.301273 A    
N4    O12   1.300729 A    
C9    C22   1.489855 S    
C17   C22   1.399620 A    
C4    C19   1.475648 S    
C1    C24   1.446636 S    
C6    C16   1.396942 A    
