data_mof_unit_60655.cif
_audit_creation_date              2013-03-05T16:29:45-0500
_audit_creation_method            fapswitch 2.2
_symmetry_space_group_name_H-M    P1
_symmetry_Int_Tables_number       1
_space_group_crystal_system       triclinic
_cell_length_a                    38.954504
_cell_length_b                    32.237987
_cell_length_c                    21.741775
_cell_angle_alpha                 89.993071
_cell_angle_beta                  124.150473
_cell_angle_gamma                 90.049738
_cell_volume                      22595.5593256

loop_
_atom_site_label
_atom_site_type_symbol
_atom_site_description
_atom_site_fract_x
_atom_site_fract_y
_atom_site_fract_z
_atom_type_partial_charge
O1    O     O_R   0.940150 0.034650 0.440170 -0.571895
O2    O     O_R   0.059850 0.034650 0.559830 -0.571269
O3    O     O_R   0.440150 0.534650 0.440170 -0.570679
O4    O     O_R   0.559850 0.534650 0.559830 -0.570315
O5    O     O_R   0.940170 0.965370 0.440140 -0.578270
O6    O     O_R   0.059830 0.965370 0.559860 -0.578903
O7    O     O_R   0.440170 0.465370 0.440140 -0.579463
O8    O     O_R   0.559830 0.465370 0.559860 -0.581779
C1    C     C_R   0.920427 0.999970 0.420770 0.821500
C2    C     C_R   0.079573 0.000002 0.579221 0.821518
C3    C     C_R   0.420428 0.499968 0.420784 0.822170
C4    C     C_R   0.579572 0.500009 0.579101 0.822024
O9    O     O_R   0.000000 0.034650 0.590170 -0.573806
O10   O     O_R   0.000000 0.034650 0.409830 -0.572686
O11   O     O_R   0.500000 0.534650 0.590170 -0.573458
O12   O     O_R   0.500000 0.534650 0.409830 -0.572149
O13   O     O_R   0.000010 0.965370 0.590140 -0.587389
O14   O     O_R   0.999990 0.965370 0.409860 -0.587435
O15   O     O_R   0.500010 0.465370 0.590140 -0.587821
O16   O     O_R   0.499990 0.465370 0.409860 -0.588783
C5    C     C_R   0.000921 0.000043 0.619951 0.791333
C6    C     C_R   0.999082 0.000045 0.380053 0.792106
C7    C     C_R   0.500911 0.500040 0.619938 0.792256
C8    C     C_R   0.499083 0.500043 0.380054 0.792112
Cu1   Cu    Cu3+1 0.000000 0.041020 0.500000 0.993977
Cu2   Cu    Cu3+1 0.500000 0.541020 0.500000 0.996394
Cu3   Cu    Cu3+1 0.000000 0.958990 0.500000 0.971346
Cu4   Cu    Cu3+1 0.500000 0.458990 0.500000 0.965738
H1    H     H_    0.136254 0.132345 0.753216 0.136918
H2    H     H_    0.863525 0.131865 0.246449 0.136389
H3    H     H_    0.638095 0.630566 0.755585 0.148379
H4    H     H_    0.363012 0.631352 0.245867 0.137403
C9    C     C_R   0.081918 0.126190 0.755439 -0.108815
C10   C     C_R   0.918038 0.125937 0.244746 -0.112834
C11   C     C_R   0.583051 0.625274 0.755801 -0.107657
C12   C     C_R   0.417670 0.625664 0.244565 -0.111858
H5    H     H_    0.078926 0.159210 0.760236 0.157468
H6    H     H_    0.921070 0.158981 0.240193 0.158208
H7    H     H_    0.580207 0.658376 0.760065 0.160165
H8    H     H_    0.420636 0.658729 0.240088 0.158840
C13   C     C_R   0.053597 0.098701 0.753656 -0.112725
C14   C     C_R   0.946420 0.098558 0.246618 -0.115366
C15   C     C_R   0.554261 0.598202 0.753394 -0.111794
C16   C     C_R   0.446178 0.598403 0.246584 -0.115026
H9    H     H_    0.028823 0.110789 0.757208 0.156077
H10   H     H_    0.971282 0.110751 0.243371 0.161586
H11   H     H_    0.529288 0.610680 0.755982 0.157161
H12   H     H_    0.471064 0.610707 0.243517 0.161672
C17   C     C_R   0.057185 0.055821 0.747062 0.103459
C18   C     C_R   0.942775 0.055648 0.252897 0.103056
C19   C     C_R   0.557673 0.555222 0.747496 0.100973
C20   C     C_R   0.442617 0.555469 0.252764 0.103124
C21   C     C_R   0.089784 0.040805 0.743260 -0.126048
C22   C     C_R   0.910066 0.040489 0.256305 -0.127504
C23   C     C_R   0.590533 0.539678 0.744989 -0.126949
C24   C     C_R   0.409872 0.540162 0.255927 -0.129175
H13   H     H_    0.093388 0.007804 0.739254 0.109402
H14   H     H_    0.906427 0.007463 0.260076 0.109950
H15   H     H_    0.593984 0.506589 0.741533 0.112935
H16   H     H_    0.406301 0.507113 0.259617 0.109576
C25   C     C_R   0.118243 0.068418 0.745692 -0.117769
C26   C     C_R   0.881534 0.067991 0.253745 -0.117957
C27   C     C_R   0.619502 0.566864 0.748203 -0.109686
C28   C     C_R   0.381207 0.567543 0.253189 -0.118361
H17   H     H_    0.143566 0.056816 0.743502 0.131362
H18   H     H_    0.856107 0.056276 0.255568 0.131827
H19   H     H_    0.645100 0.554827 0.747294 0.136182
H20   H     H_    0.355737 0.555710 0.254775 0.132466
C29   C     C_R   0.114222 0.111056 0.751465 -0.108047
C30   C     C_R   0.885611 0.110661 0.248292 -0.108121
C31   C     C_R   0.615666 0.609610 0.753247 -0.100354
C32   C     C_R   0.385199 0.610240 0.247843 -0.106576
C33   C     C_R   0.026820 0.025415 0.810431 -0.214473
C34   C     C_R   0.973183 0.025369 0.189573 -0.210026
C35   C     C_R   0.526942 0.525269 0.810521 -0.211782
C36   C     C_R   0.473140 0.525330 0.189540 -0.210640
H21   H     H_    0.047071 0.045704 0.856989 0.164531
H22   H     H_    0.952925 0.045617 0.143009 0.160723
H23   H     H_    0.547332 0.545436 0.857189 0.165663
H24   H     H_    0.452847 0.545547 0.142950 0.160890
C37   C     C_R   0.999824 0.998460 0.813923 -0.072126
C38   C     C_R   0.000178 0.998466 0.186083 -0.070029
C39   C     C_R   0.499807 0.498462 0.813896 -0.072928
C40   C     C_R   0.500174 0.498469 0.186081 -0.070514
C41   C     C_R   0.973107 0.972177 0.753482 0.001768
C42   C     C_R   0.026897 0.972233 0.246533 0.001719
C43   C     C_R   0.472951 0.472305 0.753325 0.002085
C44   C     C_R   0.526915 0.472254 0.246546 0.001154
C45   C     C_R   0.974599 0.973053 0.690957 -0.225576
C46   C     C_R   0.025418 0.973116 0.309071 -0.224308
C47   C     C_R   0.474405 0.473201 0.690756 -0.225681
C48   C     C_R   0.525452 0.473143 0.309102 -0.226503
H25   H     H_    0.954329 0.952778 0.644392 0.153334
H26   H     H_    0.045691 0.952881 0.355644 0.153021
H27   H     H_    0.454029 0.453032 0.644084 0.152592
H28   H     H_    0.545748 0.452930 0.355694 0.151321
C49   C     C_R   0.001602 0.000010 0.687465 -0.069328
C50   C     C_R   0.998414 0.000016 0.312553 -0.068833
C51   C     C_R   0.501555 0.500003 0.687410 -0.069340
C52   C     C_R   0.498415 0.500009 0.312556 -0.068327
C53   C     C_R   0.027823 0.026804 0.747419 0.000264
C54   C     C_R   0.972180 0.026745 0.252583 0.001098
C55   C     C_R   0.527953 0.526614 0.747523 0.000852
C56   C     C_R   0.472128 0.526685 0.252541 0.001056
C57   C     C_R   0.901151 0.946985 0.701722 -0.131443
C58   C     C_R   0.098832 0.947119 0.298272 -0.129382
C59   C     C_R   0.400942 0.447244 0.701503 -0.130906
C60   C     C_R   0.598841 0.447153 0.298170 -0.131967
H29   H     H_    0.889078 0.972104 0.661765 0.136575
H30   H     H_    0.110928 0.972250 0.338244 0.138062
H31   H     H_    0.388916 0.472360 0.661546 0.137135
H32   H     H_    0.610953 0.472297 0.338113 0.132988
C61   C     C_R   0.873614 0.918727 0.700769 -0.123248
C62   C     C_R   0.126344 0.918892 0.299202 -0.123239
C63   C     C_R   0.373352 0.419055 0.700542 -0.124274
C64   C     C_R   0.626338 0.418928 0.299044 -0.133353
H33   H     H_    0.840560 0.922107 0.660412 0.150624
H34   H     H_    0.159401 0.922307 0.339556 0.149811
H35   H     H_    0.340305 0.422485 0.660175 0.148594
H36   H     H_    0.659400 0.422358 0.339330 0.136659
C65   C     C_R   0.888742 0.885975 0.751574 -0.099206
C66   C     C_R   0.111185 0.886126 0.248376 -0.101900
C67   C     C_R   0.388418 0.386310 0.751359 -0.102400
C68   C     C_R   0.611158 0.386147 0.248247 -0.101604
H37   H     H_    0.867415 0.863980 0.750534 0.139182
H38   H     H_    0.132492 0.864156 0.249397 0.135854
H39   H     H_    0.367049 0.364373 0.750317 0.135246
H40   H     H_    0.632455 0.364180 0.249224 0.132139
C69   C     C_R   0.931420 0.881458 0.803431 -0.118027
C70   C     C_R   0.068502 0.881563 0.196522 -0.117980
C71   C     C_R   0.431086 0.381728 0.803233 -0.118521
C72   C     C_R   0.568470 0.381567 0.196476 -0.117724
H41   H     H_    0.943004 0.855779 0.842026 0.134767
H42   H     H_    0.056894 0.855874 0.157908 0.133382
H43   H     H_    0.442624 0.356058 0.841850 0.133461
H44   H     H_    0.556846 0.355869 0.157881 0.132843
C73   C     C_R   0.959084 0.909877 0.805081 -0.130592
C74   C     C_R   0.040865 0.909950 0.194897 -0.129757
C75   C     C_R   0.458802 0.410071 0.804880 -0.129496
C76   C     C_R   0.540846 0.409950 0.194905 -0.131304
H45   H     H_    0.992113 0.905918 0.845273 0.109743
H46   H     H_    0.007833 0.905955 0.154707 0.110529
H47   H     H_    0.491822 0.406060 0.845083 0.109359
H48   H     H_    0.507810 0.405945 0.154773 0.109138
C77   C     C_R   0.944069 0.942888 0.754213 0.114383
C78   C     C_R   0.055910 0.942976 0.245784 0.113197
C79   C     C_R   0.443851 0.443081 0.754011 0.114346
C80   C     C_R   0.555913 0.442991 0.245765 0.116616
H49   H     H_    0.787402 0.008440 0.191752 0.143077
H50   H     H_    0.212676 0.011752 0.807522 0.142511
H51   H     H_    0.287388 0.505482 0.191325 0.142857
H52   H     H_    0.712675 0.437539 0.681351 0.150104
C81   C     C_R   0.727974 0.005487 0.176461 -0.221442
C82   C     C_R   0.272068 0.005404 0.823501 -0.221520
C83   C     C_R   0.227962 0.501997 0.175968 -0.222148
C84   C     C_R   0.772075 0.466134 0.755727 -0.229103
H53   H     H_    0.711221 0.009030 0.116719 0.160453
H54   H     H_    0.288850 0.010978 0.882776 0.160301
H55   H     H_    0.211201 0.504825 0.116109 0.159893
H56   H     H_    0.788858 0.438497 0.759049 0.158859
C85   C     C_R   0.706356 0.001216 0.210365 0.021426
C86   C     C_R   0.293648 0.997891 0.790299 0.021696
C87   C     C_R   0.206352 0.498075 0.209945 0.022003
C88   C     C_R   0.793656 0.501959 0.795355 0.023701
C89   C     C_R   0.728711 0.996488 0.288625 0.343204
C90   C     C_R   0.271257 0.990763 0.712591 0.343121
C91   C     C_R   0.228717 0.494530 0.288398 0.343134
C92   C     C_R   0.771265 0.537944 0.790336 0.349762
C93   C     C_R   0.772398 0.995725 0.330557 -0.224806
C94   C     C_R   0.227569 0.991865 0.670272 -0.224089
C95   C     C_R   0.272407 0.495476 0.330597 -0.224573
C96   C     C_R   0.727576 0.536905 0.744706 -0.238148
H57   H     H_    0.789998 0.992244 0.390408 0.178579
H58   H     H_    0.209940 0.986389 0.610880 0.178877
H59   H     H_    0.290013 0.492705 0.390565 0.178704
H60   H     H_    0.709954 0.564059 0.740335 0.173130
C97   C     C_R   0.793624 0.000106 0.296107 0.091541
C98   C     C_R   0.206379 0.999277 0.704071 0.091606
C99   C     C_R   0.293625 0.499273 0.296036 0.091489
C100  C     C_R   0.706384 0.500915 0.705646 0.089784
C101  C     C_R   0.771307 0.005038 0.219026 -0.168405
C102  C     C_R   0.228736 0.005993 0.780745 -0.168206
C103  C     C_R   0.271297 0.502502 0.218675 -0.169062
C104  C     C_R   0.728742 0.465565 0.711323 -0.155563
C105  C     C_1   0.661500 0.000642 0.163427 0.038685
C106  C     C_1   0.338503 0.998852 0.836842 0.038472
C107  C     C_1   0.161498 0.498956 0.163257 0.037867
C108  C     C_1   0.838509 0.501114 0.838997 0.039896
C109  C     C_1   0.838379 0.999866 0.340112 -0.043587
C110  C     C_1   0.161623 0.999662 0.659965 -0.043123
C111  C     C_1   0.338381 0.499582 0.340113 -0.044115
C112  C     C_1   0.661627 0.500250 0.660397 -0.046323
C113  C     C_1   0.875836 0.999850 0.376952 -0.176390
C114  C     C_1   0.124166 0.999893 0.623073 -0.176487
C115  C     C_1   0.375837 0.499800 0.376971 -0.176585
C116  C     C_1   0.624166 0.500010 0.623079 -0.178204
C117  C     C_1   0.624028 0.000276 0.124649 -0.111941
C118  C     C_1   0.375974 0.999496 0.875410 -0.112075
C119  C     C_1   0.124028 0.499540 0.124612 -0.112726
C120  C     C_1   0.875978 0.500465 0.875870 -0.112482
O17   O     O_R   0.034640 0.940140 0.034570 -0.576072
O18   O     O_R   0.965360 0.940140 0.965430 -0.574537
O19   O     O_R   0.534640 0.440140 0.034570 -0.575822
O20   O     O_R   0.465360 0.440140 0.965430 -0.575567
C121  C     C_R   0.999982 0.920402 0.999986 0.817311
C122  C     C_R   0.499982 0.420402 0.999975 0.817561
O21   O     O_R   0.034650 0.999980 0.944430 -0.586750
O22   O     O_R   0.965350 0.999980 0.055570 -0.588393
O23   O     O_R   0.534650 0.499980 0.944430 -0.586462
O24   O     O_R   0.465350 0.499980 0.055570 -0.588862
O25   O     O_R   0.965370 0.000000 0.875180 -0.573213
O26   O     O_R   0.034630 0.000000 0.124820 -0.570928
O27   O     O_R   0.465370 0.500000 0.875180 -0.572697
O28   O     O_R   0.534630 0.500000 0.124820 -0.571375
C123  C     C_R   0.999901 0.999082 0.880824 0.794223
C124  C     C_R   0.000098 0.999087 0.119176 0.796493
C125  C     C_R   0.499898 0.499089 0.880818 0.794662
C126  C     C_R   0.500097 0.499094 0.119176 0.796500
Cu5   Cu    Cu3+1 0.041030 0.999980 0.040990 0.999843
Cu6   Cu    Cu3+1 0.958970 0.999980 0.959010 0.990106
Cu7   Cu    Cu3+1 0.541030 0.499980 0.040990 0.998951
Cu8   Cu    Cu3+1 0.458970 0.499980 0.959010 0.989734
O29   O     O_R   0.034650 0.059830 0.034650 -0.565153
O30   O     O_R   0.965350 0.059830 0.965350 -0.580228
O31   O     O_R   0.534650 0.559830 0.034650 -0.565462
O32   O     O_R   0.465350 0.559830 0.965350 -0.579450
C127  C     C_R   0.000036 0.079548 0.000044 0.823230
C128  C     C_R   0.500035 0.579548 0.000044 0.823650
O33   O     O_R   0.500020 0.940200 0.052240 -0.572949
O34   O     O_R   0.499980 0.940200 0.947760 -0.570478
O35   O     O_R   0.000020 0.440200 0.052240 -0.570699
O36   O     O_R   0.999980 0.440200 0.947760 -0.577891
C129  C     C_R   0.499953 0.920659 0.999957 0.814309
C130  C     C_R   0.999956 0.420659 0.999961 0.810323
O37   O     O_R   0.559850 0.000040 0.112000 -0.551028
O38   O     O_R   0.440150 0.000040 0.888000 -0.553053
O39   O     O_R   0.059850 0.500040 0.112000 -0.552527
O40   O     O_R   0.940150 0.500040 0.888000 -0.581474
O41   O     O_R   0.559860 0.999980 0.007620 -0.587010
O42   O     O_R   0.440140 0.999980 0.992380 -0.586546
O43   O     O_R   0.059860 0.499980 0.007620 -0.586947
O44   O     O_R   0.940140 0.499980 0.992380 -0.564718
C131  C     C_R   0.579411 0.000013 0.079497 0.806496
C132  C     C_R   0.420589 0.999967 0.920507 0.807414
C133  C     C_R   0.079411 0.499971 0.079495 0.807412
C134  C     C_R   0.920590 0.500014 0.920541 0.812479
Cu9   Cu    Cu3+1 0.500010 0.000050 0.061790 1.012303
Cu10  Cu    Cu3+1 0.499990 0.000050 0.938210 1.011055
Cu11  Cu    Cu3+1 0.000010 0.500050 0.061790 1.029237
Cu12  Cu    Cu3+1 0.999990 0.500050 0.938210 0.985384
O45   O     O_R   0.499990 0.059890 0.052110 -0.575866
O46   O     O_R   0.500010 0.059890 0.947890 -0.577887
O47   O     O_R   0.999990 0.559890 0.052110 -0.570103
O48   O     O_R   0.000010 0.559890 0.947890 -0.579600
C135  C     C_R   0.499999 0.079473 0.999996 0.811616
C136  C     C_R   0.999991 0.579473 0.999989 0.821177
H61   H     H_    0.008530 0.788221 0.106904 0.134970
H62   H     H_    0.991281 0.788227 0.892929 0.133805
H63   H     H_    0.508887 0.288227 0.107157 0.133328
H64   H     H_    0.490924 0.288221 0.892604 0.133684
C137  C     C_R   0.504993 0.228272 0.060228 -0.163354
C138  C     C_R   0.494859 0.228266 0.939576 -0.163913
C139  C     C_R   0.004774 0.728266 0.060078 -0.155227
C140  C     C_R   0.995041 0.728270 0.939750 -0.159872
H65   H     H_    0.508943 0.211763 0.107207 0.144337
H66   H     H_    0.490923 0.211754 0.892611 0.144034
H67   H     H_    0.008565 0.711755 0.106925 0.147090
H68   H     H_    0.991260 0.711761 0.892907 0.144147
C141  C     C_R   0.499937 0.206394 0.999914 0.146098
C142  C     C_R   0.999913 0.706394 0.999916 0.145896
C143  C     C_R   0.995043 0.771713 0.939754 -0.172467
C144  C     C_R   0.004764 0.771709 0.060074 -0.171783
C145  C     C_R   0.494849 0.271710 0.939563 -0.174879
C146  C     C_R   0.504972 0.271714 0.060208 -0.175472
C147  C     C_R   0.999904 0.793572 0.999916 0.153900
C148  C     C_R   0.499906 0.293573 0.999881 0.155053
C149  C     C_1   0.499962 0.161603 0.999941 -0.057362
C150  C     C_1   0.999938 0.661602 0.999934 -0.048373
C151  C     C_1   0.999921 0.838332 0.999933 -0.090510
C152  C     C_1   0.499918 0.338332 0.999889 -0.092707
C153  C     C_1   0.999944 0.875799 0.999953 -0.185382
C154  C     C_1   0.499941 0.375799 0.999919 -0.186336
C155  C     C_1   0.499982 0.124118 0.999969 -0.149982
C156  C     C_1   0.999963 0.624118 0.999956 -0.140446
C157  C     C_R   0.510229 0.772128 0.956949 -0.214689
C158  C     C_R   0.492174 0.772152 0.046647 -0.215996
C159  C     C_R   0.010358 0.272128 0.957126 -0.220315
C160  C     C_R   0.992068 0.272151 0.046501 -0.217494
H69   H     H_    0.517132 0.789282 0.922250 0.192602
H70   H     H_    0.485148 0.789327 0.081140 0.192351
H71   H     H_    0.017352 0.289282 0.922552 0.190786
H72   H     H_    0.984952 0.289326 0.080870 0.192278
C161  C     C_R   0.500634 0.793833 0.000994 0.015887
C162  C     C_R   0.000647 0.293832 0.001009 0.016023
C163  C     C_R   0.993251 0.228573 0.049132 0.308638
C164  C     C_R   0.011847 0.228551 0.958273 0.308863
C165  C     C_R   0.493362 0.728573 0.049278 0.309191
C166  C     C_R   0.511721 0.728552 0.958093 0.308139
C167  C     C_R   0.002849 0.206478 0.004139 -0.114859
C168  C     C_R   0.502844 0.706479 0.004123 -0.114706
C169  C     C_1   0.500183 0.838598 0.000320 0.016251
C170  C     C_1   0.000195 0.338598 0.000333 0.011353
C171  C     C_1   0.001190 0.161567 0.001878 0.138721
C172  C     C_1   0.501188 0.661567 0.001872 0.139985
C173  C     C_1   0.000298 0.124114 0.000593 -0.083109
C174  C     C_1   0.500297 0.624115 0.000592 -0.082265
C175  C     C_1   0.500009 0.876057 0.000044 -0.143469
C176  C     C_1   0.000018 0.376057 0.000053 -0.149470
N1    N     N_R   0.708037 0.992336 0.326344 0.126623
O49   O     O_R   0.672034 0.009346 0.299756 -0.339318
O50   O     O_R   0.726886 0.974635 0.391271 -0.349192
N2    N     N_R   0.291892 0.982556 0.675764 0.126559
O51   O     O_R   0.327921 0.964428 0.710585 -0.337622
O52   O     O_R   0.272989 0.989794 0.604956 -0.349070
N3    N     N_R   0.208051 0.490124 0.326087 0.126067
O53   O     O_R   0.172000 0.472146 0.293827 -0.337651
O54   O     O_R   0.226941 0.500748 0.395606 -0.349277
N4    N     N_R   0.791889 0.575477 0.830372 0.125267
O55   O     O_R   0.828051 0.574236 0.893251 -0.344753
O56   O     O_R   0.772875 0.610982 0.807409 -0.347365
N5    N     N_R   0.022348 0.207485 0.912448 0.130527
O57   O     O_R   0.043522 0.173144 0.934563 -0.365603
O58   O     O_R   0.014663 0.224902 0.851927 -0.358087
N6    N     N_R   0.984490 0.207530 0.097399 0.132408
O59   O     O_R   0.003333 0.173150 0.130509 -0.367260
O60   O     O_R   0.960916 0.224989 0.114799 -0.356651
N7    N     N_R   0.522102 0.707486 0.912099 0.131640
O61   O     O_R   0.543287 0.673151 0.934126 -0.363746
O62   O     O_R   0.514297 0.724900 0.851494 -0.351268
N8    N     N_R   0.484727 0.707530 0.097714 0.132803
O63   O     O_R   0.503601 0.673150 0.130763 -0.367386
O64   O     O_R   0.461244 0.724990 0.115319 -0.354267

loop_
_geom_bond_atom_site_label_1
_geom_bond_atom_site_label_2
_geom_bond_distance
_ccdc_geom_bond_type
C51   C55   1.411156 A    
Cu11  O47   1.940496 S    
C43   C47   1.393247 A    
C10   C14   1.397975 A    
O39   Cu11  1.941246 S    
C171  C173  1.207726 T    
C139  H67   1.083398 S    
O25   Cu6   1.973382 S    
C94   C98   1.399973 A    
O43   C133  1.298387 A    
C3    C115  1.437678 S    
C82   H54   1.083728 S    
C23   H15   1.083150 S    
C1    C113  1.437692 S    
Cu7   O31   1.940573 S    
C52   C56   1.411334 A    
O31   C128  1.284779 A    
C26   C30   1.397228 A    
C93   C97   1.399928 A    
O48   C136  1.297197 A    
C139  C142  1.402098 A    
C117  C131  1.438386 S    
C148  C152  1.442959 S    
N6    O59   1.301287 A    
C99   C111  1.442965 S    
C160  C162  1.396080 A    
O4    C4    1.285645 A    
O22   C124  1.282148 A    
C9    C29   1.397219 A    
O20   Cu8   1.940286 S    
C33   C53   1.393010 A    
C11   C31   1.397356 A    
C35   C55   1.392836 A    
C4    C116  1.437731 S    
C70   H42   1.080963 S    
C33   C37   1.398178 A    
C110  C114  1.207661 T    
H1    C29   1.082312 S    
C89   C93   1.409282 A    
C63   C67   1.397240 A    
N8    O63   1.301283 A    
C88   C92   1.418934 A    
O17   Cu5   1.939891 S    
H50   C102  1.083483 S    
C42   C46   1.393145 A    
C91   C95   1.409271 A    
O16   Cu4   1.970323 S    
C50   C54   1.411419 A    
O13   C5    1.282617 A    
O7    Cu4   1.939911 S    
C81   C85   1.402904 A    
O41   Cu10  1.940380 S    
O15   C7    1.282499 A    
C5    C49   1.453166 S    
O27   Cu8   1.973382 S    
C89   N1    1.442304 S    
O36   C130  1.298442 A    
C44   C80   1.479753 S    
O9    C5    1.280244 A    
H61   C144  1.083436 S    
O44   C134  1.297713 A    
H62   C143  1.083433 S    
O37   C131  1.297911 A    
C98   C102  1.397872 A    
N8    O64   1.301618 A    
C69   H41   1.080953 S    
C27   C31   1.397194 A    
C140  C143  1.400515 A    
Cu10  O46   1.940545 S    
O8    Cu4   1.939512 S    
C12   C16   1.397989 A    
C70   C74   1.398850 A    
C112  C116  1.207666 T    
C94   H58   1.083704 S    
C8    C52   1.453085 S    
O44   Cu11  1.940372 S    
O3    Cu2   1.940126 S    
C40   C44   1.411131 A    
C88   C108  1.446592 S    
O23   C125  1.282217 A    
C9    C13   1.397951 A    
C16   H12   1.083278 S    
C138  C141  1.402109 A    
C142  C150  1.443989 S    
C144  C147  1.401897 A    
C39   C125  1.453150 S    
C166  N7    1.441995 S    
O35   C130  1.298396 A    
C19   C23   1.404288 A    
C151  C153  1.207863 T    
O3    C3    1.285703 A    
C25   H17   1.081030 S    
C69   C73   1.398856 A    
N5    O57   1.301286 A    
C135  C155  1.439262 S    
C13   H9    1.083269 S    
C122  C154  1.437891 S    
O41   C131  1.298430 A    
C105  C117  1.208276 T    
C15   H11   1.083255 S    
C85   C89   1.418911 A    
C100  C104  1.397660 A    
C60   C80   1.404658 A    
C17   C21   1.404539 A    
O24   Cu8   1.970633 S    
C170  C176  1.207614 T    
C157  C166  1.405707 A    
O38   Cu10  1.941245 S    
O42   C132  1.298349 A    
C15   C19   1.404797 A    
C145  C148  1.401895 A    
O5    C1    1.284830 A    
Cu11  Cu12  2.686413 S    
C28   H20   1.081140 S    
C57   C61   1.397987 A    
C41   C77   1.479752 S    
C83   C103  1.397228 A    
C108  C120  1.208225 T    
C157  H69   1.083825 S    
C48   H28   1.085093 S    
C90   N2    1.442321 S    
N2    O51   1.301103 A    
C68   C72   1.397188 A    
H63   C146  1.083426 S    
O18   Cu6   1.940286 S    
N4    O56   1.301610 A    
C165  N8    1.442029 S    
O5    Cu3   1.939911 S    
C75   H47   1.083148 S    
C164  C167  1.419663 A    
C23   C27   1.398644 A    
O42   Cu9   1.940372 S    
C24   C28   1.398809 A    
C11   C15   1.398090 A    
C137  C141  1.402088 A    
O8    C4    1.284864 A    
C16   C20   1.404857 A    
H3    C31   1.082340 S    
O40   Cu12  1.941245 S    
C95   C99   1.399944 A    
C129  C175  1.437872 S    
O33   C129  1.298396 A    
C130  C176  1.437879 S    
N1    O50   1.301633 A    
C26   H18   1.081080 S    
C83   H55   1.083713 S    
O13   Cu3   1.970374 S    
C84   H56   1.083746 S    
O28   C126  1.280673 A    
N7    O62   1.301596 A    
O26   C124  1.280636 A    
C137  C146  1.400500 A    
C83   C87   1.402929 A    
C64   H36   1.082317 S    
C65   H37   1.082316 S    
Cu7   Cu8   2.645431 S    
C67   H39   1.082317 S    
C72   H44   1.080950 S    
C141  C149  1.443995 S    
O15   Cu4   1.970374 S    
C14   C18   1.404905 A    
O46   C135  1.297182 A    
C61   H33   1.082328 S    
C90   C94   1.409306 A    
C63   H35   1.082328 S    
C164  N5    1.442003 S    
C161  C169  1.443247 S    
O35   Cu11  1.940632 S    
C57   H29   1.083228 S    
C33   H21   1.085133 S    
O14   C6    1.282569 A    
C59   H31   1.083225 S    
C82   C86   1.402897 A    
C36   H24   1.085124 S    
O47   C136  1.297163 A    
H51   C103  1.083566 S    
Cu9   O45   1.940496 S    
C68   H40   1.082317 S    
O10   C6    1.280270 A    
C37   C123  1.453006 S    
C35   H23   1.085133 S    
C74   C78   1.404395 A    
C97   C101  1.397874 A    
C146  C148  1.401900 A    
C45   H25   1.085097 S    
C111  C115  1.207632 T    
C71   C75   1.398839 A    
C47   H27   1.085092 S    
O33   Cu9   1.940632 S    
C109  C113  1.207638 T    
C61   C65   1.397221 A    
N6    O60   1.301622 A    
C93   H57   1.083701 S    
C47   C51   1.398291 A    
C37   C41   1.411092 A    
C96   H60   1.083659 S    
Cu12  O48   1.940545 S    
C39   C43   1.411292 A    
O23   Cu7   1.970630 S    
O25   C123  1.280642 A    
C128  C174  1.436775 S    
C36   C40   1.398236 A    
C84   C104  1.397171 A    
H4    C32   1.082310 S    
C18   C22   1.404517 A    
C43   C79   1.479833 S    
C6    C50   1.453118 S    
C160  H72   1.083830 S    
C73   C77   1.404383 A    
C2    C114  1.437732 S    
C17   C53   1.480363 S    
C98   C110  1.443016 S    
C19   C55   1.479816 S    
C14   H10   1.083282 S    
C13   C17   1.404965 A    
C85   C105  1.446685 S    
C86   C90   1.418891 A    
O18   C121  1.285332 A    
C140  C142  1.402094 A    
C158  C165  1.405792 A    
C10   C30   1.397254 A    
C34   C54   1.392968 A    
C96   C100  1.400122 A    
N3    O53   1.301104 A    
H49   C101  1.083524 S    
C166  C168  1.419657 A    
C34   C38   1.398209 A    
C42   C78   1.479767 S    
H2    C30   1.082311 S    
C46   H26   1.085100 S    
O12   Cu2   1.971208 S    
O19   C122  1.285260 A    
C158  H70   1.083826 S    
O1    C1    1.285644 A    
C74   H46   1.083148 S    
Cu5   Cu6   2.645431 S    
C41   C45   1.393142 A    
C22   C26   1.398817 A    
C38   C42   1.411140 A    
C9    H5    1.082343 S    
C60   H32   1.083216 S    
C107  C119  1.208287 T    
C11   H7    1.082331 S    
C36   C56   1.392951 A    
C137  H65   1.083398 S    
O28   Cu7   1.973382 S    
C59   C79   1.404701 A    
O45   C135  1.297184 A    
C57   C77   1.404699 A    
O40   C134  1.298586 A    
O21   C123  1.282120 A    
C38   C124  1.453048 S    
C81   C101  1.397216 A    
C18   C54   1.480208 S    
O30   C127  1.285701 A    
C138  C145  1.400528 A    
C73   H45   1.083148 S    
C20   C56   1.480120 S    
C21   H13   1.083131 S    
C64   C68   1.397223 A    
C67   C71   1.397206 A    
Cu2   Cu4   2.644479 S    
O43   Cu12  1.940380 S    
C76   H48   1.083148 S    
C65   C69   1.397205 A    
O24   C126  1.282123 A    
O6    C2    1.284646 A    
O4    Cu2   1.940518 S    
O26   Cu5   1.973382 S    
C72   C76   1.398841 A    
C91   N3    1.442257 S    
C60   C64   1.398004 A    
N7    O61   1.301283 A    
C35   C39   1.398224 A    
N2    O52   1.301607 A    
O2    Cu1   1.940518 S    
O29   C127  1.284776 A    
O10   Cu1   1.971208 S    
C81   H53   1.083724 S    
C162  C170  1.443251 S    
Cu5   O29   1.940573 S    
C24   H16   1.083143 S    
C92   C96   1.409274 A    
C34   H22   1.085127 S    
C169  C175  1.207610 T    
C106  C118  1.208259 T    
C167  C171  1.448844 S    
C168  C172  1.448850 S    
O22   Cu6   1.970633 S    
C7    C51   1.453009 S    
C163  N6    1.442026 S    
C147  C151  1.442965 S    
C76   C80   1.404405 A    
N1    O49   1.301106 A    
O7    C3    1.284766 A    
C75   C79   1.404439 A    
C58   C62   1.397993 A    
C152  C154  1.207860 T    
C143  C147  1.401900 A    
C71   H43   1.081003 S    
Cu8   O32   1.940178 S    
C159  C164  1.405713 A    
O19   Cu7   1.939891 S    
O34   C129  1.298439 A    
C87   C107  1.446699 S    
C160  C163  1.405789 A    
C44   C48   1.393164 A    
N5    O58   1.301603 A    
H52   C104  1.083466 S    
C163  C167  1.419650 A    
O11   C7    1.280283 A    
C149  C155  1.208422 T    
O12   C8    1.280310 A    
C150  C156  1.208419 T    
O1    Cu1   1.940126 S    
O9    Cu1   1.971157 S    
C21   C25   1.398824 A    
O37   Cu9   1.941246 S    
C99   C103  1.397850 A    
C27   H19   1.080813 S    
N3    O54   1.301639 A    
C97   C109  1.442978 S    
C136  C156  1.439253 S    
O39   C133  1.297969 A    
O16   C8    1.282514 A    
C12   H8    1.082340 S    
C92   N4    1.442427 S    
C100  C112  1.443014 S    
C120  C134  1.438296 S    
C86   C106  1.446661 S    
O27   C125  1.280615 A    
O11   Cu2   1.971157 S    
C118  C132  1.438366 S    
C95   H59   1.083698 S    
C158  C161  1.396084 A    
C45   C49   1.398367 A    
C66   H38   1.082317 S    
C87   C91   1.418885 A    
N4    O55   1.301103 A    
O6    Cu3   1.939512 S    
C140  H68   1.083399 S    
C59   C63   1.398002 A    
C62   H34   1.082325 S    
C40   C126  1.453080 S    
H64   C145  1.083442 S    
C139  C144  1.400512 A    
O20   C122  1.285317 A    
O32   C128  1.285698 A    
C165  C168  1.419652 A    
C159  H71   1.083829 S    
O36   Cu12  1.940582 S    
O2    C2    1.285849 A    
Cu6   O30   1.940178 S    
O34   Cu10  1.940582 S    
C48   C52   1.398363 A    
C22   H14   1.083137 S    
C25   C29   1.397208 A    
O17   C121  1.285248 A    
C121  C153  1.437901 S    
C10   H6    1.082342 S    
O14   Cu3   1.970323 S    
C138  H66   1.083398 S    
Cu9   Cu10  2.686413 S    
C127  C173  1.436765 S    
Cu1   Cu3   2.644479 S    
O21   Cu5   1.970630 S    
C58   C78   1.404699 A    
C159  C162  1.396010 A    
O38   C132  1.297985 A    
C82   C102  1.397179 A    
C172  C174  1.207727 T    
C66   C70   1.397205 A    
C28   C32   1.397246 A    
C119  C133  1.438418 S    
C62   C66   1.397226 A    
C12   C32   1.397281 A    
C84   C88   1.402920 A    
C58   H30   1.083227 S    
C157  C161  1.396001 A    
C46   C50   1.398349 A    
C49   C53   1.411529 A    
C20   C24   1.404511 A    
