data_mof_unit_63556.cif
_audit_creation_date              2012-12-10T20:06:06-0500
_audit_creation_method            fapswitch 2.2
_symmetry_space_group_name_H-M    P1
_symmetry_Int_Tables_number       1
_space_group_crystal_system       triclinic
_cell_length_a                    22.477694
_cell_length_b                    25.852206
_cell_length_c                    22.454856
_cell_angle_alpha                 90.000673
_cell_angle_beta                  90.001173
_cell_angle_gamma                 89.99678
_cell_volume                      13048.4713418

loop_
_atom_site_label
_atom_site_type_symbol
_atom_type_description
_atom_site_fract_x
_atom_site_fract_y
_atom_site_fract_z
_atom_type_partial_charge
C1    C     C_R   0.499718 0.391454 0.749800 0.491641
C2    C     C_R   0.999220 0.391457 0.750717 0.505772
C3    C     C_3   0.449772 0.970389 0.708769 -0.229021
C4    C     C_3   0.446147 0.529555 0.213101 -0.233408
C5    C     C_3   0.448602 0.529610 0.789958 -0.231030
C6    C     C_3   0.449180 0.470288 0.790616 -0.228980
C7    C     C_3   0.449784 0.470387 0.208757 -0.229019
C8    C     C_3   0.946052 0.029555 0.213224 -0.233462
C9    C     C_3   0.948592 0.029610 0.789946 -0.231030
C10   C     C_3   0.949167 0.970288 0.790600 -0.228980
C11   C     C_3   0.949755 0.970393 0.208780 -0.229022
C12   C     C_3   0.946120 0.529556 0.713136 -0.233418
C13   C     C_R   0.999582 0.608517 0.750351 0.492994
C14   C     C_3   0.948459 0.529614 0.289791 -0.231094
C15   C     C_3   0.949162 0.470292 0.290601 -0.229001
C16   C     C_3   0.949767 0.470389 0.708775 -0.229018
C17   C     C_3   0.556721 0.029394 0.730461 -0.262150
C18   C     C_3   0.558146 0.029764 0.267511 -0.260463
C19   C     C_3   0.558419 0.970325 0.266684 -0.259043
C20   C     C_3   0.558098 0.970138 0.735694 -0.260450
C21   C     C_3   0.556739 0.529393 0.230500 -0.262135
C22   C     C_3   0.558166 0.529765 0.767461 -0.260451
C23   C     C_3   0.558421 0.470324 0.766682 -0.259054
C24   C     C_R   0.999467 0.608555 0.249513 0.500770
C25   C     C_3   0.558104 0.470136 0.235705 -0.260449
C26   C     C_3   0.056683 0.029394 0.230376 -0.262192
C27   C     C_3   0.058161 0.029764 0.767474 -0.260452
C28   C     C_3   0.058415 0.970324 0.766698 -0.259056
C29   C     C_3   0.058085 0.970142 0.235683 -0.260454
C30   C     C_3   0.056724 0.529394 0.730462 -0.262148
C31   C     C_3   0.058098 0.529764 0.267631 -0.260490
C32   C     C_3   0.058409 0.470327 0.266695 -0.259019
C33   C     C_3   0.058096 0.470137 0.735686 -0.260450
C34   C     C_3   0.486801 0.030576 0.819083 -0.079396
C35   C     C_R   0.999718 0.891454 0.749799 0.491638
C36   C     C_3   0.483866 0.030706 0.182038 -0.067607
C37   C     C_3   0.482915 0.969139 0.182268 -0.075778
C38   C     C_3   0.480572 0.969190 0.818547 -0.073108
C39   C     C_3   0.486751 0.530579 0.319072 -0.079399
C40   C     C_3   0.483811 0.530711 0.682051 -0.067604
C41   C     C_3   0.482919 0.469143 0.682268 -0.075783
C42   C     C_3   0.480565 0.469189 0.318543 -0.073115
C43   C     C_3   0.986918 0.030562 0.319110 -0.079390
C44   C     C_3   0.983825 0.030712 0.682048 -0.067596
C45   C     C_3   0.982939 0.969144 0.682262 -0.075779
C46   C     C_R   0.999216 0.891457 0.250719 0.505728
C47   C     C_3   0.980553 0.969188 0.318547 -0.073098
C48   C     C_3   0.986800 0.530577 0.819081 -0.079394
C49   C     C_3   0.983997 0.530695 0.182004 -0.067608
C50   C     C_3   0.982919 0.469130 0.182263 -0.075763
C51   C     C_3   0.980579 0.469190 0.818548 -0.073113
C52   C     C_3   0.437416 0.060916 0.853842 -0.276788
C53   C     C_3   0.449859 0.063025 0.920959 -0.462493
C54   C     C_3   0.429840 0.059793 0.152313 -0.281035
C55   C     C_3   0.448740 0.092051 0.098323 -0.455356
C56   C     C_3   0.426938 0.942234 0.154931 -0.272817
C57   C     C_R   0.999574 0.108517 0.250359 0.492980
C58   C     C_3   0.427807 0.941689 0.086690 -0.458341
C59   C     C_3   0.419860 0.948347 0.843524 -0.291691
C60   C     C_3   0.418233 0.890394 0.857773 -0.421771
C61   C     C_3   0.437304 0.560902 0.353765 -0.276794
C62   C     C_3   0.449700 0.563078 0.420888 -0.462483
C63   C     C_3   0.429716 0.559767 0.652411 -0.281075
C64   C     C_3   0.448524 0.592120 0.598464 -0.455345
C65   C     C_3   0.426988 0.442201 0.654885 -0.272820
C66   C     C_3   0.427872 0.441728 0.586643 -0.458346
C67   C     C_3   0.419875 0.448311 0.343535 -0.291700
C68   C     C_R   0.999466 0.108555 0.749513 0.500833
C69   C     C_3   0.418316 0.390366 0.357841 -0.421698
C70   C     C_3   0.937706 0.060961 0.354045 -0.276782
C71   C     C_3   0.950269 0.062876 0.421148 -0.462487
C72   C     C_3   0.929731 0.059765 0.652401 -0.281057
C73   C     C_3   0.948544 0.092116 0.598454 -0.455378
C74   C     C_3   0.927022 0.942198 0.654856 -0.272817
C75   C     C_3   0.927925 0.941735 0.586615 -0.458337
C76   C     C_3   0.919749 0.948469 0.343437 -0.291657
C77   C     C_3   0.917851 0.890478 0.357436 -0.422052
C78   C     C_3   0.937407 0.560915 0.853834 -0.276781
C79   C     C_3   0.496631 0.050850 0.753599 0.057047
C80   C     C_3   0.949852 0.563040 0.920949 -0.462497
C81   C     C_3   0.930128 0.559847 0.152084 -0.280940
C82   C     C_3   0.949236 0.591887 0.097996 -0.455356
C83   C     C_3   0.926845 0.442305 0.155015 -0.272806
C84   C     C_3   0.927693 0.441603 0.086777 -0.458322
C85   C     C_3   0.919874 0.448342 0.843538 -0.291693
C86   C     C_3   0.918254 0.390389 0.857787 -0.421756
C87   C     C_3   0.496984 0.050889 0.246916 0.057212
C88   C     C_3   0.496981 0.949093 0.247005 0.054254
C89   C     C_R   0.499222 0.391457 0.250715 0.505780
C90   C     C_3   0.496106 0.948955 0.753935 0.072979
C91   C     C_3   0.496632 0.550849 0.253595 0.057034
C92   C     C_3   0.496986 0.550889 0.746919 0.057225
C93   C     C_3   0.496982 0.449094 0.747005 0.054262
C94   C     C_3   0.496109 0.448955 0.253933 0.072974
C95   C     C_3   0.996629 0.050851 0.253610 0.057084
C96   C     C_3   0.996985 0.050889 0.746918 0.057222
C97   C     C_3   0.996982 0.949094 0.747003 0.054262
C98   C     C_3   0.996095 0.948955 0.253935 0.073002
C99   C     C_3   0.996632 0.550850 0.753598 0.057043
C100  C     C_R   0.499583 0.608516 0.250349 0.492996
C101  C     C_3   0.996979 0.550888 0.246907 0.057184
C102  C     C_3   0.996978 0.449093 0.247004 0.054233
C103  C     C_3   0.996106 0.448955 0.753935 0.072977
C104  C     C_1   0.499890 0.249877 0.973328 -0.028659
C105  C     C_1   0.499887 0.249874 0.026678 -0.029504
C106  C     C_1   0.499910 0.750093 0.026672 -0.028278
C107  C     C_1   0.499904 0.750100 0.973321 -0.028808
C108  C     C_1   0.499890 0.749877 0.473328 -0.028657
C109  C     C_1   0.499887 0.749874 0.526678 -0.029485
C110  C     C_1   0.499910 0.250094 0.526672 -0.028274
C111  C     C_R   0.499466 0.608555 0.749513 0.500836
C112  C     C_1   0.499904 0.250100 0.473321 -0.028810
C113  C     C_1   0.999890 0.249877 0.473328 -0.028632
C114  C     C_1   0.999887 0.249874 0.526678 -0.029482
C115  C     C_1   0.999910 0.750093 0.526672 -0.028262
C116  C     C_1   0.999905 0.750100 0.473321 -0.028788
C117  C     C_1   0.999890 0.749877 0.973328 -0.028673
C118  C     C_1   0.999887 0.749874 0.026678 -0.029545
C119  C     C_1   0.999910 0.250094 0.026672 -0.028289
C120  C     C_1   0.999904 0.250100 0.973321 -0.028810
C121  C     C_R   0.499952 0.250046 0.589992 0.505634
C122  C     C_R   0.499718 0.891454 0.249800 0.491648
C123  C     C_R   0.499937 0.250060 0.410004 0.502653
C124  C     C_R   0.499939 0.749940 0.410008 0.505262
C125  C     C_R   0.499934 0.749936 0.589994 0.503002
C126  C     C_R   0.499952 0.750046 0.089992 0.505634
C127  C     C_R   0.499937 0.750060 0.910004 0.502654
C128  C     C_R   0.499939 0.249940 0.910008 0.505262
C129  C     C_R   0.499934 0.249936 0.089994 0.503020
C130  C     C_R   0.999952 0.250045 0.089992 0.505636
C131  C     C_R   0.999937 0.250060 0.910004 0.502654
C132  C     C_R   0.999939 0.749940 0.910008 0.505265
C133  C     C_R   0.499220 0.891457 0.750716 0.505770
C134  C     C_R   0.999933 0.749936 0.089994 0.503069
C135  C     C_R   0.999952 0.750045 0.589992 0.505634
C136  C     C_R   0.999937 0.750059 0.410004 0.502651
C137  C     C_R   0.999939 0.249940 0.410008 0.505261
C138  C     C_R   0.999934 0.249936 0.589994 0.502998
C139  C     C_R   0.660032 0.250003 0.750005 0.507560
C140  C     C_R   0.660031 0.250000 0.249999 0.508977
C141  C     C_R   0.660032 0.750003 0.250005 0.507557
C142  C     C_R   0.660031 0.750000 0.749999 0.508977
C143  C     C_R   0.160032 0.250003 0.250005 0.507561
C144  C     C_R   0.499581 0.108516 0.750352 0.492993
C145  C     C_R   0.160031 0.250000 0.749999 0.508977
C146  C     C_R   0.160032 0.750003 0.750005 0.507559
C147  C     C_R   0.160031 0.750000 0.249999 0.508970
C148  C     C_R   0.339979 0.250001 0.749999 0.503691
C149  C     C_R   0.339981 0.250017 0.250018 0.501952
C150  C     C_R   0.339979 0.750001 0.249999 0.503690
C151  C     C_R   0.339981 0.750017 0.750018 0.501952
C152  C     C_R   0.839979 0.250001 0.249999 0.503691
C153  C     C_R   0.839981 0.250017 0.750018 0.501953
C154  C     C_R   0.839979 0.750001 0.749999 0.503691
C155  C     C_R   0.499467 0.108555 0.249513 0.500818
C156  C     C_R   0.839981 0.750017 0.250018 0.501933
C157  C     C_1   0.276670 0.250002 0.749999 -0.027220
C158  C     C_1   0.276674 0.250020 0.250019 -0.027108
C159  C     C_1   0.276670 0.750002 0.249999 -0.027223
C160  C     C_1   0.276674 0.750020 0.750019 -0.027113
C161  C     C_1   0.776670 0.250002 0.249999 -0.027221
C162  C     C_1   0.776674 0.250020 0.750019 -0.027112
C163  C     C_1   0.776670 0.750002 0.749999 -0.027219
C164  C     C_1   0.776674 0.750020 0.250020 -0.027123
C165  C     C_1   0.223341 0.250001 0.749998 -0.027301
C166  C     C_R   0.999716 0.391454 0.249799 0.491667
C167  C     C_1   0.223344 0.250013 0.250016 -0.027278
C168  C     C_1   0.223341 0.750001 0.249998 -0.027302
C169  C     C_1   0.223344 0.750013 0.750016 -0.027280
C170  C     C_1   0.723341 0.250001 0.249998 -0.027302
C171  C     C_1   0.723344 0.250013 0.750016 -0.027279
C172  C     C_1   0.723341 0.750001 0.749998 -0.027300
C173  C     C_1   0.723344 0.750013 0.250016 -0.027279
C174  C     C_3   0.446117 0.029555 0.713140 -0.233423
C175  C     C_3   0.448560 0.029611 0.289909 -0.231049
C176  C     C_3   0.449177 0.970289 0.290614 -0.228987
H1    H     H_    0.449557 0.045961 0.667428 0.140244
H2    H     H_    0.956781 0.043947 0.835988 0.136872
H3    H     H_    0.382361 0.958095 0.813477 0.142519
H4    H     H_    0.460921 0.524519 0.439347 0.140283
H5    H     H_    0.487758 0.589405 0.429731 0.161444
H6    H     H_    0.410040 0.578354 0.444552 0.138894
H7    H     H_    0.434412 0.601748 0.339200 0.157240
H8    H     H_    0.392302 0.545220 0.344856 0.135447
H9    H     H_    0.480371 0.622673 0.612030 0.190625
H10   H     H_    0.469762 0.567338 0.564152 0.139222
H11   H     H_    0.408899 0.611034 0.578493 0.133416
H12   H     H_    0.393218 0.534544 0.637703 0.152708
H13   H     H_    0.958739 0.956778 0.836710 0.136215
H14   H     H_    0.407876 0.586408 0.684382 0.146097
H15   H     H_    0.433480 0.480919 0.567744 0.154012
H16   H     H_    0.465053 0.417124 0.570505 0.153461
H17   H     H_    0.385488 0.425279 0.569721 0.138271
H18   H     H_    0.425053 0.400907 0.668013 0.153506
H19   H     H_    0.385040 0.458833 0.672397 0.135001
H20   H     H_    0.409120 0.367149 0.317425 0.163134
H21   H     H_    0.460463 0.377666 0.379074 0.167132
H22   H     H_    0.381432 0.382374 0.389470 0.121044
H23   H     H_    0.410297 0.467014 0.386713 0.152088
H24   H     H_    0.963225 0.959578 0.162695 0.132151
H25   H     H_    0.382367 0.458002 0.313474 0.142516
H26   H     H_    0.961313 0.024214 0.439426 0.140301
H27   H     H_    0.988494 0.089013 0.430014 0.161400
H28   H     H_    0.910748 0.078247 0.444966 0.138874
H29   H     H_    0.934994 0.101865 0.339664 0.157432
H30   H     H_    0.892606 0.045479 0.345176 0.135361
H31   H     H_    0.980370 0.122683 0.612027 0.190636
H32   H     H_    0.969809 0.067336 0.564156 0.139232
H33   H     H_    0.908917 0.111012 0.578463 0.133392
H34   H     H_    0.893235 0.034539 0.637692 0.152705
H35   H     H_    0.949570 0.545957 0.667422 0.140238
H36   H     H_    0.907887 0.086407 0.684367 0.146090
H37   H     H_    0.933516 0.980931 0.567725 0.154018
H38   H     H_    0.965125 0.917150 0.570482 0.153476
H39   H     H_    0.885556 0.925271 0.569677 0.138277
H40   H     H_    0.925093 0.900901 0.667974 0.153510
H41   H     H_    0.885064 0.958819 0.672359 0.134994
H42   H     H_    0.908532 0.867469 0.316889 0.163299
H43   H     H_    0.959918 0.877511 0.378610 0.167050
H44   H     H_    0.880910 0.882519 0.389011 0.121138
H45   H     H_    0.910282 0.967050 0.386711 0.152072
H46   H     H_    0.956413 0.544046 0.335834 0.137040
H47   H     H_    0.882293 0.958443 0.313433 0.142522
H48   H     H_    0.961050 0.524462 0.939368 0.140268
H49   H     H_    0.987940 0.589336 0.929789 0.161445
H50   H     H_    0.910222 0.578328 0.944655 0.138889
H51   H     H_    0.934543 0.601772 0.839305 0.157276
H52   H     H_    0.892384 0.545271 0.844943 0.135426
H53   H     H_    0.981220 0.622366 0.111466 0.190776
H54   H     H_    0.970425 0.566869 0.063881 0.139189
H55   H     H_    0.909762 0.610876 0.077819 0.133431
H56   H     H_    0.893516 0.534715 0.137453 0.152634
H57   H     H_    0.958827 0.456881 0.336730 0.136169
H58   H     H_    0.908360 0.586709 0.183859 0.146026
H59   H     H_    0.933472 0.480713 0.067705 0.153993
H60   H     H_    0.964751 0.416816 0.070730 0.153509
H61   H     H_    0.885225 0.425248 0.069948 0.138261
H62   H     H_    0.924706 0.401063 0.168328 0.153409
H63   H     H_    0.884985 0.459149 0.172472 0.135032
H64   H     H_    0.909024 0.367210 0.817349 0.163145
H65   H     H_    0.960392 0.377638 0.878997 0.167137
H66   H     H_    0.881369 0.382403 0.889416 0.121061
H67   H     H_    0.910330 0.467023 0.886736 0.152085
H68   H     H_    0.963204 0.459521 0.662696 0.132178
H69   H     H_    0.882368 0.458087 0.813498 0.142516
H70   H     H_    0.402033 0.041037 0.731372 0.125572
H71   H     H_    0.403672 0.043385 0.276443 0.126179
H72   H     H_    0.404333 0.955420 0.278576 0.129323
H73   H     H_    0.456684 0.043980 0.335949 0.136920
H74   H     H_    0.405012 0.953322 0.716088 0.132346
H75   H     H_    0.402051 0.541055 0.231286 0.125608
H76   H     H_    0.403702 0.543412 0.776571 0.126198
H77   H     H_    0.404331 0.455447 0.778548 0.129313
H78   H     H_    0.405018 0.453334 0.216083 0.132328
H79   H     H_    0.901998 0.040994 0.231562 0.125477
H80   H     H_    0.903695 0.043414 0.776552 0.126193
H81   H     H_    0.904322 0.955449 0.778517 0.129303
H82   H     H_    0.905006 0.953291 0.216068 0.132423
H83   H     H_    0.902036 0.541045 0.731361 0.125579
H84   H     H_    0.458791 0.956811 0.336728 0.136192
H85   H     H_    0.903600 0.543326 0.276140 0.126131
H86   H     H_    0.904330 0.455360 0.278620 0.129337
H87   H     H_    0.905007 0.453326 0.716106 0.132338
H88   H     H_    0.563140 0.040765 0.683059 0.119600
H89   H     H_    0.568110 0.043598 0.313405 0.118100
H90   H     H_    0.569754 0.955662 0.311914 0.117800
H91   H     H_    0.572211 0.953367 0.692243 0.115920
H92   H     H_    0.563205 0.540782 0.183110 0.119580
H93   H     H_    0.568189 0.543624 0.813332 0.118080
H94   H     H_    0.569738 0.455686 0.811928 0.117807
H95   H     H_    0.463220 0.959528 0.662692 0.132171
H96   H     H_    0.572214 0.453378 0.192247 0.115916
H97   H     H_    0.062999 0.040722 0.182947 0.119646
H98   H     H_    0.068175 0.043626 0.813346 0.118082
H99   H     H_    0.069718 0.955687 0.811949 0.117810
H100  H     H_    0.072219 0.953338 0.192257 0.115928
H101  H     H_    0.063150 0.540771 0.683064 0.119596
H102  H     H_    0.067922 0.543541 0.313579 0.118144
H103  H     H_    0.069778 0.455609 0.311894 0.117786
H104  H     H_    0.072199 0.453371 0.692230 0.115921
H105  H     H_    0.529154 0.039296 0.842955 0.142053
H106  H     H_    0.449635 0.545948 0.167385 0.140211
H107  H     H_    0.524000 0.041187 0.155444 0.138960
H108  H     H_    0.521083 0.956331 0.154160 0.138898
H109  H     H_    0.515396 0.954268 0.849399 0.130728
H110  H     H_    0.529074 0.539325 0.342984 0.142047
H111  H     H_    0.523900 0.541226 0.655407 0.138960
H112  H     H_    0.521113 0.456369 0.654176 0.138883
H113  H     H_    0.515405 0.454290 0.349390 0.130717
H114  H     H_    0.029351 0.039197 0.342879 0.142062
H115  H     H_    0.023917 0.041231 0.655411 0.138966
H116  H     H_    0.021144 0.956375 0.654183 0.138884
H117  H     H_    0.456798 0.543950 0.835996 0.136867
H118  H     H_    0.015302 0.954188 0.349432 0.130760
H119  H     H_    0.029149 0.539303 0.842955 0.142051
H120  H     H_    0.024236 0.541103 0.155530 0.138966
H121  H     H_    0.021035 0.456249 0.154129 0.138932
H122  H     H_    0.015411 0.454273 0.849394 0.130726
H123  H     H_    0.594545 0.045951 0.756178 0.129535
H124  H     H_    0.594222 0.044410 0.238026 0.129555
H125  H     H_    0.593815 0.956555 0.235842 0.130010
H126  H     H_    0.592015 0.958670 0.769329 0.130304
H127  H     H_    0.594541 0.545937 0.256261 0.129551
H128  H     H_    0.458768 0.456780 0.836723 0.136204
H129  H     H_    0.594210 0.544385 0.737921 0.129575
H130  H     H_    0.593824 0.456529 0.735863 0.130023
H131  H     H_    0.592019 0.458651 0.269335 0.130315
H132  H     H_    0.094554 0.045983 0.255995 0.129504
H133  H     H_    0.094210 0.044383 0.737939 0.129567
H134  H     H_    0.093827 0.956527 0.735892 0.130015
H135  H     H_    0.091994 0.958716 0.269345 0.130294
H136  H     H_    0.094544 0.545946 0.756188 0.129531
H137  H     H_    0.094249 0.544466 0.238276 0.129507
H138  H     H_    0.093796 0.456614 0.235809 0.129978
H139  H     H_    0.463230 0.459509 0.162685 0.132173
H140  H     H_    0.092018 0.458663 0.769313 0.130304
H141  H     H_    0.461051 0.024443 0.939369 0.140287
H142  H     H_    0.487951 0.089315 0.929807 0.161437
H143  H     H_    0.410230 0.078314 0.944666 0.138887
H144  H     H_    0.434566 0.101777 0.839324 0.157288
H145  H     H_    0.392389 0.045283 0.844946 0.135425
H146  H     H_    0.480631 0.122579 0.111860 0.190677
H147  H     H_    0.469960 0.067196 0.064070 0.139212
H148  H     H_    0.409162 0.110990 0.078290 0.133418
H149  H     H_    0.393307 0.034598 0.137628 0.152687
H150  H     H_    0.949384 0.045996 0.167521 0.140319
H151  H     H_    0.408022 0.086501 0.184225 0.146077
H152  H     H_    0.433472 0.980854 0.067736 0.154007
H153  H     H_    0.464946 0.917025 0.070578 0.153476
H154  H     H_    0.385394 0.925272 0.069799 0.138270
H155  H     H_    0.424939 0.900956 0.168116 0.153476
H156  H     H_    0.385018 0.958933 0.172428 0.135013
H157  H     H_    0.409013 0.867216 0.817332 0.163161
H158  H     H_    0.460365 0.877642 0.878994 0.167115
H159  H     H_    0.381338 0.882409 0.889392 0.121066
H160  H     H_    0.410306 0.967027 0.886721 0.152086
O1    O     O_3   0.500000 0.250000 0.750000 -0.435458
O2    O     O_R   0.465380 0.366870 0.215380 -0.553025
O3    O     O_R   0.034610 0.633130 0.215390 -0.553675
O4    O     O_R   0.034610 0.866870 0.715390 -0.550404
O5    O     O_R   0.034610 0.866870 0.284610 -0.553673
O6    O     O_R   0.034610 0.133130 0.284610 -0.550147
O7    O     O_R   0.034610 0.133130 0.715390 -0.553738
O8    O     O_R   0.465380 0.633130 0.215380 -0.551233
O9    O     O_R   0.465380 0.633130 0.784620 -0.550894
O10   O     O_R   0.465380 0.866870 0.284620 -0.551343
O11   O     O_R   0.465380 0.866870 0.715380 -0.553031
O12   O     O_R   0.465380 0.133130 0.715380 -0.551221
O13   O     O_R   0.465380 0.133130 0.284620 -0.550899
O14   O     O_R   0.965380 0.366870 0.284620 -0.551351
O15   O     O_R   0.965380 0.366870 0.715380 -0.553028
O16   O     O_R   0.965380 0.633130 0.715380 -0.551224
O17   O     O_3   0.500000 0.250000 0.250000 -0.433928
O18   O     O_R   0.965380 0.633130 0.284620 -0.550917
O19   O     O_R   0.965380 0.866870 0.784620 -0.551332
O20   O     O_R   0.965380 0.866870 0.215380 -0.553080
O21   O     O_R   0.965380 0.133130 0.215380 -0.551197
O22   O     O_R   0.965380 0.133130 0.784620 -0.550892
O23   O     O_R   0.534610 0.280640 0.617980 -0.537589
O24   O     O_R   0.534610 0.280640 0.382020 -0.542276
O25   O     O_R   0.534610 0.719360 0.382020 -0.538764
O26   O     O_R   0.534610 0.719360 0.617980 -0.545929
O27   O     O_R   0.534610 0.780640 0.117980 -0.537589
O28   O     O_3   0.500000 0.750000 0.250000 -0.435456
O29   O     O_R   0.534610 0.780640 0.882020 -0.542268
O30   O     O_R   0.534610 0.219360 0.882020 -0.538767
O31   O     O_R   0.534610 0.219360 0.117980 -0.545943
O32   O     O_R   0.034610 0.280640 0.117980 -0.537592
O33   O     O_R   0.034610 0.280640 0.882020 -0.542274
O34   O     O_R   0.034610 0.719360 0.882020 -0.538773
O35   O     O_R   0.034610 0.719360 0.117980 -0.545973
O36   O     O_R   0.034610 0.780640 0.617980 -0.537586
O37   O     O_R   0.034610 0.780640 0.382020 -0.542237
O38   O     O_R   0.034610 0.219360 0.382020 -0.538768
O39   O     O_3   0.500000 0.750000 0.750000 -0.433928
O40   O     O_R   0.034610 0.219360 0.617980 -0.545934
O41   O     O_R   0.632030 0.280640 0.715400 -0.534846
O42   O     O_R   0.632030 0.280640 0.284600 -0.533640
O43   O     O_R   0.632030 0.719360 0.284600 -0.534971
O44   O     O_R   0.632030 0.719360 0.715400 -0.534079
O45   O     O_R   0.632030 0.780640 0.215400 -0.534849
O46   O     O_R   0.632030 0.780640 0.784600 -0.533640
O47   O     O_R   0.632030 0.219360 0.784600 -0.534971
O48   O     O_R   0.632030 0.219360 0.215400 -0.534085
O49   O     O_R   0.132030 0.280640 0.215400 -0.534848
O50   O     O_3   1.000000 0.250000 0.250000 -0.435458
O51   O     O_R   0.132030 0.280640 0.784600 -0.533640
O52   O     O_R   0.132030 0.719360 0.784600 -0.534972
O53   O     O_R   0.132030 0.719360 0.215400 -0.534105
O54   O     O_R   0.132030 0.780640 0.715400 -0.534845
O55   O     O_R   0.132030 0.780640 0.284600 -0.533639
O56   O     O_R   0.132030 0.219360 0.284600 -0.534964
O57   O     O_R   0.132030 0.219360 0.715400 -0.534079
O58   O     O_R   0.367970 0.280650 0.784620 -0.537400
O59   O     O_R   0.367970 0.280650 0.215380 -0.539250
O60   O     O_R   0.367970 0.719350 0.215380 -0.537163
O61   O     O_3   0.000000 0.250000 0.750000 -0.433928
O62   O     O_R   0.367970 0.719350 0.784620 -0.537361
O63   O     O_R   0.367970 0.780650 0.284620 -0.537401
O64   O     O_R   0.367970 0.780650 0.715380 -0.539258
O65   O     O_R   0.367970 0.219350 0.715380 -0.537160
O66   O     O_R   0.367970 0.219350 0.284620 -0.537364
O67   O     O_R   0.867970 0.280650 0.284620 -0.537414
O68   O     O_R   0.867970 0.280650 0.715380 -0.539256
O69   O     O_R   0.867970 0.719350 0.715380 -0.537160
O70   O     O_R   0.867970 0.719350 0.284620 -0.537342
O71   O     O_R   0.867970 0.780650 0.784620 -0.537399
O72   O     O_3   0.000000 0.750000 0.750000 -0.435458
O73   O     O_R   0.867970 0.780650 0.215380 -0.539303
O74   O     O_R   0.867970 0.219350 0.215380 -0.537150
O75   O     O_R   0.867970 0.219350 0.784620 -0.537361
O76   O     O_R   0.465380 0.219370 0.617980 -0.534586
O77   O     O_R   0.465380 0.219370 0.382020 -0.533828
O78   O     O_R   0.465380 0.780630 0.382020 -0.534257
O79   O     O_R   0.465380 0.780630 0.617980 -0.532167
O80   O     O_R   0.465380 0.719370 0.117980 -0.534586
O81   O     O_R   0.465380 0.719370 0.882020 -0.533829
O82   O     O_R   0.465380 0.280630 0.882020 -0.534260
O83   O     O_3   1.000000 0.750000 0.250000 -0.433904
O84   O     O_R   0.465380 0.280630 0.117980 -0.532162
O85   O     O_R   0.965380 0.219370 0.117980 -0.534580
O86   O     O_R   0.965380 0.219370 0.882020 -0.533827
O87   O     O_R   0.965380 0.780630 0.882020 -0.534255
O88   O     O_R   0.965380 0.780630 0.117980 -0.532135
O89   O     O_R   0.965380 0.719370 0.617980 -0.534589
O90   O     O_R   0.965380 0.719370 0.382020 -0.533838
O91   O     O_R   0.965380 0.280630 0.382020 -0.534263
O92   O     O_R   0.965380 0.280630 0.617980 -0.532166
O93   O     O_R   0.534610 0.366870 0.715390 -0.550403
O94   O     O_R   0.465380 0.366870 0.784620 -0.551337
O95   O     O_R   0.534610 0.366870 0.284610 -0.553679
O96   O     O_R   0.534610 0.633130 0.284610 -0.550087
O97   O     O_R   0.534610 0.633130 0.715390 -0.553738
O98   O     O_R   0.534610 0.866870 0.215390 -0.550393
O99   O     O_R   0.534610 0.866870 0.784610 -0.553675
O100  O     O_R   0.534610 0.133130 0.784610 -0.550104
O101  O     O_R   0.534610 0.133130 0.215390 -0.553718
O102  O     O_R   0.034610 0.366870 0.215390 -0.550371
O103  O     O_R   0.034610 0.366870 0.784610 -0.553680
O104  O     O_R   0.034610 0.633130 0.784610 -0.550103
Zn1   Zn    Zn3+2 0.450550 0.206230 0.700550 0.930227
Zn2   Zn    Zn3+2 0.950550 0.206230 0.799450 0.927740
Zn3   Zn    Zn3+2 0.950550 0.793770 0.799450 0.930014
Zn4   Zn    Zn3+2 0.950550 0.793770 0.200550 0.925997
Zn5   Zn    Zn3+2 0.950550 0.706230 0.700550 0.930226
Zn6   Zn    Zn3+2 0.950550 0.706230 0.299450 0.927780
Zn7   Zn    Zn3+2 0.950550 0.293770 0.299450 0.930004
Zn8   Zn    Zn3+2 0.950550 0.293770 0.700550 0.925993
Zn9   Zn    Zn3+2 0.549450 0.293780 0.700550 0.932477
Zn10  Zn    Zn3+2 0.549450 0.293780 0.299450 0.925317
Zn11  Zn    Zn3+2 0.549450 0.706220 0.299450 0.931045
Zn12  Zn    Zn3+2 0.450550 0.206230 0.299450 0.927741
Zn13  Zn    Zn3+2 0.549450 0.706220 0.700550 0.926531
Zn14  Zn    Zn3+2 0.549450 0.793780 0.200550 0.932483
Zn15  Zn    Zn3+2 0.549450 0.793780 0.799450 0.925334
Zn16  Zn    Zn3+2 0.549450 0.206220 0.799450 0.931032
Zn17  Zn    Zn3+2 0.549450 0.206220 0.200550 0.926527
Zn18  Zn    Zn3+2 0.049450 0.293780 0.200550 0.932503
Zn19  Zn    Zn3+2 0.049450 0.293780 0.799450 0.925328
Zn20  Zn    Zn3+2 0.049450 0.706220 0.799450 0.931026
Zn21  Zn    Zn3+2 0.049450 0.706220 0.200550 0.926525
Zn22  Zn    Zn3+2 0.049450 0.793780 0.700550 0.932478
Zn23  Zn    Zn3+2 0.450550 0.793770 0.299450 0.930017
Zn24  Zn    Zn3+2 0.049450 0.793780 0.299450 0.925399
Zn25  Zn    Zn3+2 0.049450 0.206220 0.299450 0.931008
Zn26  Zn    Zn3+2 0.049450 0.206220 0.700550 0.926527
Zn27  Zn    Zn3+2 0.450550 0.793770 0.700550 0.925991
Zn28  Zn    Zn3+2 0.450550 0.706230 0.200550 0.930227
Zn29  Zn    Zn3+2 0.450550 0.706230 0.799450 0.927738
Zn30  Zn    Zn3+2 0.450550 0.293770 0.799450 0.930010
Zn31  Zn    Zn3+2 0.450550 0.293770 0.200550 0.926005
Zn32  Zn    Zn3+2 0.950550 0.206230 0.200550 0.930244

loop_
_geom_bond_atom_site_label_1
_geom_bond_atom_site_label_2
_ccdc_geom_bond_type
O68   Zn8   S    
C141  C173  S    
C82   H55   S    
C140  O48   A    
C3    H74   S    
C58   H152  S    
C51   C85   S    
C8    C95   S    
C174  H70   S    
C47   C98   S    
C11   C98   S    
O39   Zn15  S    
C31   C101  S    
O17   Zn12  S    
C136  O90   A    
C47   C76   S    
C33   H140  S    
C4    C7    S    
C131  O33   A    
C5    C6    S    
C134  O88   A    
C106  C107  T    
C43   H114  S    
C119  C130  S    
C108  C109  T    
C89   C94   S    
C7    C94   S    
C47   H118  S    
O14   Zn7   S    
C143  O56   A    
C37   C56   S    
C162  C171  T    
C12   C16   S    
O59   Zn31  S    
C86   H64   S    
C125  O79   A    
C139  C171  S    
C126  O80   A    
C80   H49   S    
C57   O21   A    
O95   Zn10  S    
C38   C59   S    
C29   H100  S    
C175  H71   S    
O98   Zn14  S    
C59   C60   S    
C36   C87   S    
O39   Zn13  S    
C42   C94   S    
C108  C124  S    
O28   Zn23  S    
C124  O25   A    
C20   H91   S    
O1    Zn1   S    
C104  C105  T    
C50   C83   S    
C83   H63   S    
O80   Zn28  S    
O52   Zn20  S    
C150  C159  S    
C84   H59   S    
C88   C122  S    
C142  C172  S    
C125  O26   A    
C20   H126  S    
O94   Zn30  S    
O16   Zn5   S    
C147  O53   A    
O1    Zn30  S    
C104  C128  S    
C32   H138  S    
C86   H66   S    
O87   Zn3   S    
C55   H148  S    
C164  C173  T    
C68   C96   S    
C163  C172  T    
C174  H1    S    
C19   H90   S    
O49   Zn18  S    
C2    O15   A    
C82   H53   S    
C153  O68   A    
O38   Zn25  S    
O93   Zn9   S    
C113  C137  S    
O82   Zn30  S    
O66   Zn12  S    
O50   Zn7   S    
O60   Zn28  S    
C65   H18   S    
O25   Zn11  S    
O81   Zn29  S    
O58   Zn30  S    
C44   C96   S    
C40   H111  S    
O20   Zn4   S    
O102  Zn18  S    
O69   Zn5   S    
C54   H151  S    
C72   C73   S    
C147  O55   A    
C139  O47   A    
C92   C111  S    
C156  O70   A    
C32   C102  S    
C153  O75   A    
O90   Zn6   S    
C46   O5    A    
C107  C127  S    
C127  O81   A    
C62   H5    S    
C133  O11   A    
C35   O19   A    
C75   H39   S    
C75   H37   S    
C44   C72   S    
C60   H157  S    
O10   Zn23  S    
C150  O60   A    
C6    H77   S    
C1    C93   S    
C22   C23   S    
C133  O99   A    
C23   H130  S    
O23   Zn9   S    
C43   C47   S    
O61   Zn26  S    
C51   H122  S    
C64   H10   S    
O55   Zn24  S    
C28   C97   S    
C25   H131  S    
C23   H94   S    
O104  Zn20  S    
C26   H132  S    
O77   Zn12  S    
C53   H142  S    
C84   H61   S    
C142  O46   A    
O32   Zn18  S    
O18   Zn6   S    
O19   Zn3   S    
C176  H72   S    
C85   C86   S    
C46   C98   S    
C3    C90   S    
C67   H25   S    
C73   H33   S    
C36   C37   S    
C14   H85   S    
C110  C121  S    
C78   C80   S    
C89   O95   A    
O21   Zn32  S    
O53   Zn21  S    
C115  C116  T    
C55   H146  S    
O79   Zn27  S    
C24   C101  S    
C122  O98   A    
C11   H24   S    
C12   C99   S    
C31   C32   S    
C66   H16   S    
C4    H106  S    
C121  O23   A    
C9    C10   S    
C152  C161  S    
C143  O49   A    
C4    C91   S    
C141  O45   A    
C102  C166  S    
C85   H69   S    
C5    H76   S    
C130  O32   A    
C54   H149  S    
O42   Zn10  S    
O72   Zn3   S    
C132  O34   A    
C135  O89   A    
C71   H28   S    
C141  O43   A    
C151  O64   A    
C10   H13   S    
C149  O59   A    
C157  C165  T    
O12   Zn1   S    
C77   H43   S    
C28   H99   S    
O44   Zn13  S    
O83   Zn21  S    
C23   C93   S    
C58   H153  S    
C145  O57   A    
C45   C74   S    
C13   C99   S    
C10   C97   S    
C60   H159  S    
C56   H156  S    
C34   C79   S    
O70   Zn6   S    
C38   C90   S    
C3    C174  S    
C55   H147  S    
C83   C84   S    
C35   O4    A    
C149  O66   A    
C10   H81   S    
O28   Zn11  S    
C137  O38   A    
C143  C167  S    
C32   H103  S    
C6    H128  S    
O26   Zn13  S    
C24   O18   A    
C16   H68   S    
C22   H93   S    
C136  O37   A    
O39   Zn29  S    
C7    H78   S    
C105  C129  S    
C69   H22   S    
C91   C100  S    
O7    Zn26  S    
C142  O44   A    
O51   Zn19  S    
C52   C53   S    
C78   H51   S    
C21   C25   S    
C54   C55   S    
C61   H8    S    
O61   Zn19  S    
C36   H107  S    
O75   Zn2   S    
C135  O36   A    
C26   H97   S    
C76   H45   S    
C145  O51   A    
C63   H14   S    
C87   C175  S    
C146  O52   A    
C88   C176  S    
O57   Zn26  S    
O103  Zn19  S    
C17   H88   S    
C117  C118  T    
O27   Zn14  S    
C126  O27   A    
C42   C67   S    
C115  C135  S    
C154  O71   A    
C56   C58   S    
C49   C81   S    
C148  C157  S    
C114  C138  S    
C82   H54   S    
C61   C62   S    
C110  C112  T    
C83   H62   S    
C36   C54   S    
C123  O24   A    
O1    Zn9   S    
O2    Zn31  S    
C9    H80   S    
C49   C50   S    
O8    Zn28  S    
C146  C169  S    
C22   C92   S    
C14   C15   S    
C80   H50   S    
O64   Zn27  S    
O36   Zn22  S    
O5    Zn24  S    
C33   H104  S    
C150  O63   A    
O46   Zn15  S    
C71   H26   S    
C17   H123  S    
C151  O62   A    
C44   H115  S    
C18   H124  S    
C120  C131  S    
C37   C88   S    
C130  O85   A    
O89   Zn5   S    
O47   Zn16  S    
O1    Zn16  S    
C128  O82   A    
C145  C165  S    
O76   Zn1   S    
C57   O6    A    
C70   H29   S    
O22   Zn2   S    
C40   C63   S    
C29   C98   S    
O78   Zn23  S    
O72   Zn22  S    
C84   H60   S    
C152  O74   A    
C67   H23   S    
C49   C101  S    
C175  H73   S    
C138  O40   A    
C51   C103  S    
C17   C20   S    
C140  O42   A    
C18   C19   S    
C39   C91   S    
C31   H102  S    
C46   O20   A    
C21   H92   S    
C16   H87   S    
C41   C93   S    
C59   H160  S    
C158  C167  T    
C43   C95   S    
C160  C169  T    
C27   H133  S    
O50   Zn32  S    
C70   C71   S    
C12   H83   S    
O50   Zn18  S    
O37   Zn24  S    
C73   H31   S    
C42   H113  S    
C25   C94   S    
C76   H47   S    
O97   Zn13  S    
C79   C174  S    
C27   C96   S    
C39   C61   S    
C1    O94   A    
O28   Zn28  S    
C14   H46   S    
C39   C42   S    
C2    O103  A    
O84   Zn31  S    
O40   Zn26  S    
C137  O91   A    
C131  O86   A    
C112  C123  S    
O74   Zn32  S    
C19   C88   S    
C111  O97   A    
C90   C133  S    
C176  H84   S    
C14   C101  S    
C12   H35   S    
C154  O69   A    
C129  O31   A    
C52   H145  S    
O65   Zn1   S    
C71   H27   S    
C25   H96   S    
C5    H117  S    
C62   H6    S    
O85   Zn32  S    
C166  O102  A    
C6    C93   S    
C9    C96   S    
C60   H158  S    
C139  O41   A    
O11   Zn27  S    
C50   C102  S    
O34   Zn20  S    
O29   Zn15  S    
C66   H17   S    
C44   C45   S    
C113  C114  T    
C21   C91   S    
C48   C99   S    
C140  C170  S    
C111  O9    A    
O86   Zn2   S    
C53   H141  S    
O101  Zn17  S    
C4    H75   S    
O17   Zn17  S    
C124  O78   A    
C18   H89   S    
C119  C120  T    
C116  C136  S    
C106  C126  S    
C8    H79   S    
C34   C52   S    
C153  C162  S    
C166  O14   A    
C59   H3    S    
O3    Zn21  S    
C2    C103  S    
C86   H65   S    
C7    H139  S    
C144  O12   A    
O83   Zn6   S    
C65   C66   S    
O96   Zn11  S    
C77   H42   S    
C147  C168  S    
C128  O30   A    
O4    Zn22  S    
C34   H105  S    
C148  O58   A    
C56   H155  S    
O24   Zn10  S    
C81   H58   S    
C100  O8    A    
C29   H135  S    
C21   H127  S    
C30   H136  S    
C9    H2    S    
C129  O84   A    
C65   H19   S    
C89   O2    A    
O88   Zn4   S    
O6    Zn25  S    
C17   C79   S    
C13   O104  A    
O31   Zn17  S    
C81   C82   S    
C3    H95   S    
O92   Zn8   S    
O71   Zn3   S    
C22   H129  S    
C117  C132  S    
C50   H121  S    
C62   H4    S    
C134  O35   A    
O54   Zn22  S    
C80   H48   S    
O83   Zn24  S    
C85   H67   S    
C159  C168  T    
C58   H154  S    
C49   H120  S    
C48   C78   S    
C16   C103  S    
C48   C51   S    
C72   H34   S    
C175  C176  S    
O67   Zn7   S    
C81   H56   S    
C155  O101  A    
C41   H112  S    
C8    H150  S    
C64   H9    S    
O48   Zn17  S    
C31   H137  S    
O33   Zn19  S    
C69   H21   S    
C53   H143  S    
O43   Zn11  S    
O61   Zn8   S    
O41   Zn9   S    
C127  O29   A    
C39   H110  S    
C78   H52   S    
C156  O73   A    
O63   Zn23  S    
C61   H7    S    
C74   C75   S    
O30   Zn16  S    
C64   H11   S    
C11   H82   S    
C154  C163  S    
C76   C77   S    
C68   O7    A    
C41   C65   S    
C20   C90   S    
C30   C99   S    
C69   H20   S    
C63   C64   S    
C33   C103  S    
O83   Zn4   S    
C67   C69   S    
C152  O67   A    
O17   Zn10  S    
O72   Zn5   S    
O100  Zn16  S    
C121  O76   A    
C79   C144  S    
C37   H108  S    
C132  O87   A    
C1    O93   A    
C66   H15   S    
C15   H57   S    
C19   H125  S    
O91   Zn7   S    
C40   C92   S    
O62   Zn29  S    
C48   H119  S    
O15   Zn8   S    
C27   H98   S    
C161  C170  T    
C109  C125  S    
C40   C41   S    
C24   O3    A    
C68   O22   A    
O45   Zn14  S    
C146  O54   A    
C43   C70   S    
O17   Zn31  S    
C87   C155  S    
O13   Zn12  S    
O9    Zn29  S    
C149  C158  S    
C57   C95   S    
C26   C95   S    
C148  O65   A    
C30   H101  S    
C28   H134  S    
C30   C33   S    
C74   H40   S    
C34   C38   S    
C73   H32   S    
C144  O100  A    
C118  C134  S    
C100  O96   A    
C77   H44   S    
O73   Zn4   S    
C70   H30   S    
C75   H38   S    
O39   Zn27  S    
C18   C87   S    
C151  C160  S    
O35   Zn21  S    
C15   H86   S    
C45   C97   S    
C72   H36   S    
O99   Zn15  S    
C8    C11   S    
C74   H41   S    
C45   H116  S    
C15   C102  S    
O28   Zn14  S    
C155  O13   A    
C5    C92   S    
C13   O16   A    
C138  O92   A    
O56   Zn25  S    
C156  C164  S    
C26   C29   S    
C63   H12   S    
C52   H144  S    
C27   C28   S    
O72   Zn20  S    
O50   Zn25  S    
O61   Zn2   S    
C123  O77   A    
C35   C97   S    
C38   H109  S    
C122  O10   A    
