data_mof_unit_52602.cif
_audit_creation_date              2012-12-10T17:53:26-0500
_audit_creation_method            fapswitch 2.2
_symmetry_space_group_name_H-M    P1
_symmetry_Int_Tables_number       1
_space_group_crystal_system       triclinic
_cell_length_a                    23.370582
_cell_length_b                    10.72017
_cell_length_c                    9.914097
_cell_angle_alpha                 90.6109
_cell_angle_beta                  89.133891
_cell_angle_gamma                 92.444584
_cell_volume                      2481.1755559

loop_
_atom_site_label
_atom_site_type_symbol
_atom_type_description
_atom_site_fract_x
_atom_site_fract_y
_atom_site_fract_z
_atom_type_partial_charge
C1    C     C_R   0.500487 0.258587 0.500623 0.884723
C2    C     C_R   0.124228 0.599161 0.423155 0.509719
C3    C     C_R   0.245233 0.632432 0.566393 0.123392
C4    C     C_R   0.389886 0.503086 0.501771 0.931827
C5    C     C_R   0.305106 0.622704 0.563295 0.427880
C6    C     C_R   0.328657 0.513831 0.508962 -0.146278
C7    C     C_R   0.293734 0.411519 0.470934 -0.354790
C8    C     C_R   0.234888 0.419440 0.476954 -0.140141
C9    C     C_R   0.210492 0.529348 0.522189 0.261683
C10   C     C_R   0.761341 0.558548 0.614772 -0.095362
C11   C     C_R   0.701989 0.549763 0.615022 -0.217140
C12   C     C_R   0.966311 0.390177 0.701546 -0.157420
C13   C     C_R   0.673013 0.511425 0.497845 -0.030965
C14   C     C_R   0.704050 0.484090 0.379810 -0.243252
C15   C     C_R   0.763517 0.489106 0.380995 -0.102733
C16   C     C_R   0.508235 0.738515 0.500821 0.939187
C17   C     C_R   0.792331 0.525942 0.498667 0.305165
C18   C     C_R   0.491392 0.106925 0.758084 -0.126839
C19   C     C_R   0.505296 0.048275 0.877450 -0.160551
C20   C     C_R   0.534515 0.938385 0.872204 -0.155350
C21   C     C_R   0.544572 0.881455 0.747895 -0.117349
C22   C     C_R   0.526324 0.936041 0.627236 0.088326
C23   C     C_R   0.025798 0.393861 0.707697 -0.159742
C24   C     C_R   0.508026 0.058460 0.629925 0.035014
C25   C     C_R   0.507608 0.124269 0.504312 -0.239525
C26   C     C_R   0.523302 0.062319 0.383127 0.492276
C27   C     C_R   0.523993 0.933882 0.382761 -0.309234
C28   C     C_R   0.610646 0.502432 0.499120 0.840291
C29   C     C_R   0.522299 0.870403 0.504050 -0.207762
C30   C     C_R   0.403256 0.390321 0.135658 0.228465
C31   C     C_R   0.351454 0.388433 0.063985 0.189821
C32   C     C_R   0.354725 0.374722 0.924561 -0.248781
C33   C     C_R   0.407638 0.388292 0.860546 -0.243822
C34   C     C_R   0.058852 0.464411 0.614345 -0.018151
C35   C     C_R   0.454139 0.445825 0.927889 0.122147
C36   C     C_R   0.453055 0.447140 0.072012 0.097248
C37   C     C_R   0.544416 0.551141 0.070631 -0.123671
C38   C     C_R   0.544289 0.551520 0.927600 -0.117081
C39   C     C_R   0.884681 0.599979 0.412046 0.502874
C40   C     C_R   0.879301 0.456027 0.595059 0.501661
C41   C     C_R   0.938901 0.458558 0.603276 -0.012106
C42   C     C_R   0.971665 0.531024 0.510373 -0.021067
C43   C     C_R   0.944500 0.601430 0.412815 -0.012319
C44   C     C_3   0.588600 0.109063 0.210915 0.073252
C45   C     C_R   0.031753 0.532644 0.514729 -0.022877
C46   C     C_3   0.634669 0.173342 0.299513 -0.365012
C47   C     C_3   0.693661 0.171436 0.231697 -0.922562
C48   C     C_3   0.409966 0.271553 0.212886 -0.795622
C49   C     C_3   0.294241 0.374831 0.134887 -0.853446
C50   C     C_3   0.219767 0.752511 0.614932 -0.785185
C51   C     C_3   0.350146 0.723046 0.740529 0.091433
C52   C     C_3   0.364085 0.856436 0.789193 -0.333376
C53   C     C_3   0.378354 0.860283 0.938984 -0.924037
C54   C     C_R   0.064586 0.601822 0.418964 -0.022393
C55   C     C_R   0.037156 0.670934 0.321390 -0.158732
C56   C     C_R   0.977604 0.671536 0.319015 -0.157563
C57   C     C_R   0.118586 0.467888 0.617055 0.509639
H1    H     H_    0.941939 0.334164 0.774324 0.192582
H2    H     H_    0.580609 0.593299 0.123469 0.140812
H3    H     H_    0.045743 0.340502 0.784906 0.191873
H4    H     H_    0.317311 0.346439 0.866756 0.181995
H5    H     H_    0.411338 0.350909 0.760832 0.204951
H6    H     H_    0.580441 0.593970 0.873352 0.130404
H7    H     H_    0.061561 0.725071 0.247068 0.191677
H8    H     H_    0.957648 0.726191 0.242928 0.192048
H9    H     H_    0.312052 0.325620 0.436355 0.165717
H10   H     H_    0.207879 0.340354 0.444856 0.165083
H11   H     H_    0.783375 0.588944 0.705448 0.152022
H12   H     H_    0.678853 0.573900 0.706478 0.151010
H13   H     H_    0.590987 0.152415 0.109580 0.175454
H14   H     H_    0.597466 0.008866 0.194734 0.123017
H15   H     H_    0.623372 0.271344 0.318900 0.241928
H16   H     H_    0.636423 0.125176 0.397976 0.214853
H17   H     H_    0.705247 0.073793 0.209743 0.272853
H18   H     H_    0.726208 0.215030 0.299884 0.274570
H19   H     H_    0.694056 0.224770 0.136212 0.263149
H20   H     H_    0.400926 0.283634 0.321739 0.236786
H21   H     H_    0.380188 0.194848 0.177293 0.202841
H22   H     H_    0.452653 0.235701 0.191801 0.283490
H23   H     H_    0.682519 0.456909 0.287482 0.165681
H24   H     H_    0.288263 0.458227 0.199848 0.264982
H25   H     H_    0.258582 0.369169 0.061941 0.249812
H26   H     H_    0.291299 0.289384 0.197037 0.235625
H27   H     H_    0.231457 0.772112 0.721183 0.221463
H28   H     H_    0.172401 0.749807 0.611481 0.231385
H29   H     H_    0.236312 0.830997 0.551216 0.260045
H30   H     H_    0.387422 0.666269 0.761820 0.201358
H31   H     H_    0.312770 0.684169 0.800227 0.128928
H32   H     H_    0.401297 0.896163 0.730498 0.246342
H33   H     H_    0.326769 0.914815 0.771827 0.223585
H34   H     H_    0.787213 0.463466 0.290909 0.156652
H35   H     H_    0.341673 0.821131 0.999813 0.270701
H36   H     H_    0.387381 0.958493 0.971557 0.265706
H37   H     H_    0.416787 0.805781 0.957759 0.269373
H38   H     H_    0.465576 0.186196 0.770232 0.158499
H39   H     H_    0.493494 0.088599 0.974003 0.159772
H40   H     H_    0.547156 0.894563 0.964380 0.128040
H41   H     H_    0.566898 0.795131 0.746676 0.139039
H42   H     H_    0.525199 0.884261 0.287017 0.174037
N1    N     N_R   0.853460 0.527335 0.501708 -0.355713
N2    N     N_R   0.149686 0.534068 0.522083 -0.345798
N3    N     N_R   0.499460 0.498800 0.142780 -0.106231
N4    N     N_R   0.499440 0.498720 0.857170 -0.109987
O1    O     O_R   0.500000 0.316780 0.614690 -0.644042
O2    O     O_R   0.583850 0.500050 0.614640 -0.623997
O3    O     O_R   0.583840 0.500030 0.385310 -0.634619
O4    O     O_2   0.857873 0.671374 0.323435 -0.564758
O5    O     O_3   0.532695 0.126359 0.263406 -0.656992
O6    O     O_3   0.340539 0.724177 0.599750 -0.644742
O7    O     O_2   0.847317 0.382033 0.678861 -0.563544
O8    O     O_2   0.145587 0.405337 0.713113 -0.565834
O9    O     O_2   0.156689 0.660787 0.329556 -0.555727
O10   O     O_R   0.500000 0.316750 0.385360 -0.567384
O11   O     O_R   0.416160 0.499970 0.614690 -0.652977
O12   O     O_R   0.416150 0.499950 0.385360 -0.606109
O13   O     O_R   0.500000 0.683250 0.614640 -0.625454
O14   O     O_R   0.500000 0.683220 0.385310 -0.613649
Zn1   Zn    Zn3+2 0.500000 0.500020 0.653130 0.924349
Zn2   Zn    Zn3+2 0.500000 0.499980 0.346870 0.959278

loop_
_geom_bond_atom_site_label_1
_geom_bond_atom_site_label_2
_ccdc_geom_bond_type
C49   H25   S    
C55   C56   A    
C22   C29   A    
O3    Zn2   S    
C27   C29   A    
C41   C42   A    
C4    O12   A    
C52   H33   S    
C35   C36   A    
C50   H27   S    
C7    C8    A    
N3    Zn2   S    
C39   O4    S    
C12   C23   A    
C2    O9    S    
C26   C27   A    
C37   C38   A    
C18   C24   A    
C5    C6    A    
C48   H22   S    
C30   C48   S    
C32   H4    S    
C35   N4    A    
O14   Zn2   S    
C30   C31   A    
C10   C17   A    
C48   H21   S    
C56   H8    S    
C44   H14   S    
C36   N3    A    
C18   C19   A    
C46   C47   S    
C49   H24   S    
C50   H28   S    
O10   Zn2   S    
C20   H40   S    
C19   C20   A    
C28   O3    A    
C8    C9    A    
C34   C57   A    
C13   C28   S    
C44   H13   S    
C14   H23   S    
C46   H15   S    
C12   H1    S    
C51   O6    S    
C21   C22   A    
C1    C25   S    
C18   H38   S    
C52   H32   S    
C1    O10   A    
C31   C49   S    
C16   O13   A    
C3    C50   S    
C44   C46   S    
O1    Zn1   S    
C44   O5    S    
C23   H3    S    
C53   H36   S    
C51   C52   S    
C24   C25   A    
C4    C6    S    
C2    C54   A    
C51   H30   S    
C33   H5    S    
C39   C43   A    
C2    N2    A    
C25   C26   A    
C37   N3    A    
C42   C45   A    
C48   H20   S    
C40   N1    A    
C38   N4    A    
C3    C9    A    
C31   C32   A    
C28   O2    A    
C23   C34   A    
C27   H42   S    
C55   H7    S    
C53   H35   S    
C34   C45   A    
O11   Zn1   S    
C1    O1    A    
C37   H2    S    
C40   C41   A    
C45   C54   A    
O12   Zn2   S    
C22   C24   A    
O2    Zn1   S    
N4    Zn1   S    
C42   C43   A    
C26   O5    S    
C52   C53   S    
C12   C41   A    
C38   H6    S    
C4    O11   A    
C15   C17   A    
C54   C55   A    
C53   H37   S    
C47   H17   S    
C3    C5    A    
C51   H31   S    
C47   H19   S    
C40   O7    S    
C11   H12   S    
C6    C7    A    
C10   H11   S    
C57   N2    A    
C30   C36   A    
C32   C33   A    
C49   H26   S    
C16   C29   S    
C47   H18   S    
C16   O14   A    
C7    H9    S    
C21   H41   S    
C11   C13   A    
C39   N1    A    
C57   O8    S    
C5    O6    S    
C33   C35   A    
O13   Zn1   S    
C17   N1    S    
C10   C11   A    
C50   H29   S    
C15   H34   S    
C43   C56   A    
C20   C21   A    
C8    H10   S    
C9    N2    S    
C14   C15   A    
C13   C14   A    
C46   H16   S    
C19   H39   S    
