data_mof_unit_45837.cif
_audit_creation_date              2013-03-05T15:50:49-0500
_audit_creation_method            fapswitch 2.2
_symmetry_space_group_name_H-M    P1
_symmetry_Int_Tables_number       1
_space_group_crystal_system       triclinic
_cell_length_a                    9.597855
_cell_length_b                    10.849019
_cell_length_c                    15.720792
_cell_angle_alpha                 85.995775
_cell_angle_beta                  72.926054
_cell_angle_gamma                 89.422654
_cell_volume                      1560.90410744

loop_
_atom_site_label
_atom_site_type_symbol
_atom_site_description
_atom_site_fract_x
_atom_site_fract_y
_atom_site_fract_z
_atom_type_partial_charge
O1    O     O_R   0.118810 0.319640 0.500010 -0.596307
O2    O     O_R   0.881240 0.319660 0.500000 -0.587166
C1    C     C_R   0.003153 0.262248 0.496634 0.776512
O3    O     O_R   0.055570 0.499980 0.629840 -0.590919
O4    O     O_R   0.818000 0.500010 0.629830 -0.590987
C2    C     C_R   0.916721 0.501947 0.671269 0.810018
Cu1   Cu    Cu3+1 0.140660 0.499990 0.500010 0.923942
Cu2   Cu    Cu3+1 0.859340 0.500010 0.499990 0.979322
O5    O     O_R   0.118760 0.680340 0.500000 -0.626181
O6    O     O_R   0.881190 0.680360 0.499990 -0.524263
O7    O     O_R   0.182000 0.499990 0.370170 -0.618005
O8    O     O_R   0.944430 0.500020 0.370160 -0.567452
C3    C     C_R   0.996459 0.736059 0.509619 0.856865
C4    C     C_R   0.083194 0.488754 0.329203 0.848930
C5    C     C_R   0.867658 0.518446 0.766773 -0.101888
C6    C     C_R   0.130732 0.465590 0.233172 -0.100156
C7    C     C_R   0.897948 0.615900 0.894662 0.320853
C8    C     C_R   0.952075 0.586292 0.805928 -0.270153
C9    C     C_R   0.727145 0.480224 0.815623 -0.238654
C10   C     C_R   0.666459 0.511058 0.903825 0.058633
C11   C     C_R   0.755895 0.574226 0.945409 0.032630
C12   C     C_R   0.517882 0.483271 0.951108 0.085085
C13   C     C_R   0.469255 0.496233 0.044013 0.081402
C14   C     C_R   0.560122 0.556398 0.083685 -0.230265
C15   C     C_R   0.698251 0.598530 0.035119 -0.192650
C16   C     C_R   0.413738 0.451915 0.908064 -0.210562
C17   C     C_R   0.266478 0.438144 0.955509 -0.155243
C18   C     C_R   0.220616 0.445615 0.047873 0.135049
C19   C     C_R   0.324721 0.461672 0.093705 0.088507
C20   C     C_R   0.072041 0.440436 0.095211 -0.120472
C21   C     C_R   0.027493 0.460529 0.185892 -0.162832
C22   C     C_R   0.279054 0.444020 0.188002 0.065491
H1    H     H_    0.757896 0.650321 0.069306 0.200634
H2    H     H_    0.912110 0.468246 0.219403 0.158485
H3    H     H_    0.188075 0.423097 0.919637 0.148836
H4    H     H_    0.058968 0.620161 0.766398 0.183931
H5    H     H_    0.667111 0.425199 0.783411 0.147222
H6    H     H_    0.520268 0.579788 0.151382 0.165524
H7    H     H_    0.440800 0.447826 0.836700 0.141226
H8    H     H_    0.990356 0.429623 0.061040 0.153329
H9    H     H_    0.772231 0.111431 0.528807 0.160509
C23   C     C_R   0.280798 0.114621 0.457410 -0.163388
H10   H     H_    0.301361 0.204066 0.422050 0.157253
C24   C     C_R   0.402695 0.051922 0.467948 -0.135675
H11   H     H_    0.509255 0.095852 0.444811 0.149302
C25   C     C_R   0.386406 0.934794 0.511138 -0.113106
H12   H     H_    0.479238 0.888550 0.524232 0.161166
C26   C     C_R   0.250871 0.875902 0.535854 -0.151426
H13   H     H_    0.242640 0.787354 0.573005 0.168551
C27   C     C_R   0.129030 0.933180 0.516352 0.091648
C28   C     C_R   0.139304 0.060324 0.489701 0.106798
C29   C     C_R   0.007784 0.127026 0.497515 -0.114856
C30   C     C_R   0.874228 0.062991 0.519984 -0.187783
H14   H     H_    0.765246 0.888645 0.545352 0.180828
C31   C     C_R   0.869523 0.935425 0.530746 -0.114839
C32   C     C_R   0.997313 0.868936 0.522566 -0.124959
H15   H     H_    0.575280 0.378768 0.614693 0.128879
C33   C     C_R   0.704354 0.637275 0.355523 0.374016
C34   C     C_R   0.658606 0.671783 0.280802 -0.243963
H16   H     H_    0.734460 0.717011 0.221976 0.201732
C35   C     C_R   0.512749 0.689567 0.291769 -0.301211
H17   H     H_    0.477247 0.742549 0.241075 0.186184
C36   C     C_R   0.412403 0.645613 0.369698 -0.121694
H18   H     H_    0.303402 0.671836 0.375206 0.226960
C37   C     C_R   0.454467 0.570533 0.434498 0.161702
C38   C     C_R   0.605488 0.569382 0.431827 0.072248
N1    N     N_R   0.648320 0.501210 0.499140 -0.201304
C39   C     C_R   0.544387 0.433531 0.563063 -0.055016
H19   H     H_    0.317758 0.377127 0.613698 0.141990
C40   C     C_R   0.396872 0.432710 0.562535 -0.059240
N2    N     N_R   0.352470 0.501290 0.499110 -0.200523
N3    N     N_R   0.809382 0.723440 0.363884 0.157535
O9    O     O_R   0.936915 0.729485 0.304539 -0.375478
O10   O     O_R   0.758101 0.825138 0.399732 -0.403956
C41   C     C_3   0.373795 0.371720 0.237143 -0.390798
C42   C     C_3   0.457352 0.265261 0.186432 -0.819640
H20   H     H_    0.383392 0.208470 0.161933 0.263966
H21   H     H_    0.550182 0.299862 0.129476 0.260194
H22   H     H_    0.502481 0.205167 0.231890 0.244515
H23   H     H_    0.449585 0.432726 0.256350 0.216311
H24   H     H_    0.302534 0.326011 0.299628 0.210656
N4    N     N_R   0.983739 0.697227 0.928317 0.114783
O11   O     O_R   0.011954 0.668877 0.003202 -0.387321
O12   O     O_R   0.052137 0.790953 0.877470 -0.349822

loop_
_geom_bond_atom_site_label_1
_geom_bond_atom_site_label_2
_geom_bond_distance
_ccdc_geom_bond_type
C5    C8    1.394731 A    
C31   C32   1.394170 A    
C36   C37   1.408277 A    
C9    C10   1.400144 A    
C42   H22   1.111021 S    
C22   C41   1.533757 S    
Cu1   Cu2   2.700158 S    
C24   H11   1.082884 S    
C6    C21   1.405920 A    
C5    C9    1.392529 A    
C16   C17   1.394968 A    
C13   C19   1.417191 A    
C18   C19   1.411262 A    
C42   H21   1.108068 S    
C19   C22   1.416645 A    
Cu1   N2    2.028997 S    
O4    C2    1.298996 A    
O7    C4    1.304186 A    
C16   H7    1.078751 S    
C7    N4    1.439478 S    
C35   C36   1.375018 A    
O5    C3    1.288557 A    
C9    H5    1.079497 S    
C2    C5    1.458997 S    
H14   C31   1.082115 S    
C33   C38   1.450576 A    
C14   H6    1.067727 S    
C13   C14   1.401204 A    
C40   N2    1.367074 A    
C41   H23   1.106780 S    
C23   C28   1.420742 A    
C3    C32   1.470327 S    
C26   C27   1.420196 A    
C38   N1    1.405647 A    
C34   H16   1.083749 S    
C35   H17   1.083130 S    
C23   C24   1.393181 A    
O3    Cu1   1.963145 S    
C24   C25   1.386142 A    
C27   C28   1.409166 A    
C30   C31   1.382061 A    
C25   C26   1.391639 A    
C34   C35   1.372653 A    
N1    C39   1.366431 A    
C14   C15   1.385117 A    
O3    C2    1.300881 A    
C41   H24   1.105866 S    
C17   H3    1.084182 S    
C33   C34   1.396762 A    
C37   N2    1.370678 A    
C27   C32   1.424515 A    
C28   C29   1.426581 A    
O1    C1    1.294556 A    
Cu1   O7    1.961708 S    
C41   C42   1.532044 S    
Cu2   O8    1.963145 S    
C7    C8    1.397385 A    
C21   H2    1.082891 S    
C20   H8    1.083957 S    
C42   H20   1.111004 S    
H9    C30   1.083438 S    
N3    O10   1.300075 A    
C26   H13   1.079951 S    
C10   C12   1.425436 A    
C37   C38   1.437665 A    
N4    O12   1.302183 A    
C4    C6    1.482114 S    
C23   H10   1.074122 S    
H15   C39   1.081722 S    
C29   C30   1.402971 A    
Cu1   O5    1.965765 S    
C11   C15   1.398362 A    
C25   H12   1.082679 S    
O1    Cu1   1.969927 S    
Cu2   O6    1.969927 S    
O2    Cu2   1.965765 S    
O8    C4    1.306694 A    
N3    O9    1.302106 A    
O6    C3    1.317821 A    
O4    Cu2   1.961708 S    
C1    C29   1.466481 S    
C6    C22   1.417197 A    
C18   C20   1.401089 A    
O2    C1    1.308986 A    
C33   N3    1.421706 S    
C20   C21   1.395062 A    
H19   C40   1.081661 S    
C7    C11   1.422353 A    
C36   H18   1.061681 S    
C10   C11   1.427521 A    
Cu2   N1    2.029208 S    
C39   C40   1.418413 A    
N4    O11   1.299533 A    
C12   C16   1.417373 A    
C17   C18   1.396116 A    
C12   C13   1.413443 A    
C8    H4    1.084019 S    
C15   H1    1.077775 S    
