data_mof_unit_41680.cif
_audit_creation_date              2012-12-10T17:33:11-0500
_audit_creation_method            fapswitch 2.2
_symmetry_space_group_name_H-M    P1
_symmetry_Int_Tables_number       1
_space_group_crystal_system       triclinic
_cell_length_a                    15.516091
_cell_length_b                    15.508653
_cell_length_c                    17.807197
_cell_angle_alpha                 90.886023
_cell_angle_beta                  109.918407
_cell_angle_gamma                 68.899393
_cell_volume                      3730.38515842

loop_
_atom_site_label
_atom_site_type_symbol
_atom_type_description
_atom_site_fract_x
_atom_site_fract_y
_atom_site_fract_z
_atom_type_partial_charge
C1    C     C_R   0.464840 0.740135 0.532395 0.502023
C2    C     C_R   0.626408 0.437222 0.088908 -0.128684
C3    C     C_R   0.688718 0.384761 0.050572 0.021405
C4    C     C_R   0.535200 0.259233 0.469741 0.490238
C5    C     C_R   0.658124 0.398908 0.966555 0.042605
C6    C     C_R   0.566035 0.470823 0.921869 0.013656
C7    C     C_R   0.716919 0.342346 0.925810 -0.126077
C8    C     C_R   0.684050 0.354837 0.842220 -0.134506
C9    C     C_R   0.528882 0.472144 0.837869 -0.129798
C10   C     C_R   0.448132 0.948512 0.642446 0.021692
C11   C     C_R   0.452731 0.835020 0.547446 0.020299
C12   C     C_R   0.341264 0.669788 0.160411 -0.123958
C13   C     C_R   0.533773 0.145869 0.371412 -0.142625
C14   C     C_R   0.500930 0.076862 0.338272 -0.130107
C15   C     C_R   0.472206 0.025590 0.381914 0.027814
C16   C     C_R   0.758183 0.447283 0.533262 0.499233
C17   C     C_R   0.489751 0.034167 0.465380 0.031450
C18   C     C_R   0.521069 0.106838 0.498084 0.018382
C19   C     C_R   0.474530 0.976115 0.517094 0.016886
C20   C     C_R   0.472997 0.001163 0.594295 0.058965
C21   C     C_R   0.504515 0.072867 0.624150 -0.136911
C22   C     C_R   0.534245 0.120070 0.579013 -0.116891
C23   C     C_R   0.481844 0.533033 0.163580 -0.128805
C24   C     C_R   0.471164 0.889055 0.498094 -0.120725
C25   C     C_R   0.438032 0.865587 0.617648 -0.115669
C26   C     C_R   0.536646 0.166379 0.448773 0.018934
C27   C     C_R   0.022394 0.396606 0.653811 -0.132740
C28   C     C_R   0.241447 0.551668 0.467396 0.492813
C29   C     C_R   0.862253 0.429398 0.550870 0.033868
C30   C     C_R   0.067954 0.607066 0.365668 0.034098
C31   C     C_R   0.971920 0.607951 0.340624 0.026410
C32   C     C_R   0.943165 0.566522 0.391406 -0.127074
C33   C     C_R   0.007770 0.526063 0.470609 0.005652
C34   C     C_R   0.470434 0.562091 0.084911 0.024210
C35   C     C_R   0.102104 0.532681 0.498804 -0.007653
C36   C     C_R   0.981332 0.479749 0.522695 0.022921
C37   C     C_R   0.048666 0.443480 0.603257 0.062643
C38   C     C_R   0.138723 0.457911 0.632254 0.014698
C39   C     C_R   0.161947 0.504750 0.580574 -0.097202
C40   C     C_R   0.560368 0.441150 0.712128 0.490442
C41   C     C_R   0.888824 0.469839 0.497677 -0.122234
C42   C     C_R   0.929670 0.391258 0.628213 -0.129328
C43   C     C_R   0.134939 0.567837 0.444925 0.000834
C44   C     C_R   0.440762 0.559252 0.287291 0.504571
C45   C     C_R   0.390083 0.644893 0.043518 0.036298
C46   C     C_R   0.419777 0.587395 0.202211 0.017950
C47   C     C_R   0.589324 0.418555 0.798263 0.033293
C48   C     C_R   0.326009 0.697848 0.081439 -0.134032
C49   C     C_3   0.434872 0.976372 0.721133 -0.279478
C50   C     C_3   0.340906 0.062696 0.706761 -0.433625
C51   C     C_3   0.212003 0.426089 0.718147 -0.282345
C52   C     C_3   0.178639 0.492499 0.775885 -0.439386
C53   C     C_3   0.438578 0.681371 0.854984 -0.274710
C54   C     C_3   0.538739 0.688011 0.869004 -0.417899
C55   C     C_R   0.535682 0.510488 0.046065 -0.001006
C56   C     C_R   0.512026 0.535667 0.962810 0.039052
C57   C     C_R   0.439941 0.626684 0.926474 0.012669
C58   C     C_R   0.377223 0.677027 0.966322 -0.123030
Cl1   Cl    Cl    0.396597 0.969116 0.322649 -0.101718
Cl2   Cl    Cl    0.102969 0.650305 0.293936 -0.044240
Cl3   Cl    Cl    0.885765 0.656821 0.243044 -0.086100
Cl4   Cl    Cl    0.802607 0.298390 0.110804 -0.104374
H1    H     H_    0.319891 0.744388 0.938231 0.098154
H2    H     H_    0.452871 0.513086 0.802487 0.096904
H3    H     H_    0.070712 0.367318 0.714879 0.110768
H4    H     H_    0.832672 0.498035 0.439166 0.103018
H5    H     H_    0.868967 0.568088 0.366394 0.114905
H6    H     H_    0.227463 0.520968 0.606024 0.132034
H7    H     H_    0.732094 0.314265 0.811720 0.104518
H8    H     H_    0.264984 0.762043 0.050421 0.109133
H9    H     H_    0.292074 0.712936 0.188887 0.143976
H10   H     H_    0.537851 0.467528 0.195877 0.128052
H11   H     H_    0.653762 0.422058 0.153478 0.118233
H12   H     H_    0.789010 0.289374 0.957889 0.128254
H13   H     H_    0.343958 0.123542 0.677372 0.159306
H14   H     H_    0.275112 0.049016 0.668056 0.160216
H15   H     H_    0.332485 0.080151 0.765231 0.133445
H16   H     H_    0.428713 0.919392 0.753537 0.133837
H17   H     H_    0.500643 0.988010 0.762373 0.137024
H18   H     H_    0.172879 0.563343 0.758271 0.152941
H19   H     H_    0.105764 0.496434 0.775772 0.158229
H20   H     H_    0.233835 0.467550 0.837907 0.143988
H21   H     H_    0.224070 0.353793 0.737837 0.136318
H22   H     H_    0.286127 0.423467 0.722333 0.147283
H23   H     H_    0.423622 0.821961 0.655077 0.097776
H24   H     H_    0.563660 0.716588 0.926509 0.158382
H25   H     H_    0.595688 0.619026 0.870734 0.173866
H26   H     H_    0.531636 0.735276 0.819119 0.130724
H27   H     H_    0.411971 0.655472 0.796999 0.128107
H28   H     H_    0.384481 0.754288 0.845317 0.129812
H29   H     H_    0.512061 0.090221 0.684439 0.112453
H30   H     H_    0.493172 0.857413 0.449804 0.124770
H31   H     H_    0.546695 0.189704 0.333089 0.140709
H32   H     H_    0.489587 0.068894 0.275490 0.127422
H33   H     H_    0.567330 0.167814 0.608743 0.139516
H34   H     H_    0.908637 0.360975 0.670244 0.110936
O1    O     O_3   0.500000 0.500000 0.500000 -0.436396
O2    O     O_R   0.596500 0.492780 0.688380 -0.543095
O3    O     O_R   0.388780 0.611210 0.325000 -0.540342
O4    O     O_R   0.499860 0.410860 0.661600 -0.550417
O5    O     O_R   0.514860 0.485140 0.325020 -0.546499
O6    O     O_R   0.707110 0.418540 0.472990 -0.538295
O7    O     O_R   0.267620 0.606720 0.435250 -0.530858
O8    O     O_R   0.540230 0.674660 0.578090 -0.538805
O9    O     O_R   0.485030 0.300080 0.513670 -0.542400
O10   O     O_R   0.403610 0.721990 0.472930 -0.534111
O11   O     O_R   0.571130 0.303270 0.435320 -0.545401
O12   O     O_R   0.717650 0.497270 0.578120 -0.539158
O13   O     O_R   0.307610 0.477470 0.513630 -0.543615
Zn1   Zn    Zn3+2 0.572030 0.427990 0.434470 0.934101
Zn2   Zn    Zn3+2 0.587090 0.540470 0.584680 0.933474
Zn3   Zn    Zn3+2 0.449010 0.423430 0.546420 0.922736
Zn4   Zn    Zn3+2 0.391880 0.608100 0.434430 0.951001

loop_
_geom_bond_atom_site_label_1
_geom_bond_atom_site_label_2
_ccdc_geom_bond_type
C40   C47   S    
C55   C56   A    
C29   C42   A    
C9    H2    S    
C39   H6    S    
C31   Cl3   S    
C19   C20   A    
C18   C26   A    
C12   C48   A    
C6    C9    A    
C7    C8    A    
C53   C54   S    
C49   H16   S    
C8    H7    S    
C42   H34   S    
C36   C37   A    
O7    Zn4   S    
C2    C55   A    
C40   O2    A    
C5    C6    A    
O1    Zn2   S    
C44   O3    A    
C45   C48   A    
C11   C25   A    
C11   C24   A    
C33   C36   A    
C56   C57   A    
C22   H33   S    
C17   C19   A    
C10   C20   A    
C30   Cl2   S    
C35   C43   A    
C1    O10   A    
C34   C55   A    
C23   C46   A    
C13   C14   A    
C36   C41   A    
C24   H30   S    
C44   C46   S    
C7    H12   S    
C38   C39   A    
C4    O11   A    
C45   C58   A    
O10   Zn4   S    
C51   C52   S    
C12   C46   A    
O13   Zn3   S    
C48   H8    S    
C54   H24   S    
O1    Zn3   S    
C53   C57   S    
C38   C51   S    
O5    Zn1   S    
C49   H17   S    
C13   H31   S    
C35   C39   A    
O3    Zn4   S    
C37   C38   A    
C27   H3    S    
C50   H14   S    
C31   C32   A    
C30   C31   A    
C23   C34   A    
C25   H23   S    
C17   C18   A    
C34   C45   A    
C52   H20   S    
C1    O8    A    
C2    H11   S    
C32   H5    S    
C10   C25   A    
C16   O6    A    
C12   H9    S    
C9    C47   A    
C53   H27   S    
O11   Zn1   S    
C30   C43   A    
O6    Zn1   S    
O1    Zn4   S    
C50   H15   S    
C51   H21   S    
C5    C7    A    
C21   H29   S    
C3    Cl4   S    
C58   H1    S    
C15   C17   A    
O2    Zn2   S    
C29   C41   A    
C18   C22   A    
C15   Cl1   S    
C23   H10   S    
O9    Zn3   S    
C27   C42   A    
C6    C56   A    
C3    C5    A    
C40   O4    A    
O8    Zn2   S    
C4    C26   S    
C44   O5    A    
O4    Zn3   S    
C41   H4    S    
C28   O13   A    
C4    O9    A    
C28   C43   S    
O12   Zn2   S    
C32   C33   A    
C2    C3    A    
C16   C29   S    
C8    C47   A    
C52   H18   S    
C50   H13   S    
C54   H26   S    
O1    Zn1   S    
C28   O7    A    
C57   C58   A    
C54   H25   S    
C27   C37   A    
C33   C35   A    
C19   C24   A    
C52   H19   S    
C13   C26   A    
C16   O12   A    
C20   C21   A    
C49   C50   S    
C53   H28   S    
C14   C15   A    
C1    C11   S    
C21   C22   A    
C10   C49   S    
C51   H22   S    
C14   H32   S    
