data_mof_unit_57793.cif
_audit_creation_date              2012-12-10T19:12:30-0500
_audit_creation_method            fapswitch 2.2
_symmetry_space_group_name_H-M    P1
_symmetry_Int_Tables_number       1
_space_group_crystal_system       triclinic
_cell_length_a                    15.695886
_cell_length_b                    10.668376
_cell_length_c                    9.72481
_cell_angle_alpha                 90.666519
_cell_angle_beta                  88.821162
_cell_angle_gamma                 89.817052
_cell_volume                      1627.95126864

loop_
_atom_site_label
_atom_site_type_symbol
_atom_type_description
_atom_site_fract_x
_atom_site_fract_y
_atom_site_fract_z
_atom_type_partial_charge
C1    C     C_R   0.499787 0.257391 0.499522 0.972952
C2    C     C_3   0.083115 0.516302 0.501711 0.060394
C3    C     C_3   0.971383 0.616682 0.574072 -0.102055
C4    C     C_3   0.916920 0.522798 0.494578 0.033030
C5    C     C_3   0.031210 0.625959 0.447152 0.000492
C6    C     C_3   0.975739 0.532169 0.366150 -0.282512
C7    C     C_1   0.173854 0.511056 0.504117 0.019476
C8    C     C_1   0.826042 0.517903 0.493473 0.057839
C9    C     C_3   0.492991 0.072223 0.650636 -0.510966
C10   C     C_3   0.488158 0.930147 0.649819 -0.357228
C11   C     C_3   0.416840 0.070158 0.421107 0.460090
C12   C     C_R   0.337912 0.501762 0.501214 0.991126
C13   C     C_3   0.588618 0.067917 0.435745 -0.070938
C14   C     C_3   0.499576 0.119984 0.498600 -0.101019
C15   C     C_3   0.499364 0.877948 0.501098 0.062264
C16   C     C_3   0.426064 0.925099 0.411091 -0.452782
C17   C     C_3   0.584808 0.921780 0.437880 -0.479559
C18   C     C_3   0.522540 0.374691 0.079594 -0.224189
C19   C     C_3   0.519965 0.371630 0.917499 -0.320805
C20   C     C_3   0.412623 0.528661 0.085511 -0.397236
C21   C     C_3   0.559229 0.593210 0.079126 0.464278
C22   C     C_3   0.413173 0.532613 0.923011 -0.090841
C23   C     C_R   0.498949 0.742078 0.500767 0.861332
C24   C     C_3   0.563334 0.584506 0.916684 -0.284536
C25   C     C_R   0.662079 0.503231 0.498680 0.979235
C26   C     C_3   0.969846 0.414041 0.548361 0.559840
C27   C     C_3   0.029509 0.421405 0.420482 -0.302326
C28   C     C_1   0.249089 0.506399 0.503816 -0.094229
C29   C     C_1   0.750847 0.511100 0.495352 -0.092365
C30   C     C_3   0.024500 0.506986 0.630444 -0.241965
H1    H     H_    0.056991 0.343610 0.356828 0.152084
H2    H     H_    0.424847 0.901320 0.691204 0.224409
H3    H     H_    0.366436 0.874855 0.438845 0.182442
H4    H     H_    0.637468 0.877219 0.494072 0.212649
H5    H     H_    0.591978 0.881333 0.332512 0.179811
H6    H     H_    0.440552 0.896992 0.302596 0.225580
H7    H     H_    0.479254 0.301717 0.120994 0.192076
H8    H     H_    0.587447 0.348996 0.112675 0.234916
H9    H     H_    0.582422 0.338689 0.874318 0.189877
H10   H     H_    0.472049 0.301588 0.884081 0.162831
H11   H     H_    0.366459 0.456160 0.120647 0.168739
H12   H     H_    0.365818 0.462407 0.887206 0.132848
H13   H     H_    0.536094 0.688714 0.110876 0.095781
H14   H     H_    0.628021 0.553374 0.881465 0.188411
H15   H     H_    0.556036 0.678785 0.871685 0.164315
H16   H     H_    0.389252 0.618074 0.133088 0.186865
H17   H     H_    0.954427 0.542756 0.258866 0.185524
H18   H     H_    0.046151 0.495197 0.737504 0.172233
H19   H     H_    0.436430 0.111265 0.707283 0.201966
H20   H     H_    0.548226 0.102671 0.712364 0.213790
H21   H     H_    0.538207 0.892630 0.717874 0.216080
N1    N     N_3   0.498170 0.499750 0.138610 -0.077222
N2    N     N_3   0.498850 0.496730 0.861320 -0.098882
O1    O     O_R   0.499980 0.314910 0.616040 -0.625319
O2    O     O_R   0.500040 0.314680 0.383960 -0.584085
O3    O     O_R   0.376750 0.500100 0.616020 -0.588719
O4    O     O_R   0.376810 0.499870 0.383940 -0.647237
O5    O     O_R   0.499960 0.685320 0.616040 -0.632702
O6    O     O_R   0.500020 0.685090 0.383960 -0.652943
O7    O     O_R   0.623190 0.500130 0.616060 -0.619345
O8    O     O_R   0.623250 0.499900 0.383980 -0.559574
Zn1   Zn    Zn3+2 0.499960 0.500150 0.654960 0.964058
Zn2   Zn    Zn3+2 0.500040 0.499850 0.345040 0.980725
C31   C     C_2   0.335763 0.108576 0.505131 0.762702
O9    O     O_2   0.319352 0.219584 0.524121 -0.678983
O10   O     O_R   0.281317 0.018607 0.562339 -0.815423
H22   H     H_    0.231167 0.057217 0.615001 0.360498
C32   C     C_2   0.606328 0.108521 0.286344 0.911072
O11   O     O_2   0.661428 0.186091 0.259959 -0.632565
O12   O     O_R   0.562574 0.052748 0.177686 -0.783751
H23   H     H_    0.580827 0.086280 0.084542 0.329714
C33   C     C_2   0.663192 0.114431 0.524950 0.858339
O13   O     O_2   0.679285 0.226347 0.531322 -0.630270
O14   O     O_R   0.711889 0.031688 0.602179 -0.824558
H24   H     H_    0.757180 0.075760 0.657531 0.348936
O15   O     O_3   0.416865 0.119840 0.284593 -0.628098
C34   C     C_3   0.336937 0.129162 0.218290 0.101777
H25   H     H_    0.349318 0.179037 0.120320 0.154190
H26   H     H_    0.290729 0.189875 0.275772 0.153244
C35   C     C_3   0.297500 0.001829 0.181807 -0.432778
H27   H     H_    0.345905 0.941833 0.128329 0.255603
H28   H     H_    0.274819 0.954536 0.276493 0.231543
C36   C     C_3   0.221392 0.017155 0.088214 -0.860951
H29   H     H_    0.241634 0.060838 0.989722 0.259952
H30   H     H_    0.171569 0.076421 0.139621 0.257444
H31   H     H_    0.193734 0.923729 0.065220 0.300475
O16   O     O_3   0.929496 0.309720 0.610186 -0.636809
C37   C     C_3   0.962418 0.195346 0.557086 0.086429
H32   H     H_    0.951246 0.122825 0.636468 0.191136
H33   H     H_    0.032729 0.197876 0.538914 0.131992
C38   C     C_3   0.915096 0.155678 0.427188 -0.372001
H34   H     H_    0.846054 0.147187 0.451842 0.271223
H35   H     H_    0.922644 0.227610 0.346373 0.225328
C39   C     C_3   0.948214 0.030508 0.370552 -0.853374
H36   H     H_    0.017168 0.037397 0.343818 0.266753
H37   H     H_    0.913342 0.005185 0.276118 0.275545
H38   H     H_    0.938202 0.955575 0.447547 0.275975
O17   O     O_3   0.641957 0.570400 0.129248 -0.623085
C40   C     C_3   0.690588 0.681623 0.134810 0.061466
H39   H     H_    0.678111 0.728663 0.235601 0.157001
H40   H     H_    0.675610 0.747790 0.050518 0.122146
C41   C     C_3   0.784996 0.647601 0.122467 -0.331579
H41   H     H_    0.800355 0.575444 0.199629 0.234240
H42   H     H_    0.798848 0.607643 0.018266 0.234150
C42   C     C_3   0.841061 0.762175 0.145602 -0.906356
H43   H     H_    0.825101 0.837262 0.072131 0.270002
H44   H     H_    0.908972 0.735823 0.129161 0.299748
H45   H     H_    0.832080 0.798187 0.252609 0.267701
C43   C     C_2   0.381238 0.660060 0.877890 0.936829
O18   O     O_2   0.319071 0.667184 0.804644 -0.600573
O19   O     O_R   0.417159 0.769692 0.931118 -0.874366
H46   H     H_    0.383900 0.847588 0.906860 0.338767
C44   C     C_2   0.069622 0.743714 0.391062 0.894314
O20   O     O_2   0.057728 0.772653 0.271778 -0.648533
O21   O     O_R   0.119606 0.819066 0.475481 -0.754098
H47   H     H_    0.142166 0.895741 0.426284 0.345545
C45   C     C_2   0.939327 0.726174 0.658621 0.908886
O22   O     O_2   0.989944 0.791977 0.719954 -0.583652
O23   O     O_R   0.852128 0.752655 0.666860 -0.817370
H48   H     H_    0.838652 0.828886 0.726728 0.349733

loop_
_geom_bond_atom_site_label_1
_geom_bond_atom_site_label_2
_ccdc_geom_bond_type
O5    Zn1   S    
C23   O5    A    
O16   C37   S    
O19   H46   S    
C4    C8    S    
C20   H11   S    
C18   N1    S    
C34   H25   S    
C23   O6    A    
C42   H44   S    
C26   C27   S    
C12   C28   S    
C24   H15   S    
C30   H18   S    
C18   H7    S    
C11   O15   S    
C43   O19   S    
C5    C6    S    
C11   C14   S    
O21   H47   S    
C41   C42   S    
O7    Zn1   S    
C18   C19   S    
C11   C16   S    
O8    Zn2   S    
C3    C45   S    
C2    C7    S    
C21   H13   S    
C36   H29   S    
C32   O11   D    
O2    Zn2   S    
C2    C27   S    
C25   O7    A    
C9    C10   S    
C36   H30   S    
C19   N2    S    
C15   C23   S    
O10   H22   S    
C13   C14   S    
C39   H36   S    
C35   C36   S    
C10   H21   S    
O4    Zn2   S    
C22   N2    S    
C34   H26   S    
C25   C29   S    
C42   H45   S    
O14   H24   S    
C27   H1    S    
C9    H19   S    
O15   C34   S    
C33   O14   S    
C11   C31   S    
C6    H17   S    
C38   H34   S    
C33   O13   D    
C2    C30   S    
O1    Zn1   S    
C39   H38   S    
C24   N2    S    
C7    C28   T    
C31   O10   S    
C3    C30   S    
C39   H37   S    
C9    C14   S    
C16   H3    S    
C38   H35   S    
N2    Zn1   S    
C6    C27   S    
C37   C38   S    
C22   C43   S    
C36   H31   S    
C25   O8    A    
C41   H42   S    
C12   O3    A    
C19   H9    S    
C1    O1    A    
C12   O4    A    
C4    C6    S    
C40   H40   S    
C37   H33   S    
C26   C30   S    
C24   H14   S    
O3    Zn1   S    
C2    C5    S    
C17   H4    S    
C8    C29   T    
C3    C4    S    
O12   H23   S    
C44   O20   D    
C34   C35   S    
C15   C17   S    
C5    C44   S    
C9    H20   S    
C20   C22   S    
C35   H27   S    
C3    C5    S    
N1    Zn2   S    
C4    C26   S    
O23   H48   S    
C13   C33   S    
C42   H43   S    
O6    Zn2   S    
C40   H39   S    
C13   C17   S    
C10   C15   S    
C31   O9    D    
C45   O23   S    
C1    O2    A    
C20   N1    S    
C43   O18   D    
C16   H6    S    
C38   C39   S    
C21   O17   S    
C22   H12   S    
C26   O16   S    
C35   H28   S    
C18   H8    S    
C41   H41   S    
C19   H10   S    
C10   H2    S    
C40   C41   S    
C37   H32   S    
C32   O12   S    
O17   C40   S    
C21   C24   S    
C1    C14   S    
C17   H5    S    
C45   O22   D    
C21   N1    S    
C20   H16   S    
C15   C16   S    
C44   O21   S    
C13   C32   S    
