data_mof_unit_50241.cif
_audit_creation_date              2012-12-10T20:32:41-0500
_audit_creation_method            fapswitch 2.2
_symmetry_space_group_name_H-M    P1
_symmetry_Int_Tables_number       1
_space_group_crystal_system       triclinic
_cell_length_a                    11.579456
_cell_length_b                    10.856322
_cell_length_c                    10.015897
_cell_angle_alpha                 89.796827
_cell_angle_beta                  89.647253
_cell_angle_gamma                 92.598706
_cell_volume                      1257.77351955

loop_
_atom_site_label
_atom_site_type_symbol
_atom_type_description
_atom_site_fract_x
_atom_site_fract_y
_atom_site_fract_z
_atom_type_partial_charge
C1    C     C_R   0.499907 0.260713 0.499948 0.865207
C2    C     C_R   0.507519 0.129613 0.499070 -0.099187
C3    C     C_R   0.548816 0.067983 0.386649 -0.187269
C4    C     C_R   0.548372 0.939119 0.386458 -0.225127
C5    C     C_R   0.518534 0.871809 0.503043 -0.098010
C6    C     C_R   0.499413 0.938583 0.619135 0.053943
C7    C     C_3   0.456172 0.934162 0.761522 -0.254499
C8    C     C_3   0.419173 0.067320 0.742037 -0.260373
C9    C     C_R   0.403688 0.461177 0.071000 0.149996
C10   C     C_R   0.593246 0.545302 0.070466 -0.001389
C11   C     C_R   0.593822 0.543066 0.927447 -0.012806
C12   C     C_R   0.282253 0.499652 0.500336 0.922061
C13   C     C_R   0.400956 0.470231 0.929590 0.128627
C14   C     C_3   0.330984 0.353399 0.915324 -0.394823
C15   C     C_3   0.345530 0.333027 0.066806 -0.233065
C16   C     C_R   0.505499 0.739547 0.500434 0.855751
C17   C     C_R   0.717653 0.498552 0.499494 0.903973
C18   C     C_1   0.161443 0.496930 0.500740 -0.102053
C19   C     C_1   0.059142 0.494171 0.499666 -0.031614
C20   C     C_1   0.940258 0.492564 0.497925 -0.031188
C21   C     C_1   0.838098 0.494261 0.498051 -0.150794
C22   C     C_R   0.479480 0.059906 0.611028 0.055129
H1    H     H_    0.577876 0.118381 0.298449 0.196396
H2    H     H_    0.377740 0.291107 0.850845 0.166504
H3    H     H_    0.569316 0.893370 0.295425 0.158642
H4    H     H_    0.529152 0.938640 0.833096 0.129988
H5    H     H_    0.465526 0.131284 0.811090 0.175302
N1    N     N_R   0.499240 0.499140 0.142800 -0.127978
N2    N     N_R   0.499240 0.499180 0.857150 -0.127668
O1    O     O_R   0.500010 0.316790 0.614690 -0.620499
O2    O     O_R   0.500000 0.316760 0.385350 -0.612409
O3    O     O_R   0.334450 0.500030 0.614670 -0.594507
O4    O     O_R   0.334440 0.500000 0.385330 -0.589721
O5    O     O_R   0.500000 0.683240 0.614650 -0.624795
O6    O     O_R   0.499990 0.683210 0.385310 -0.623947
O7    O     O_R   0.665560 0.500000 0.614670 -0.608109
O8    O     O_R   0.665550 0.499970 0.385330 -0.613118
Zn1   Zn    Zn3+2 0.500010 0.500020 0.653130 0.971793
Zn2   Zn    Zn3+2 0.499990 0.499980 0.346870 0.981846
C23   C     C_2   0.233261 0.318575 0.145651 1.005828
O9    O     O_2   0.180519 0.218404 0.150634 -0.630536
O10   O     O_R   0.184517 0.421168 0.202986 -0.779891
H6    H     H_    0.106112 0.399673 0.244389 0.328455
C24   C     C_2   0.428046 0.230226 0.093243 0.870533
O11   O     O_2   0.530516 0.244135 0.063472 -0.659310
O12   O     O_R   0.385623 0.116270 0.142769 -0.797377
H7    H     H_    0.444316 0.050106 0.136347 0.320103
C25   C     C_R   0.363283 0.839434 0.802302 0.202438
C26   C     C_R   0.279257 0.794205 0.712548 -0.063711
C27   C     C_R   0.183799 0.724393 0.759639 -0.165196
C28   C     C_R   0.169563 0.701999 0.896477 -0.066708
C29   C     C_R   0.255470 0.741150 0.985477 -0.111137
C30   C     C_R   0.352696 0.808663 0.938503 -0.214749
H8    H     H_    0.284695 0.817149 0.607417 0.104613
H9    H     H_    0.120132 0.691008 0.689197 0.122367
H10   H     H_    0.091976 0.655167 0.934478 0.173006
H11   H     H_    0.245465 0.721693 0.091104 0.161381
H12   H     H_    0.416677 0.842543 0.009448 0.120201
C31   C     C_R   0.288008 0.079672 0.733056 0.153668
C32   C     C_R   0.221339 0.067421 0.850712 -0.128826
C33   C     C_R   0.100648 0.065508 0.846390 -0.083909
C34   C     C_R   0.044462 0.077057 0.724455 -0.116074
C35   C     C_R   0.108948 0.091089 0.606745 -0.101722
C36   C     C_R   0.229741 0.092579 0.610441 -0.081488
H13   H     H_    0.262912 0.055452 0.945635 0.191849
H14   H     H_    0.050708 0.054356 0.937672 0.155941
H15   H     H_    0.950987 0.075222 0.721172 0.121422
H16   H     H_    0.065274 0.100158 0.512215 0.138297
H17   H     H_    0.276063 0.101342 0.516780 0.134894
C37   C     C_R   0.693210 0.607156 0.137038 0.190585
C38   C     C_R   0.694958 0.735307 0.152499 -0.151002
C39   C     C_R   0.795273 0.799813 0.194846 -0.146767
C40   C     C_R   0.896181 0.737009 0.216548 -0.114233
C41   C     C_R   0.896859 0.609994 0.194916 -0.149038
C42   C     C_R   0.795842 0.544945 0.155413 -0.121237
H18   H     H_    0.620185 0.785224 0.124058 0.096484
H19   H     H_    0.795723 0.898892 0.206859 0.136833
H20   H     H_    0.974441 0.787084 0.247274 0.135690
H21   H     H_    0.975872 0.562204 0.207859 0.164814
H22   H     H_    0.797909 0.446907 0.136493 0.136297
C43   C     C_R   0.691807 0.604633 0.856320 0.176649
C44   C     C_R   0.798257 0.549520 0.842929 -0.114790
C45   C     C_R   0.890711 0.614847 0.781455 -0.153418
C46   C     C_R   0.878069 0.735336 0.735046 -0.120441
C47   C     C_R   0.772941 0.790976 0.751606 -0.157713
C48   C     C_R   0.680971 0.725385 0.813060 -0.105158
H23   H     H_    0.808728 0.456085 0.877461 0.121194
H24   H     H_    0.970711 0.570087 0.766307 0.137604
H25   H     H_    0.948729 0.785761 0.685587 0.131117
H26   H     H_    0.762691 0.884411 0.717103 0.130126
H27   H     H_    0.600369 0.766581 0.829085 0.123055
C49   C     C_2   0.210762 0.373583 0.862596 0.988450
O13   O     O_2   0.184939 0.336051 0.751605 -0.630929
O14   O     O_R   0.128416 0.431786 0.939049 -0.817883
H28   H     H_    0.048689 0.425028 0.898106 0.319140

loop_
_geom_bond_atom_site_label_1
_geom_bond_atom_site_label_2
_ccdc_geom_bond_type
C40   C41   A    
C3    H1    S    
C19   C20   S    
C43   C44   A    
C7    C8    S    
C47   C48   A    
C11   C43   S    
C31   C36   A    
C34   C35   A    
C7    H4    S    
C34   H15   S    
C13   N2    A    
C15   C24   S    
C18   C19   T    
C48   H27   S    
C16   O6    A    
C5    C6    A    
C26   H8    S    
C6    C22   A    
C1    O2    A    
O1    Zn1   S    
C28   H10   S    
C14   H2    S    
C9    C13   A    
C49   O13   D    
C5    C16   S    
C16   O5    A    
C35   H16   S    
C33   H14   S    
O4    Zn2   S    
N2    Zn1   S    
C2    C22   A    
C8    C22   S    
C40   H20   S    
C37   C38   A    
C17   O7    A    
O3    Zn1   S    
C42   H22   S    
C43   C48   A    
C23   O10   S    
C45   H24   S    
C31   C32   A    
C13   C14   S    
C12   O3    A    
C33   C34   A    
C24   O12   S    
C4    H3    S    
C25   C30   A    
C41   C42   A    
C28   C29   A    
C46   C47   A    
C10   C11   A    
C4    C5    A    
N1    Zn2   S    
C17   C21   S    
C32   C33   A    
O6    Zn2   S    
C39   H19   S    
C45   C46   A    
C47   H26   S    
C49   O14   S    
C27   C28   A    
C17   O8    A    
C36   H17   S    
C14   C49   S    
C10   C37   S    
C23   O9    D    
C32   H13   S    
C26   C27   A    
C41   H21   S    
O10   H6    S    
C3    C4    A    
C24   O11   D    
C10   N1    A    
O12   H7    S    
C25   C26   A    
O5    Zn1   S    
C39   C40   A    
C30   H12   S    
C6    C7    S    
C27   H9    S    
C7    C25   S    
O7    Zn1   S    
C2    C3    A    
C9    C15   S    
C38   C39   A    
C8    C31   S    
C38   H18   S    
C1    C2    S    
C1    O1    A    
O2    Zn2   S    
O14   H28   S    
C15   C23   S    
C29   H11   S    
C35   C36   A    
C20   C21   T    
C11   N2    A    
O8    Zn2   S    
C44   C45   A    
C46   H25   S    
C12   C18   S    
C37   C42   A    
C8    H5    S    
C14   C15   S    
C12   O4    A    
C44   H23   S    
C9    N1    A    
C29   C30   A    
