data_mof_unit_68255.cif
_audit_creation_date              2013-03-05T15:59:43-0500
_audit_creation_method            fapswitch 2.2
_symmetry_space_group_name_H-M    P1
_symmetry_Int_Tables_number       1
_space_group_crystal_system       triclinic
_cell_length_a                    6.942244
_cell_length_b                    14.416717
_cell_length_c                    15.833142
_cell_angle_alpha                 89.971636
_cell_angle_beta                  90.115902
_cell_angle_gamma                 89.655196
_cell_volume                      1584.6178555

loop_
_atom_site_label
_atom_site_type_symbol
_atom_site_description
_atom_site_fract_x
_atom_site_fract_y
_atom_site_fract_z
_atom_type_partial_charge
O1    O     O_R   0.638960 0.835150 0.161940 -0.585750
O2    O     O_R   0.361040 0.164850 0.838060 -0.585748
O3    O     O_R   0.309170 0.846340 0.337470 -0.565052
O4    O     O_R   0.690830 0.153660 0.662530 -0.565049
O5    O     O_R   0.138810 0.664830 0.338070 -0.577385
O6    O     O_R   0.861190 0.335170 0.661930 -0.577366
C1    C     C_R   0.478222 0.868870 0.365869 1.277682
C2    C     C_R   0.521778 0.131130 0.634131 1.277678
O7    O     O_R   0.309250 0.846350 0.162570 -0.575193
O8    O     O_R   0.690750 0.153650 0.837430 -0.575192
O9    O     O_R   0.138880 0.664840 0.161920 -0.574067
O10   O     O_R   0.861120 0.335160 0.838080 -0.574059
C3    C     C_R   0.477670 0.868248 0.133504 1.178939
C4    C     C_R   0.522330 0.131752 0.866496 1.178934
O11   O     O_R   0.638880 0.835150 0.338090 -0.590284
O12   O     O_R   0.361120 0.164850 0.661910 -0.590286
O13   O     O_3   0.472380 0.690440 0.250000 -0.266449
O14   O     O_3   0.527620 0.309560 0.750000 -0.266441
V1    V     V_3+5 0.197550 0.761040 0.250010 1.401336
V2    V     V_3+5 0.802450 0.238960 0.749990 1.401347
O15   O     O_R   0.809160 0.653640 0.162540 -0.582012
O16   O     O_R   0.190840 0.346360 0.837460 -0.582016
C5    C     C_R   0.978617 0.632953 0.132743 1.226010
C6    C     C_R   0.021383 0.367051 0.867254 1.226005
O17   O     O_R   0.809090 0.653640 0.337440 -0.579262
O18   O     O_R   0.190910 0.346360 0.662560 -0.579272
C7    C     C_R   0.978767 0.632533 0.366797 1.175703
C8    C     C_R   0.021233 0.367468 0.633204 1.175716
V3    V     V_3+5 0.697540 0.738950 0.250000 1.390788
V4    V     V_3+5 0.302460 0.261050 0.750000 1.390785
O19   O     O_3   0.972580 0.809550 0.250010 -0.265783
O20   O     O_3   0.027420 0.190450 0.749990 -0.265782
C9    C     C_3   0.109291 0.572257 0.520521 0.109917
C10   C     C_3   0.890701 0.427745 0.479482 0.109924
C11   C     C_3   0.935402 0.537467 0.571205 0.019282
C12   C     C_3   0.064590 0.462534 0.428797 0.019298
C13   C     C_3   0.007485 0.436260 0.562658 -0.687752
C14   C     C_3   0.992511 0.563742 0.437345 -0.687732
C15   C     C_3   0.182362 0.471429 0.511209 0.804767
C16   C     C_3   0.817632 0.528571 0.488793 0.804816
C17   C     C_3   0.885781 0.429918 0.019390 0.022837
C18   C     C_3   0.114221 0.570090 0.980602 0.022846
C19   C     C_3   0.058196 0.461926 0.072860 0.623668
C20   C     C_3   0.941807 0.538083 0.927132 0.623649
C21   C     C_3   0.992217 0.564038 0.062123 -0.820056
C22   C     C_3   0.007785 0.435970 0.937870 -0.820052
C23   C     C_3   0.819293 0.531246 0.008458 0.705564
C24   C     C_3   0.180708 0.468763 0.991534 0.705559
C25   C     C_3   0.613208 0.027784 0.437643 0.001576
C26   C     C_3   0.386793 0.972216 0.562357 0.001566
C27   C     C_3   0.442124 0.083734 0.473195 0.656582
C28   C     C_3   0.557877 0.916267 0.526805 0.656593
C29   C     C_3   0.509928 0.061130 0.564308 -0.830115
C30   C     C_3   0.490073 0.938871 0.435692 -0.830128
C31   C     C_3   0.681696 0.005212 0.528033 0.707695
C32   C     C_3   0.318304 0.994788 0.471967 0.707694
C33   C     C_3   0.671626 0.960987 0.013091 0.828449
C34   C     C_3   0.328373 0.039013 0.986909 0.828449
C35   C     C_3   0.556096 0.957582 0.930477 0.161727
C36   C     C_3   0.443904 0.042418 0.069523 0.161729
C37   C     C_3   0.512926 0.062058 0.936892 -0.548833
C38   C     C_3   0.487074 0.937942 0.063108 -0.548830
C39   C     C_3   0.629787 0.066610 0.020784 -0.313445
C40   C     C_3   0.370213 0.933390 0.979216 -0.313445
H1    H     H_    0.738389 0.118517 0.040104 0.271572
H2    H     H_    0.261610 0.881484 0.959896 0.271570
N1    N     N_R   0.857835 0.578380 0.648141 0.310253
O21   O     O_R   0.928744 0.654922 0.678073 -0.167704
O22   O     O_R   0.708539 0.541454 0.684116 -0.226877
N2    N     N_R   0.142137 0.421628 0.351854 0.310261
O23   O     O_R   0.070707 0.345309 0.321721 -0.167882
O24   O     O_R   0.291578 0.458480 0.315933 -0.226756
N3    N     N_R   0.621587 0.907758 0.855687 0.297795
O25   O     O_R   0.652339 0.818800 0.859669 -0.194223
O26   O     O_R   0.651382 0.951492 0.785118 -0.321512
N4    N     N_R   0.378413 0.092242 0.144313 0.297794
O27   O     O_R   0.347662 0.181200 0.140331 -0.194227
O28   O     O_R   0.348617 0.048508 0.214882 -0.321518
F1    F     F_    0.850362 0.919932 0.024571 -0.626524
F2    F     F_    0.149638 0.080069 0.975429 -0.626521
N5    N     N_R   0.233417 0.648474 0.546042 0.326724
O29   O     O_R   0.331132 0.642691 0.616017 -0.178060
O30   O     O_R   0.252669 0.720947 0.498067 -0.313326
N6    N     N_R   0.766570 0.351526 0.453969 0.326722
O31   O     O_R   0.668767 0.357323 0.384019 -0.177974
O32   O     O_R   0.747376 0.279043 0.501936 -0.313363
F3    F     F_    0.369333 0.440327 0.521990 -0.570570
F4    F     F_    0.630661 0.559675 0.478013 -0.570566
F5    F     F_    0.118667 0.420853 0.147224 -0.541535
F6    F     F_    0.881351 0.579157 0.852766 -0.541575
N7    N     N_R   0.756751 0.355909 0.045133 0.329990
O33   O     O_R   0.670788 0.360431 0.117923 -0.185595
O34   O     O_R   0.718828 0.287784 0.994270 -0.362240
N8    N     N_R   0.243253 0.644100 0.954862 0.329985
O35   O     O_R   0.329213 0.639581 0.882071 -0.185619
O36   O     O_R   0.281188 0.712219 0.005730 -0.362242
F7    F     F_    0.632827 0.563860 0.016533 -0.556334
F8    F     F_    0.367175 0.436149 0.983459 -0.556336
F9    F     F_    0.381995 0.169736 0.444372 -0.536928
F10   F     F_    0.618006 0.830265 0.555627 -0.536892
N9    N     N_R   0.738887 0.061438 0.370732 0.341022
O37   O     O_R   0.841620 0.135336 0.382833 -0.165688
O38   O     O_R   0.747544 0.019019 0.298398 -0.307681
N10   N     N_R   0.261113 0.938562 0.629266 0.341022
O39   O     O_R   0.158380 0.864664 0.617165 -0.165675
O40   O     O_R   0.252455 0.980980 0.701601 -0.307679
F11   F     F_    0.868135 0.010185 0.558040 -0.553680
F12   F     F_    0.131866 0.989815 0.441960 -0.553683

loop_
_geom_bond_atom_site_label_1
_geom_bond_atom_site_label_2
_geom_bond_distance
_ccdc_geom_bond_type
V4    O20   2.169133 S    
C39   H1    1.108187 S    
C26   N10   1.458521 S    
N9    O37   1.299680 A    
C5    C21   1.498871 S    
C10   C13   1.550394 S    
O13   V3    1.716269 S    
N3    O25   1.300348 A    
C33   F1    1.383169 S    
C15   F3    1.380947 S    
O4    C2    1.299086 A    
V1    O19   1.707385 S    
N10   O40   1.299920 A    
N5    O29   1.300313 A    
C33   C38   1.545309 S    
O9    V1    2.010243 S    
C35   C40   1.546473 S    
C9    C15   1.543906 S    
C10   N6    1.457272 S    
C36   C39   1.546472 S    
C10   C16   1.543891 S    
C11   C13   1.545739 S    
N4    O28   1.300200 A    
O3    C1    1.299086 A    
C25   N9    1.458523 S    
C33   C35   1.533931 S    
C7    C14   1.495893 S    
O12   V4    2.007988 S    
C25   C30   1.545296 S    
C36   C38   1.537407 S    
C27   C32   1.548156 S    
C37   C39   1.556641 S    
O7    C3    1.298069 A    
C32   F12   1.380123 S    
C38   C40   1.556641 S    
C9    C11   1.537413 S    
O5    C7    1.290809 A    
O7    V1    2.011167 S    
O6    C8    1.290803 A    
C3    C38   1.502030 S    
O8    V2    2.011166 S    
C25   C27   1.539395 S    
C26   C28   1.539395 S    
C17   C22   1.547957 S    
O3    V1    2.009757 S    
N2    O23   1.300109 A    
O14   V4    1.716271 S    
C19   C24   1.548039 S    
C35   N3    1.457398 S    
C10   C12   1.537418 S    
C28   C31   1.548156 S    
C34   F2    1.383169 S    
C34   C37   1.545308 S    
C21   C23   1.545869 S    
C2    O12   1.292054 A    
C34   C40   1.553362 S    
C17   C19   1.537944 S    
C18   C20   1.537948 S    
N10   O39   1.299679 A    
N5    O30   1.299158 A    
C28   C30   1.550424 S    
O11   V3    2.007988 S    
C34   C36   1.533931 S    
C22   C24   1.545867 S    
C29   C31   1.547050 S    
O17   V3    2.002885 S    
C30   C32   1.547049 S    
C35   C37   1.537406 S    
C26   C29   1.545295 S    
N1    O21   1.300274 A    
N4    O27   1.300347 A    
O8    C4    1.298070 A    
N7    O33   1.300389 A    
C1    O11   1.292053 A    
C20   C22   1.548286 S    
C25   C31   1.541137 S    
C4    C37   1.502029 S    
O15   V3    2.006296 S    
C28   F10   1.382823 S    
C26   C32   1.541136 S    
C31   F11   1.380123 S    
C27   C29   1.550426 S    
C18   C21   1.547958 S    
C40   H2    1.108187 S    
N7    O34   1.298265 A    
C27   F9    1.382824 S    
C11   N1    1.456461 S    
O10   V2    2.010242 S    
O1    V3    2.005450 S    
C17   C23   1.538923 S    
C18   C24   1.538918 S    
N6    O31   1.300307 A    
N8    O36   1.298264 A    
C19   C21   1.548279 S    
C12   N2    1.456460 S    
O18   V4    2.002887 S    
O15   C5    1.301399 A    
O16   C6    1.301393 A    
O1    C3    1.294403 A    
N3    O26   1.300200 A    
C20   F6    1.381120 S    
V2    O20   1.707384 S    
O16   V4    2.006297 S    
C17   N7    1.455849 S    
C18   N8    1.455848 S    
C12   C15   1.544230 S    
C33   C39   1.553362 S    
N6    O32   1.299157 A    
C2    C29   1.499701 S    
C20   C23   1.548046 S    
O5    V1    2.010305 S    
O17   C7    1.299809 A    
O6    V2    2.010303 S    
O10   C6    1.291080 A    
O18   C8    1.299811 A    
C9    C14   1.550379 S    
C23   F7    1.380780 S    
N9    O38   1.299920 A    
O2    V4    2.005448 S    
C6    C22   1.498866 S    
C16   F4    1.380947 S    
C12   C14   1.545742 S    
C11   C16   1.544222 S    
V3    O19   2.169133 S    
C14   C16   1.550987 S    
C8    C13   1.495883 S    
O9    C5    1.291079 A    
O13   V1    2.157037 S    
C36   N4    1.457398 S    
O14   V2    2.157037 S    
C24   F8    1.380780 S    
C19   F5    1.381107 S    
N8    O35   1.300389 A    
O2    C4    1.294404 A    
O4    V2    2.009759 S    
C13   C15   1.550975 S    
N2    O24   1.300290 A    
C1    C30   1.499701 S    
N1    O22   1.300307 A    
C9    N5    1.457266 S    
