data_mof_unit_68108.cif
_audit_creation_date              2013-03-05T15:58:25-0500
_audit_creation_method            fapswitch 2.2
_symmetry_space_group_name_H-M    P1
_symmetry_Int_Tables_number       1
_space_group_crystal_system       triclinic
_cell_length_a                    7.23243
_cell_length_b                    15.047007
_cell_length_c                    15.822431
_cell_angle_alpha                 90.000226
_cell_angle_beta                  90.000091
_cell_angle_gamma                 90.002335
_cell_volume                      1721.89859651

loop_
_atom_site_label
_atom_site_type_symbol
_atom_site_description
_atom_site_fract_x
_atom_site_fract_y
_atom_site_fract_z
_atom_type_partial_charge
O1    O     O_R   0.388780 0.834790 0.412340 -0.598701
O2    O     O_R   0.111220 0.165210 0.912340 -0.598699
O3    O     O_R   0.888780 0.665210 0.587660 -0.598722
O4    O     O_R   0.611220 0.334790 0.087660 -0.598733
O5    O     O_R   0.059040 0.845930 0.587040 -0.552502
O6    O     O_R   0.440960 0.154070 0.087040 -0.552515
O7    O     O_R   0.559040 0.654070 0.412960 -0.552354
O8    O     O_R   0.940960 0.345930 0.912960 -0.552415
C1    C     C_R   0.229961 0.867656 0.615779 0.940203
C2    C     C_R   0.270039 0.132346 0.115780 0.940209
C3    C     C_R   0.729948 0.632326 0.384235 0.940143
C4    C     C_R   0.770046 0.367667 0.884230 0.940182
O9    O     O_R   0.059070 0.845930 0.412970 -0.581849
O10   O     O_R   0.440930 0.154070 0.912970 -0.581833
O11   O     O_R   0.559070 0.654070 0.587030 -0.581818
O12   O     O_R   0.940930 0.345930 0.087030 -0.581816
O13   O     O_R   0.888760 0.665210 0.412340 -0.551496
O14   O     O_R   0.611240 0.334790 0.912340 -0.551449
O15   O     O_R   0.388760 0.834790 0.587660 -0.551395
O16   O     O_R   0.111240 0.165210 0.087660 -0.551385
C5    C     C_R   0.227373 0.867358 0.384213 0.985419
C6    C     C_R   0.272627 0.132643 0.884213 0.985502
C7    C     C_R   0.727369 0.632640 0.615785 0.985548
C8    C     C_R   0.772630 0.367361 0.115784 0.985581
O17   O     O_3   0.222280 0.690700 0.500000 -0.246215
O18   O     O_3   0.277720 0.309300 0.000000 -0.246254
O19   O     O_3   0.722280 0.809300 0.500000 -0.246276
O20   O     O_3   0.777720 0.190700 0.000000 -0.246281
V1    V     V_3+5 0.947430 0.761000 0.500000 1.299188
V2    V     V_3+5 0.552570 0.239000 0.000000 1.299176
V3    V     V_3+5 0.447430 0.739000 0.500000 1.299264
V4    V     V_3+5 0.052570 0.261000 0.000000 1.299227
C9    C     C_3   0.882145 0.585300 0.754895 0.092792
C10   C     C_3   0.617862 0.414685 0.254900 0.092822
C11   C     C_3   0.382147 0.914721 0.245100 0.092739
C12   C     C_3   0.117851 0.085283 0.745101 0.092746
H1    H     H_    0.020782 0.589170 0.724587 0.132333
H2    H     H_    0.479228 0.410789 0.224592 0.132270
H3    H     H_    0.520797 0.910881 0.275399 0.132402
H4    H     H_    0.979203 0.089125 0.775402 0.132394
C13   C     C_3   0.888296 0.514124 0.825787 -0.477798
C14   C     C_3   0.611655 0.485869 0.325786 -0.477807
C15   C     C_3   0.388213 0.985887 0.174197 -0.477765
C16   C     C_3   0.111775 0.014114 0.674200 -0.477768
H5    H     H_    0.856083 0.545289 0.886186 0.240452
H6    H     H_    0.643792 0.454712 0.386198 0.240455
H7    H     H_    0.355867 0.954719 0.113816 0.240428
H8    H     H_    0.144099 0.045283 0.613817 0.240429
H9    H     H_    0.031866 0.488513 0.831289 0.234024
H10   H     H_    0.468083 0.511482 0.331257 0.234054
H11   H     H_    0.531781 0.011488 0.168647 0.233963
H12   H     H_    0.968209 0.988509 0.668658 0.233976
H13   H     H_    0.915649 0.472463 0.616683 0.129134
H14   H     H_    0.584286 0.527527 0.116701 0.129077
H15   H     H_    0.415676 0.027537 0.383321 0.129185
H16   H     H_    0.084327 0.972463 0.883317 0.129182
H17   H     H_    0.954614 0.381140 0.727088 0.170871
H18   H     H_    0.545358 0.618861 0.227096 0.170768
H19   H     H_    0.454651 0.118856 0.272908 0.170971
H20   H     H_    0.045369 0.881137 0.772908 0.170959
C17   C     C_3   0.781396 0.467683 0.650659 0.047309
C18   C     C_3   0.718555 0.532315 0.150663 0.047293
C19   C     C_3   0.281421 0.032318 0.349347 0.047345
C20   C     C_3   0.218584 0.967683 0.849346 0.047325
C21   C     C_3   0.546362 0.554038 0.734280 -0.408560
C22   C     C_3   0.953637 0.445978 0.234267 -0.408589
C23   C     C_3   0.046370 0.945955 0.265720 -0.408559
C24   C     C_3   0.453630 0.054048 0.765719 -0.408558
C25   C     C_3   0.734294 0.561567 0.686905 -0.222630
C26   C     C_3   0.765696 0.438433 0.186904 -0.222632
C27   C     C_3   0.234303 0.938436 0.313096 -0.222574
C28   C     C_3   0.265698 0.061566 0.813095 -0.222600
H21   H     H_    0.430662 0.547931 0.688891 0.221291
H22   H     H_    0.069311 0.452151 0.188870 0.221246
H23   H     H_    0.930658 0.951988 0.311109 0.221353
H24   H     H_    0.569341 0.048008 0.811107 0.221347
H25   H     H_    0.517312 0.617926 0.764106 0.207367
H26   H     H_    0.982773 0.382079 0.264056 0.207355
H27   H     H_    0.017392 0.882082 0.235847 0.207379
H28   H     H_    0.482611 0.117922 0.735851 0.207375
C29   C     C_3   0.749139 0.436947 0.811299 -0.271386
C30   C     C_3   0.750825 0.563043 0.311307 -0.271395
C31   C     C_3   0.249108 0.063073 0.188715 -0.271373
C32   C     C_3   0.250891 0.936931 0.688712 -0.271378
C33   C     C_3   0.804905 0.397298 0.723850 0.067366
C34   C     C_3   0.695067 0.602698 0.223857 0.067533
C35   C     C_3   0.304938 0.102707 0.276160 0.067174
C36   C     C_3   0.195078 0.897293 0.776158 0.067209
C37   C     C_3   0.545576 0.479055 0.803535 0.463191
C38   C     C_3   0.954371 0.520926 0.303555 0.463208
C39   C     C_3   0.045517 0.020983 0.196508 0.463122
C40   C     C_3   0.454477 0.979026 0.696501 0.463130
N1    N     N_R   0.402136 0.411842 0.782759 0.235934
O21   O     O_R   0.307632 0.373845 0.842464 -0.359624
O22   O     O_R   0.336171 0.404788 0.706710 -0.376025
N2    N     N_R   0.097815 0.588148 0.282824 0.235853
O23   O     O_R   0.192564 0.625981 0.342549 -0.359737
O24   O     O_R   0.163487 0.595373 0.206734 -0.375845
N3    N     N_R   0.902120 0.088192 0.217357 0.236022
O25   O     O_R   0.807903 0.126405 0.157689 -0.359515
O26   O     O_R   0.835876 0.095050 0.293370 -0.376179
N4    N     N_R   0.597885 0.911818 0.717341 0.236012
O27   O     O_R   0.692130 0.873631 0.657667 -0.359528
O28   O     O_R   0.664102 0.904940 0.793357 -0.376166
I1    I     I_    0.585123 0.430842 0.553351 -0.189939
I2    I     I_    0.914760 0.569169 0.053334 -0.190015
I3    I     I_    0.085179 0.069149 0.446666 -0.189927
I4    I     I_    0.414824 0.930857 0.946667 -0.189951
I5    I     I_    0.688207 0.267882 0.701601 -0.206483
I6    I     I_    0.811757 0.732121 0.201616 -0.206444
I7    I     I_    0.188290 0.232122 0.298433 -0.206499
I8    I     I_    0.311766 0.767884 0.798426 -0.206493
I9    I     I_    0.832797 0.712649 0.813107 -0.180019
I10   I     I_    0.667287 0.287351 0.313123 -0.179958
I11   I     I_    0.332863 0.787366 0.186896 -0.180124
I12   I     I_    0.167136 0.212642 0.686900 -0.180090
I13   I     I_    0.460384 0.541621 0.922247 -0.243807
I14   I     I_    0.039450 0.458303 0.422264 -0.243698
I15   I     I_    0.960129 0.958499 0.077790 -0.243834
I16   I     I_    0.539834 0.041520 0.577784 -0.243827

loop_
_geom_bond_atom_site_label_1
_geom_bond_atom_site_label_2
_geom_bond_distance
_ccdc_geom_bond_type
C24   H28   1.091324 S    
C31   C35   1.559826 S    
O1    C5    1.342009 A    
N1    O21   1.298631 A    
O19   V1    1.783232 S    
C15   C31   1.553674 S    
C7    C25   1.553215 S    
O3    C7    1.342001 A    
C10   C14   1.551529 S    
O4    V2    2.044777 S    
O15   V3    2.044832 S    
H20   C36   1.110896 S    
C8    C26   1.553207 S    
C22   C38   1.572810 S    
O7    C3    1.357032 A    
C14   C30   1.553696 S    
C18   C34   1.578503 S    
C5    C27   1.553233 S    
C38   I14   2.189634 S    
O9    V1    2.044802 S    
C34   I6    2.151382 S    
C33   I5    2.151338 S    
O4    C8    1.341991 A    
C35   I7    2.151295 S    
C22   H22   1.106558 S    
C2    C31   1.562410 S    
O1    V3    2.044810 S    
O13   V1    2.044809 S    
C18   C26   1.562262 S    
O2    V4    2.044805 S    
C14   H6    1.089739 S    
C6    C28   1.553219 S    
O3    V1    2.044787 S    
H13   C17   1.112181 S    
C1    O15   1.327260 A    
C2    O16   1.327257 A    
N2    O24   1.298799 A    
O2    C6    1.342007 A    
C19   C35   1.578504 S    
H16   C20   1.112185 S    
C11   I11   2.155758 S    
O14   V2    2.044817 S    
C17   I1    2.166280 S    
C10   C26   1.558307 S    
C9    C25   1.558283 S    
C29   C37   1.607534 S    
C16   H12   1.110960 S    
O11   C7    1.338886 A    
C11   C27   1.558269 S    
O12   C8    1.338893 A    
O10   V2    2.044794 S    
H18   C34   1.110929 S    
C13   H9    1.110987 S    
C20   I4    2.166259 S    
O5    V1    2.044813 S    
C3    C30   1.562409 S    
C10   I10   2.155820 S    
C22   H26   1.091346 S    
O7    V3    2.044857 S    
O8    V4    2.044862 S    
C12   H4    1.112985 S    
C21   H25   1.091333 S    
C21   H21   1.106530 S    
O18   V4    1.783178 S    
H14   C18   1.112187 S    
C30   C34   1.559877 S    
C38   N2    1.485568 S    
C9    H1    1.112981 S    
H15   C19   1.112184 S    
C24   C28   1.556328 S    
C11   H3    1.112983 S    
O5    C1    1.357105 A    
N3    O25   1.298574 A    
O8    C4    1.357077 A    
C13   C29   1.553691 S    
N2    O23   1.298705 A    
C23   C39   1.572849 S    
O9    C5    1.338896 A    
N4    O28   1.298736 A    
C17   C33   1.578499 S    
C14   H10   1.110981 S    
O6    V2    2.044822 S    
C19   C27   1.562259 S    
C39   I15   2.189444 S    
C12   C16   1.551514 S    
O12   V4    2.044835 S    
C19   I3    2.166257 S    
C12   I12   2.155804 S    
C11   C15   1.551512 S    
O16   V4    2.044840 S    
C17   C25   1.562259 S    
C3    O13   1.327331 A    
N3    O26   1.298729 A    
C10   H2    1.112980 S    
O17   V3    1.783178 S    
C32   C36   1.559826 S    
C37   I13   2.189528 S    
C16   C32   1.553688 S    
O6    C2    1.357107 A    
O11   V3    2.044841 S    
C18   I2    2.166267 S    
C40   N4    1.485678 S    
C24   H24   1.106507 S    
C31   C39   1.607596 S    
C21   C37   1.572832 S    
C9    I9    2.155845 S    
C30   C38   1.607449 S    
C9    C13   1.551520 S    
O10   C6    1.338891 A    
O20   V2    1.783233 S    
C40   I16   2.189448 S    
C15   H11   1.110962 S    
C22   C26   1.556304 S    
C21   C25   1.556320 S    
C24   C40   1.572841 S    
H17   C33   1.110915 S    
C4    C29   1.562425 S    
C23   C27   1.556329 S    
C20   C28   1.562257 S    
C37   N1    1.485619 S    
N4    O27   1.298573 A    
H19   C35   1.110898 S    
C1    C32   1.562410 S    
C36   I8    2.151318 S    
C16   H8    1.089679 S    
C23   H23   1.106504 S    
N1    O22   1.298745 A    
C4    O14   1.327287 A    
C13   H5    1.089704 S    
C32   C40   1.607586 S    
C39   N3    1.485682 S    
C15   H7    1.089683 S    
C20   C36   1.578504 S    
C23   H27   1.091333 S    
C29   C33   1.559845 S    
C12   C28   1.558269 S    
