data_mof_unit_10960.cif
_audit_creation_date              2012-12-10T17:38:59-0500
_audit_creation_method            fapswitch 2.2
_symmetry_space_group_name_H-M    P1
_symmetry_Int_Tables_number       1
_space_group_crystal_system       triclinic
_cell_length_a                    12.049375
_cell_length_b                    12.85172
_cell_length_c                    23.233591
_cell_angle_alpha                 90.38526
_cell_angle_beta                  84.924759
_cell_angle_gamma                 93.481539
_cell_volume                      3577.11909268

loop_
_atom_site_label
_atom_site_type_symbol
_atom_type_description
_atom_site_fract_x
_atom_site_fract_y
_atom_site_fract_z
_atom_type_partial_charge
C1    C     C_R   0.522578 0.699909 0.495634 0.896678
C2    C     C_R   0.531834 0.438366 0.288210 0.056077
C3    C     C_R   0.565876 0.629642 0.751803 0.229898
C4    C     C_R   0.540685 0.460463 0.228632 0.222275
C5    C     C_R   0.514586 0.554744 0.790970 0.208298
C6    C     C_R   0.530640 0.563267 0.209688 0.204219
C7    C     C_R   0.462184 0.187902 0.506484 -0.107197
C8    C     C_R   0.537376 0.811159 0.489261 -0.100232
C9    C     C_R   0.627553 0.970693 0.447989 0.214474
C10   C     C_R   0.368606 0.027306 0.544162 0.217160
C11   C     C_R   0.620889 0.860818 0.450528 0.168568
C12   C     C_R   0.477454 0.299691 0.502635 0.888972
C13   C     C_R   0.376787 0.136865 0.543466 0.172016
C14   C     C_R   0.459462 0.867128 0.521612 -0.324882
C15   C     C_R   0.539531 0.132593 0.473049 -0.314078
C16   C     C_R   0.499452 0.503360 0.610698 0.934566
C17   C     C_R   0.501064 0.501631 0.389457 0.941132
C18   C     C_R   0.455736 0.973118 0.514625 0.072691
C19   C     C_R   0.541550 0.025699 0.478301 0.076311
C20   C     C_R   0.961295 0.418455 0.439282 -0.296933
C21   C     C_R   0.038758 0.581789 0.560658 -0.298584
C22   C     C_R   0.844511 0.424415 0.444867 0.349868
C23   C     C_R   0.455776 0.464863 0.771464 0.147851
C24   C     C_R   0.155614 0.576256 0.554905 0.342145
C25   C     C_R   0.855470 0.532396 0.527686 -0.074231
C26   C     C_R   0.144492 0.467365 0.472435 -0.090140
C27   C     C_R   0.973322 0.528867 0.522337 0.042768
C28   C     C_R   0.026670 0.470974 0.477768 0.045012
C29   C     C_R   0.632326 0.578042 0.115419 0.552218
C30   C     C_R   0.425448 0.595333 0.884663 0.496294
C31   C     C_R   0.435841 0.598822 0.125921 0.513291
C32   C     C_R   0.619158 0.561912 0.874785 0.561945
C33   C     C_R   0.432986 0.605118 0.066208 -0.065740
C34   C     C_R   0.510736 0.644835 0.249392 0.155432
C35   C     C_R   0.625397 0.573908 0.934131 -0.041572
C36   C     C_R   0.531805 0.594060 0.030271 -0.060342
C37   C     C_R   0.527304 0.590328 0.969851 -0.051246
C38   C     C_R   0.634315 0.583863 0.054777 -0.058964
C39   C     C_R   0.424530 0.600097 0.945344 -0.086305
C40   C     C_R   0.332169 0.616845 0.042112 -0.179300
C41   C     C_R   0.727327 0.568040 0.958207 -0.236817
C42   C     C_R   0.326065 0.613623 0.982555 0.217105
C43   C     C_R   0.733494 0.575220 0.017840 0.218760
C44   C     C_3   0.218248 0.629777 0.601011 -0.831846
C45   C     C_R   0.443809 0.453168 0.712126 0.109312
C46   C     C_3   0.782144 0.372888 0.398130 -0.838924
C47   C     C_3   0.179566 0.718636 0.954632 -0.716337
C48   C     C_3   0.893571 0.674576 0.048265 -0.687799
C49   C     C_3   0.406564 0.380788 0.813215 -0.830929
C50   C     C_3   0.510864 0.756614 0.229059 -0.833960
C51   C     C_3   0.256123 0.380430 0.700082 -0.751165
C52   C     C_3   0.343028 0.711666 0.360709 -0.690007
C53   C     C_3   0.616832 0.695459 0.650330 -0.883429
C54   C     C_3   0.547092 0.328662 0.308665 -0.917127
C55   C     C_3   0.555641 0.804133 0.791508 -0.771776
C56   C     C_R   0.491478 0.621078 0.308521 0.104745
C57   C     C_3   0.463581 0.331053 0.164473 -0.768880
C58   C     C_3   0.300656 0.197399 0.584882 -0.887793
C59   C     C_3   0.697721 0.798664 0.409999 -0.884336
C60   C     C_3   0.725109 0.029483 0.413887 -0.938234
C61   C     C_3   0.267999 0.968211 0.575518 -0.940189
C62   C     C_R   0.500726 0.524264 0.672537 -0.151652
C63   C     C_R   0.505620 0.519100 0.327600 -0.145814
C64   C     C_R   0.561093 0.613922 0.692012 0.050760
H1    H     H_    0.255689 0.624675 0.069675 0.198520
H2    H     H_    0.237357 0.571942 0.633196 0.251711
H3    H     H_    0.294570 0.673083 0.583028 0.259960
H4    H     H_    0.832365 0.314301 0.374099 0.198408
H5    H     H_    0.705053 0.330203 0.415698 0.261269
H6    H     H_    0.764574 0.432140 0.366236 0.256128
H7    H     H_    0.197960 0.561211 0.931878 0.270470
H8    H     H_    0.234992 0.761873 0.920996 0.266253
H9    H     H_    0.178122 0.762924 0.995899 0.227942
H10   H     H_    0.093566 0.711846 0.940804 0.230377
H11   H     H_    0.892826 0.523687 0.017009 0.221639
H12   H     H_    0.803501 0.558601 0.930680 0.188226
H13   H     H_    0.973511 0.666214 0.067694 0.243864
H14   H     H_    0.839564 0.722071 0.077938 0.254168
H15   H     H_    0.911389 0.715629 0.006209 0.207875
H16   H     H_    0.434405 0.303614 0.798325 0.222666
H17   H     H_    0.433335 0.391641 0.857368 0.227130
H18   H     H_    0.314108 0.379376 0.816105 0.256543
H19   H     H_    0.533035 0.765652 0.181982 0.235300
H20   H     H_    0.427338 0.787246 0.239209 0.252601
H21   H     H_    0.574079 0.805674 0.250543 0.215899
H22   H     H_    0.399438 0.295832 0.700943 0.227051
H23   H     H_    0.185562 0.422214 0.438229 0.141803
H24   H     H_    0.215696 0.317054 0.728343 0.229232
H25   H     H_    0.220140 0.375326 0.657778 0.249841
H26   H     H_    0.235909 0.456594 0.720191 0.253473
H27   H     H_    0.506311 0.770372 0.343715 0.234733
H28   H     H_    0.309690 0.746246 0.322639 0.228141
H29   H     H_    0.327729 0.764082 0.398401 0.234131
H30   H     H_    0.297214 0.635447 0.370540 0.260264
H31   H     H_    0.592698 0.685392 0.605883 0.244687
H32   H     H_    0.592219 0.774337 0.663774 0.238436
H33   H     H_    0.708904 0.692891 0.649268 0.234341
H34   H     H_    0.814380 0.577480 0.561917 0.142287
H35   H     H_    0.529470 0.318262 0.355951 0.229277
H36   H     H_    0.489496 0.272151 0.288157 0.248979
H37   H     H_    0.634423 0.308186 0.297056 0.242325
H38   H     H_    0.696968 0.743835 0.749179 0.244552
H39   H     H_    0.608074 0.868224 0.809565 0.236073
H40   H     H_    0.489738 0.778171 0.825559 0.266079
H41   H     H_    0.515913 0.834618 0.754248 0.234519
H42   H     H_    0.617885 0.327926 0.197572 0.245633
H43   H     H_    0.489084 0.274355 0.130283 0.237043
H44   H     H_    0.413977 0.389387 0.145115 0.259824
H45   H     H_    0.001402 0.374759 0.404032 0.150820
H46   H     H_    0.410489 0.288913 0.199377 0.237048
H47   H     H_    0.285410 0.157383 0.627307 0.240527
H48   H     H_    0.339235 0.274559 0.595092 0.265302
H49   H     H_    0.220176 0.207114 0.566270 0.248654
H50   H     H_    0.706260 0.833408 0.366085 0.230594
H51   H     H_    0.781071 0.797547 0.426790 0.250493
H52   H     H_    0.665057 0.717606 0.403287 0.256496
H53   H     H_    0.762789 0.090178 0.441681 0.245231
H54   H     H_    0.794184 0.980139 0.399019 0.255862
H55   H     H_    0.695725 0.066719 0.375475 0.238296
H56   H     H_    0.998672 0.625830 0.595771 0.149540
H57   H     H_    0.235274 0.905814 0.547130 0.244173
H58   H     H_    0.292159 0.933195 0.615800 0.239844
H59   H     H_    0.196821 0.017406 0.586679 0.256139
H60   H     H_    0.599897 0.175103 0.443503 0.174053
H61   H     H_    0.400422 0.825933 0.552418 0.177758
H62   H     H_    0.167464 0.688153 0.624869 0.199950
N1    N     N_R   0.533742 0.582741 0.148964 -0.332269
N2    N     N_2   0.561992 0.380607 0.186826 -0.285137
N3    N     N_R   0.520258 0.571832 0.851618 -0.324524
N4    N     N_R   0.207800 0.519350 0.510590 -0.101432
N5    N     N_R   0.792200 0.480650 0.489410 -0.099520
N6    N     N_2   0.217947 0.615724 0.962574 -0.300178
N7    N     N_2   0.839915 0.572524 0.039785 -0.250003
N8    N     N_2   0.375574 0.369078 0.691579 -0.313061
N9    N     N_2   0.461749 0.699804 0.349775 -0.314930
N10   N     N_2   0.624547 0.719321 0.773509 -0.281446
O1    O     O_R   0.421690 0.658830 0.502820 -0.625317
O2    O     O_2   0.333662 0.614064 0.858123 -0.581274
O3    O     O_2   0.340838 0.605224 0.160920 -0.565661
O4    O     O_2   0.710793 0.539403 0.840327 -0.569189
O5    O     O_R   0.578310 0.341170 0.497180 -0.626910
O6    O     O_R   0.609320 0.646410 0.496030 -0.621340
O7    O     O_R   0.390680 0.353590 0.503970 -0.611856
O8    O     O_R   0.406170 0.506240 0.587240 -0.611501
O9    O     O_R   0.593830 0.493760 0.412760 -0.628333
O10   O     O_R   0.593790 0.493820 0.580450 -0.613633
O11   O     O_R   0.406210 0.506180 0.419550 -0.613172
O12   O     O_2   0.726639 0.564727 0.141024 -0.532839
Zn1   Zn    Zn3+2 0.374720 0.508290 0.504530 0.938532
Zn2   Zn    Zn3+2 0.625280 0.491710 0.495470 0.940458

loop_
_geom_bond_atom_site_label_1
_geom_bond_atom_site_label_2
_ccdc_geom_bond_type
C49   H18   S    
C34   C56   A    
C30   O2    S    
H42   N2    S    
C22   N5    A    
C53   H31   S    
C1    C8    S    
C14   C18   A    
C54   H37   S    
C44   H2    S    
C31   N1    A    
O1    Zn1   S    
C29   O12   S    
C50   H20   S    
C3    C64   A    
C15   C19   A    
C44   H62   S    
C45   N8    S    
C14   H61   S    
C55   H41   S    
C23   C45   A    
C48   H15   S    
C61   H57   S    
C36   C37   A    
C16   O8    A    
C6    N1    S    
C32   O4    S    
C21   H56   S    
C8    C11   A    
C51   H26   S    
C51   N8    S    
C23   C49   S    
C49   H17   S    
C55   N10   S    
C22   C46   S    
C55   H39   S    
C45   C62   A    
C33   C36   A    
C12   O5    A    
C60   H55   S    
C16   O10   A    
C3    N10   S    
C48   H14   S    
C43   N7    S    
C46   H5    S    
C62   C64   A    
C1    O6    A    
C50   H21   S    
C7    C15   A    
H7    N6    S    
O10   Zn2   S    
H22   N8    S    
C26   H23   S    
C29   C38   A    
C50   H19   S    
C58   H49   S    
C31   C33   A    
C60   H54   S    
O9    Zn2   S    
C26   N4    A    
C5    N3    S    
C21   C27   A    
C53   H32   S    
C41   C43   A    
C54   H36   S    
C16   C62   S    
C57   N2    S    
C11   C59   S    
C32   N3    A    
C9    C19   A    
O5    Zn2   S    
C39   C42   A    
C7    C12   S    
C34   C50   S    
C33   C40   A    
C15   H60   S    
C4    N2    S    
C58   H47   S    
C32   C35   A    
C48   N7    S    
C52   H29   S    
C47   H9    S    
C4    C6    A    
C2    C54   S    
C18   C19   A    
C13   C58   S    
C20   C28   A    
C53   H33   S    
C59   H52   S    
C55   H40   S    
C6    C34   A    
C61   H58   S    
C48   H13   S    
C17   O9    A    
C46   H4    S    
O8    Zn1   S    
C57   H46   S    
C5    C23   A    
C7    C13   A    
N4    Zn1   S    
C56   C63   A    
C60   H53   S    
C52   H30   S    
C9    C11   A    
C57   H43   S    
C20   C22   A    
C40   H1    S    
C29   N1    A    
C24   C44   S    
C58   H48   S    
C54   H35   S    
C52   H28   S    
C10   C61   S    
C31   O3    S    
C25   N5    A    
C56   N9    S    
C1    O1    A    
C2    C63   A    
C35   C37   A    
N5    Zn2   S    
C52   N9    S    
C8    C14   A    
C17   O11   A    
C47   H10   S    
C3    C5    A    
C10   C13   A    
C51   H24   S    
H11   N7    S    
C25   C27   A    
C30   N3    A    
O11   Zn1   S    
C26   C28   A    
C12   O7    A    
C47   N6    S    
C61   H59   S    
C9    C60   S    
O6    Zn2   S    
C36   C38   A    
C38   C43   A    
C37   C39   A    
C51   H25   S    
C41   H12   S    
C10   C18   A    
C59   H50   S    
C2    C4    A    
C40   C42   A    
C53   C64   S    
C30   C39   A    
C35   C41   A    
H38   N10   S    
C47   H8    S    
C46   H6    S    
C20   H45   S    
C24   N4    A    
C25   H34   S    
O7    Zn1   S    
C57   H44   S    
H27   N9    S    
C59   H51   S    
C21   C24   A    
C27   C28   A    
C49   H16   S    
C44   H3    S    
C42   N6    S    
C17   C63   S    
