data_mof_unit_15962.cif
_audit_creation_date              2012-12-11T17:11:43-0500
_audit_creation_method            fapswitch 2.2
_symmetry_space_group_name_H-M    P1
_symmetry_Int_Tables_number       1
_space_group_crystal_system       triclinic
_cell_length_a                    15.167509
_cell_length_b                    6.925958
_cell_length_c                    13.665693
_cell_angle_alpha                 89.452646
_cell_angle_beta                  101.169682
_cell_angle_gamma                 91.376937
_cell_volume                      1407.95744705

loop_
_atom_site_label
_atom_site_type_symbol
_atom_type_description
_atom_site_fract_x
_atom_site_fract_y
_atom_site_fract_z
_atom_type_partial_charge
O1    O     O_R   0.398250 0.605080 0.401520 -0.545583
O2    O     O_R   0.898250 0.394920 0.901520 -0.540083
O3    O     O_R   0.584130 0.932110 0.405450 -0.542843
O4    O     O_R   0.084130 0.067890 0.905450 -0.533941
O5    O     O_R   0.601750 0.105090 0.598480 -0.531335
O6    O     O_R   0.101750 0.894910 0.098480 -0.533126
C1    C     C_R   0.607706 0.764931 0.379459 0.676399
C2    C     C_R   0.114981 0.239743 0.887570 0.637693
O7    O     O_R   0.397870 0.934620 0.389680 -0.536778
O8    O     O_R   0.897870 0.065380 0.889680 -0.534177
O9    O     O_R   0.414160 0.107620 0.582600 -0.542715
O10   O     O_R   0.914160 0.892380 0.082600 -0.546966
C3    C     C_R   0.363928 0.764960 0.362609 0.720214
C4    C     C_R   0.864149 0.233562 0.862225 0.725773
O11   O     O_R   0.585840 0.602550 0.417400 -0.552566
O12   O     O_R   0.085840 0.397450 0.917400 -0.537830
O13   O     O_3   0.505560 0.772440 0.563310 -0.369462
O14   O     O_3   0.005560 0.227560 0.063310 -0.374122
V1    V     V_3+5 0.498970 0.046250 0.488250 1.414692
V2    V     V_3+5 0.998970 0.953750 0.988250 1.411803
O15   O     O_R   0.415870 0.437500 0.594550 -0.547873
O16   O     O_R   0.915870 0.562500 0.094550 -0.549577
C5    C     C_R   0.393799 0.267287 0.621803 0.628220
C6    C     C_R   0.884616 0.725769 0.112556 0.601572
O17   O     O_R   0.602130 0.434980 0.610320 -0.536209
O18   O     O_R   0.102130 0.565020 0.110320 -0.540795
C7    C     C_R   0.637146 0.266868 0.635971 0.723629
C8    C     C_R   0.135998 0.734838 0.137424 0.741384
V3    V     V_3+5 0.501030 0.546580 0.511750 1.396612
V4    V     V_3+5 0.001030 0.453420 0.011750 1.397858
O19   O     O_3   0.494440 0.270520 0.436690 -0.382677
O20   O     O_3   0.994440 0.729480 0.936690 -0.373010
C9    C     C_1   0.717479 0.256074 0.715597 -0.181703
C10   C     C_1   0.216261 0.745688 0.217060 -0.199801
C11   C     C_1   0.784330 0.244026 0.781995 -0.209828
C12   C     C_1   0.283558 0.753987 0.283141 -0.188919
C13   C     C_2   0.258425 0.171188 0.682828 -0.201834
C14   C     C_2   0.800094 0.860467 0.232315 -0.244018
C15   C     C_2   0.340626 0.257742 0.702781 0.288384
C16   C     C_2   0.813799 0.708700 0.175986 0.267533
H1    H     H_    0.235478 0.110814 0.608891 0.071199
H2    H     H_    0.840828 0.989616 0.227176 0.074938
C17   C     C_2   0.196740 0.138282 0.755258 0.341040
C18   C     C_2   0.740951 0.857860 0.310148 0.336901
C19   C     C_2   0.185783 0.268932 0.825994 0.199873
C20   C     C_2   0.660006 0.762311 0.297282 0.267362
O21   O     O_3   0.377475 0.310906 0.800963 -0.569680
C21   C     C_3   0.439786 0.469415 0.809471 0.093369
H3    H     H_    0.431316 0.560941 0.872386 0.127021
H4    H     H_    0.428451 0.572933 0.746449 0.139779
C22   C     C_3   0.535400 0.398464 0.836257 -0.342315
H5    H     H_    0.542156 0.318197 0.907623 0.204047
H6    H     H_    0.547858 0.297041 0.778917 0.182604
C23   C     C_3   0.603527 0.566830 0.848230 -0.805273
H7    H     H_    0.595919 0.652997 0.778272 0.247824
H8    H     H_    0.672684 0.510976 0.865732 0.226657
H9    H     H_    0.593975 0.661815 0.910254 0.220454
O22   O     O_3   0.772257 0.529562 0.191295 -0.556745
C24   C     C_3   0.760549 0.402800 0.108123 0.163500
H10   H     H_    0.818760 0.305145 0.117906 0.139120
H11   H     H_    0.753277 0.482154 0.035789 0.093924
C25   C     C_3   0.676671 0.274108 0.102272 -0.311301
H12   H     H_    0.674756 0.208189 0.175999 0.192947
H13   H     H_    0.616691 0.363611 0.079032 0.222750
C26   C     C_3   0.674392 0.112130 0.026422 -0.865100
H14   H     H_    0.680146 0.171915 0.952285 0.228613
H15   H     H_    0.610405 0.027387 0.019583 0.240429
H16   H     H_    0.731015 0.013689 0.050185 0.235730
O23   O     O_3   0.147318 0.966491 0.745201 -0.584499
C27   C     C_3   0.065262 0.992454 0.677783 0.075138
H17   H     H_    0.077046 0.011124 0.600321 0.105651
H18   H     H_    0.029835 0.121361 0.697738 0.092985
C28   C     C_3   0.005847 0.812342 0.682162 -0.255431
H19   H     H_    0.029460 0.692623 0.640855 0.175275
H20   H     H_    0.011438 0.765459 0.760754 0.237893
C29   C     C_3   0.907434 0.849917 0.639113 -0.830736
H21   H     H_    0.884018 0.976024 0.675714 0.229595
H22   H     H_    0.866055 0.722254 0.653213 0.232633
H23   H     H_    0.898462 0.876673 0.557719 0.261682
O24   O     O_3   0.770621 0.948491 0.401667 -0.597491
C30   C     C_3   0.808087 0.134594 0.391403 0.032405
H24   H     H_    0.781937 0.203143 0.317946 0.139663
H25   H     H_    0.882440 0.124858 0.402462 0.136048
C31   C     C_3   0.783139 0.265771 0.470168 -0.277904
H26   H     H_    0.708991 0.281968 0.454437 0.204584
H27   H     H_    0.803463 0.199815 0.545246 0.192399
C32   C     C_3   0.828093 0.464603 0.469343 -0.815576
H28   H     H_    0.900390 0.457667 0.504522 0.223133
H29   H     H_    0.794202 0.566140 0.511339 0.240854
H30   H     H_    0.822120 0.519973 0.392063 0.263316
O25   O     O_3   0.224637 0.452967 0.823292 -0.555733
C33   C     C_3   0.264362 0.523512 0.919846 0.114656
H31   H     H_    0.330132 0.457737 0.945533 0.145177
H32   H     H_    0.228312 0.487786 0.980803 0.091533
C34   C     C_3   0.272205 0.743728 0.913725 -0.249787
H33   H     H_    0.294211 0.786956 0.843491 0.229810
H34   H     H_    0.204712 0.802595 0.912735 0.228545
C35   C     C_3   0.338032 0.832260 0.001035 -0.911067
H35   H     H_    0.327685 0.769192 0.072914 0.231346
H36   H     H_    0.328130 0.990537 0.002302 0.245858
H37   H     H_    0.407748 0.808580 0.991397 0.226790
O26   O     O_3   0.626840 0.673398 0.205791 -0.561557
C36   C     C_3   0.532329 0.647938 0.181591 0.037301
H38   H     H_    0.514436 0.657785 0.099254 0.158302
H39   H     H_    0.495485 0.765957 0.209830 0.066112
C37   C     C_3   0.502634 0.447460 0.214808 -0.277701
H40   H     H_    0.561102 0.352780 0.236963 0.206548
H41   H     H_    0.471967 0.464397 0.280527 0.217862
C38   C     C_3   0.432410 0.346218 0.135755 -0.875899
H42   H     H_    0.369669 0.429668 0.121904 0.224120
H43   H     H_    0.416853 0.200060 0.162949 0.238471
H44   H     H_    0.457505 0.330215 0.065253 0.234034

loop_
_geom_bond_atom_site_label_1
_geom_bond_atom_site_label_2
_ccdc_geom_bond_type
V4    O20   S    
C32   H28   S    
O13   V3    S    
C28   H19   S    
C34   H33   S    
C31   C32   S    
O4    C2    A    
V1    O19   S    
C30   H24   S    
C34   C35   S    
C7    C9    S    
C20   O26   S    
O9    V1    S    
C31   H27   S    
C14   H2    S    
O3    C1    A    
C38   H43   S    
C9    C11   T    
C37   H40   S    
O12   V4    S    
O7    C3    A    
C2    C19   S    
C25   H13   S    
O13   V1    S    
O5    C7    A    
O7    V1    S    
C21   C22   S    
O6    C8    A    
O8    V2    S    
C26   H15   S    
C29   H23   S    
O3    V1    S    
C27   H17   S    
O14   V4    S    
C10   C12   T    
C21   H4    S    
C8    C10   S    
C24   H10   S    
C2    O12   A    
C28   H20   S    
O26   C36   S    
O2    C4    A    
O1    V3    S    
C30   H25   S    
C18   C20   D    
O11   V3    S    
O17   V3    S    
C13   C15   D    
C23   H8    S    
C24   H11   S    
C16   O22   S    
C22   H5    S    
C1    C20   S    
C18   O24   S    
C29   H21   S    
C3    C12   S    
O8    C4    A    
C38   H44   S    
O25   C33   S    
C1    O11   A    
O22   C24   S    
O15   V3    S    
C33   C34   S    
C22   H6    S    
C13   C17   S    
C14   C18   S    
C25   H12   S    
O21   C21   S    
C26   H16   S    
O10   V2    S    
C27   C28   S    
C33   H32   S    
C36   H39   S    
C31   H26   S    
C17   C19   D    
C21   H3    S    
O18   V4    S    
C35   H36   S    
O15   C5    A    
C28   C29   S    
O16   C6    A    
O1    C3    A    
C4    C11   S    
C30   C31   S    
C15   O21   S    
V2    O20   S    
C23   H7    S    
C24   C25   S    
O16   V4    S    
C25   C26   S    
C29   H22   S    
O24   C30   S    
C34   H34   S    
O5    V1    S    
O17   C7    A    
C35   H37   S    
O6    V2    S    
O10   C6    A    
O18   C8    A    
O2    V4    S    
C22   C23   S    
C32   H29   S    
V3    O19   S    
C38   H42   S    
C14   C16   D    
C37   H41   S    
C5    C15   S    
O9    C5    A    
C33   H31   S    
C6    C16   S    
C36   C37   S    
O14   V2    S    
C26   H14   S    
C13   H1    S    
O23   C27   S    
C19   O25   S    
O4    V2    S    
C17   O23   S    
C35   H35   S    
C32   H30   S    
C36   H38   S    
C27   H18   S    
C37   C38   S    
C23   H9    S    
