data_mof_unit_6956.cif
_audit_creation_date              2012-12-11T17:10:37-0500
_audit_creation_method            fapswitch 2.2
_symmetry_space_group_name_H-M    P1
_symmetry_Int_Tables_number       1
_space_group_crystal_system       triclinic
_cell_length_a                    14.843065
_cell_length_b                    14.87511
_cell_length_c                    14.903933
_cell_angle_alpha                 109.511934
_cell_angle_beta                  109.956413
_cell_angle_gamma                 109.292122
_cell_volume                      2522.19458641

loop_
_atom_site_label
_atom_site_type_symbol
_atom_type_description
_atom_site_fract_x
_atom_site_fract_y
_atom_site_fract_z
_atom_type_partial_charge
C1    C     C_R   0.185303 0.278398 0.254425 -0.119854
C2    C     C_R   0.404348 0.495288 0.194727 -0.129667
C3    C     C_R   0.567564 0.815196 0.592161 -0.102364
C4    C     C_R   0.525720 0.432808 0.747000 -0.145817
C5    C     C_R   0.724639 0.477575 0.410461 -0.123151
C6    C     C_R   0.555898 0.824828 0.499544 0.088188
C7    C     C_R   0.829086 0.556517 0.504821 0.063157
C8    C     C_R   0.434026 0.432746 0.131450 0.081082
C9    C     C_R   0.801041 0.802499 0.870536 0.094364
C10   C     C_R   0.093613 0.593676 0.181307 -0.133189
C11   C     C_R   0.098277 0.621858 0.282834 -0.145233
C12   C     C_R   0.451878 0.450100 0.777097 0.075626
C13   C     C_R   0.018338 0.547645 0.291502 0.114188
C14   C     C_R   0.932659 0.445844 0.196679 -0.187605
C15   C     C_R   0.928398 0.418074 0.095372 -0.093951
C16   C     C_R   0.499889 0.197835 0.407503 -0.151766
C17   C     C_R   0.008872 0.491832 0.087729 -0.090105
C18   C     C_R   0.931750 0.574089 0.405731 -0.233792
C19   C     C_R   0.934523 0.606799 0.506989 0.059150
C20   C     C_R   0.039194 0.669931 0.605422 0.052307
C21   C     C_R   0.130168 0.669765 0.598579 -0.231259
C22   C     C_R   0.119591 0.610689 0.496815 0.048002
C23   C     C_R   0.560689 0.194672 0.498400 0.090566
C24   C     C_R   0.024302 0.577237 0.399393 0.031912
C25   C     C_R   0.047660 0.829844 0.743292 -0.196858
C26   C     C_R   0.084717 0.902546 0.853182 0.289435
C27   C     C_R   0.132798 0.881486 0.936511 -0.165974
C28   C     C_R   0.292186 0.598604 0.589589 -0.134177
C29   C     C_R   0.141977 0.786924 0.910493 -0.169619
C30   C     C_R   0.106764 0.715074 0.801417 -0.171626
C31   C     C_R   0.060312 0.736565 0.717088 0.064738
C32   C     C_R   0.451635 0.346366 0.877736 0.167228
C33   C     C_R   0.407152 0.401420 0.833317 0.026498
C34   C     C_R   0.199299 0.571687 0.496881 0.070723
C35   C     C_R   0.333529 0.425758 0.861875 -0.192990
C36   C     C_R   0.329428 0.422218 0.953198 -0.167606
C37   C     C_R   0.398357 0.393516 0.014844 0.040727
C38   C     C_R   0.446815 0.342078 0.967054 0.184027
C39   C     C_3   0.559472 0.354324 0.017250 -0.532193
C40   C     C_R   0.593804 0.289389 0.590910 -0.144346
C41   C     C_3   0.565243 0.359659 0.920126 -0.520124
C42   C     C_R   0.532137 0.917864 0.395704 0.100779
C43   C     C_R   0.598278 0.925123 0.493583 -0.024867
C44   C     C_R   0.675274 0.030308 0.588548 0.200672
C45   C     C_R   0.477289 0.721291 0.407752 -0.135334
C46   C     C_R   0.668374 0.121920 0.589414 -0.251609
C47   C     C_R   0.589871 0.110057 0.494354 0.007793
C48   C     C_R   0.527625 0.009357 0.396000 0.141521
C49   C     C_3   0.538032 0.986345 0.295507 -0.498157
C50   C     C_3   0.543920 0.887375 0.295728 -0.461919
C51   C     C_R   0.965704 0.071200 0.130294 0.159205
C52   C     C_R   0.199972 0.504964 0.406969 -0.158060
C53   C     C_R   0.066771 0.072997 0.172672 0.055885
C54   C     C_R   0.062719 0.970842 0.143777 -0.203569
C55   C     C_R   0.967571 0.874707 0.050699 -0.188080
C56   C     C_R   0.815662 0.567052 0.594803 -0.127008
C57   C     C_R   0.876471 0.881367 0.989101 0.046748
C58   C     C_R   0.871249 0.976016 0.040316 0.144520
C59   C     C_3   0.829380 0.038846 0.994903 -0.488810
C60   C     C_3   0.932924 0.142690 0.092192 -0.494369
C61   C     C_R   0.435866 0.527401 0.751202 -0.127870
C62   C     C_R   0.275313 0.184401 0.249502 -0.099416
C63   C     C_R   0.172012 0.174392 0.225370 0.075995
C64   C     C_R   0.494752 0.402859 0.195921 -0.149716
C65   C     C_R   0.706829 0.798717 0.804892 -0.117603
C66   C     C_R   0.800769 0.710026 0.806280 -0.121347
H1    H     H_    0.124331 0.302526 0.252558 0.105429
H2    H     H_    0.155819 0.650733 0.175226 0.105813
H3    H     H_    0.164525 0.700888 0.354806 0.116802
H4    H     H_    0.553057 0.374849 0.750205 0.111893
H5    H     H_    0.870325 0.387467 0.201589 0.113871
H6    H     H_    0.862876 0.339211 0.022846 0.129804
H7    H     H_    0.856177 0.540818 0.330200 0.124382
H8    H     H_    0.207838 0.711278 0.674706 0.126081
H9    H     H_    0.013831 0.848470 0.679580 0.153341
H10   H     H_    0.164788 0.939348 0.021661 0.132318
H11   H     H_    0.179074 0.770840 0.975297 0.120594
H12   H     H_    0.876433 0.617492 0.681152 0.121603
H13   H     H_    0.117823 0.643933 0.782807 0.120290
H14   H     H_    0.290438 0.460763 0.823918 0.127590
H15   H     H_    0.475038 0.145627 0.322938 0.098713
H16   H     H_    0.283430 0.454757 0.982328 0.125452
H17   H     H_    0.621644 0.433047 0.096625 0.200243
H18   H     H_    0.556258 0.278987 0.018371 0.194919
H19   H     H_    0.630694 0.441677 0.945102 0.202892
H20   H     H_    0.566013 0.287695 0.865840 0.196115
H21   H     H_    0.723204 0.201316 0.664511 0.152934
H22   H     H_    0.461525 0.964045 0.223296 0.181187
H23   H     H_    0.514001 0.338546 0.167991 0.104692
H24   H     H_    0.616151 0.051030 0.312229 0.201592
H25   H     H_    0.471192 0.807962 0.223313 0.177912
H26   H     H_    0.326955 0.659918 0.674183 0.084877
H27   H     H_    0.625693 0.894103 0.313184 0.205483
H28   H     H_    0.136495 0.966581 0.181700 0.120335
H29   H     H_    0.971956 0.800262 0.020058 0.128211
H30   H     H_    0.826126 0.023946 0.915605 0.247250
H31   H     H_    0.752899 0.031622 0.996165 0.183216
H32   H     H_    0.987127 0.185303 0.066266 0.232095
H33   H     H_    0.916157 0.195916 0.149227 0.184765
H34   H     H_    0.669199 0.844537 0.832304 0.092381
H35   H     H_    0.654460 0.320494 0.675249 0.090494
H36   H     H_    0.148208 0.476257 0.321298 0.123088
H37   H     H_    0.382659 0.559594 0.762202 0.094667
H38   H     H_    0.295747 0.119790 0.237941 0.085531
H39   H     H_    0.446497 0.698716 0.322147 0.104216
H40   H     H_    0.852836 0.677998 0.835662 0.089428
H41   H     H_    0.343181 0.518372 0.165495 0.087271
H42   H     H_    0.617513 0.879463 0.677622 0.130829
H43   H     H_    0.702911 0.446984 0.325197 0.091891
H44   H     H_    0.005527 0.470089 0.009270 0.111242
I1    I     I_    0.076192 0.048333 0.895949 -0.418449
I2    I     I_    0.810734 0.060601 0.727394 -0.458199
N1    N     N_R   0.291070 0.347930 0.293870 -0.039666
N2    N     N_R   0.497240 0.291100 0.443210 -0.040536
N3    N     N_R   0.347890 0.554050 0.556810 -0.039160
N4    N     N_R   0.554050 0.347900 0.556830 -0.039410
N5    N     N_R   0.291070 0.497250 0.443190 -0.041692
N6    N     N_R   0.497240 0.554030 0.706140 -0.043143
N7    N     N_R   0.347890 0.291110 0.293870 -0.040499
N8    N     N_R   0.445950 0.652100 0.443170 -0.042959
N9    N     N_R   0.708930 0.502750 0.556810 -0.043029
N10   N     N_R   0.502760 0.445970 0.293860 -0.038847
N11   N     N_R   0.652110 0.708890 0.706130 -0.038094
N12   N     N_R   0.708930 0.652070 0.706130 -0.040611
N13   N     N_R   0.445950 0.502780 0.293850 -0.037915
N14   N     N_R   0.502760 0.708900 0.556790 -0.047844
N15   N     N_R   0.652110 0.445950 0.443190 -0.040878
N16   N     N_R   0.554050 0.497220 0.706150 -0.042739
Ni1   Ni    Ni4+2 0.369690 0.500010 0.369700 0.220973
Ni2   Ni    Ni4+2 0.630310 0.499990 0.630300 0.210279
Ni3   Ni    Ni4+2 0.500000 0.369720 0.369720 0.215586
Ni4   Ni    Ni4+2 0.500000 0.630280 0.630280 0.209066

loop_
_geom_bond_atom_site_label_1
_geom_bond_atom_site_label_2
_ccdc_geom_bond_type
C25   C31   A    
C6    C45   A    
N11   Ni4   S    
C27   C29   A    
C53   C63   S    
C14   H5    S    
C35   H14   S    
C35   C36   A    
N9    Ni2   S    
C60   H33   S    
C17   H44   S    
C4    H4    S    
C3    N14   A    
N11   N12   A    
C39   C41   S    
C40   N4    A    
C53   C54   A    
C15   H6    S    
C52   H36   S    
C26   C27   A    
C29   C30   A    
N1    Ni1   S    
C18   C24   A    
C7    C56   A    
C36   C37   A    
C61   H37   S    
C37   C38   A    
C39   H18   S    
N9    N15   A    
C60   H32   S    
C30   C31   A    
N8    N14   A    
C10   C17   A    
C23   C40   A    
N15   Ni3   S    
C2    H41   S    
C56   H12   S    
C18   C19   A    
N2    Ni3   S    
C9    C66   A    
C1    H1    S    
C40   H35   S    
N1    N7    A    
N6    N16   A    
C19   C20   A    
C44   C46   A    
N3    N5    A    
N7    Ni3   S    
C32   C41   S    
C32   C38   A    
C4    C12   A    
N5    Ni1   S    
C49   H24   S    
C9    C57   S    
C52   N5    A    
C3    C6    A    
C28   C34   A    
C59   C60   S    
C21   C22   A    
C49   H22   S    
C1    N1    A    
C64   H23   S    
C66   H40   S    
C1    C63   A    
C45   H39   S    
C62   H38   S    
N3    Ni4   S    
C22   C34   S    
C23   C47   S    
C8    C37   S    
C4    N16   A    
N8    Ni1   S    
C55   H29   S    
C36   H16   S    
C5    C7    A    
C25   C26   A    
C21   H8    S    
C13   C24   S    
C16   N2    A    
C25   H9    S    
N4    Ni2   S    
C43   C44   A    
C62   C63   A    
C41   H20   S    
C28   N3    A    
C47   C48   A    
N14   Ni4   S    
C5    N15   A    
N12   Ni2   S    
C28   H26   S    
C51   C58   A    
C42   C48   A    
C62   N7    A    
C8    C64   A    
C30   H13   S    
C44   I2    S    
C45   N8    A    
C48   C49   S    
C42   C50   S    
C18   H7    S    
C7    C19   S    
C6    C43   S    
C55   C57   A    
C59   H31   S    
C66   N12   A    
C42   C43   A    
C27   H10   S    
N10   Ni3   S    
C46   H21   S    
C15   C17   A    
C54   C55   A    
C61   N6    A    
C2    C8    A    
C65   H34   S    
N16   Ni2   S    
N2    N4    A    
C11   H3    S    
C50   H27   S    
C10   H2    S    
C3    H42   S    
C16   C23   A    
C41   H19   S    
C34   C52   A    
C56   N9    A    
N10   N13   A    
C58   C59   S    
C39   H17   S    
C32   C33   A    
C12   C61   A    
C11   C13   A    
C57   C58   A    
C38   C39   S    
C5    H43   S    
C64   N10   A    
C16   H15   S    
C33   C35   A    
C22   C24   A    
C65   N11   A    
C9    C65   A    
C54   H28   S    
C46   C47   A    
N6    Ni4   S    
C10   C11   A    
C2    N13   A    
N13   Ni1   S    
C50   H25   S    
C29   H11   S    
C20   C21   A    
C49   C50   S    
C59   H30   S    
C14   C15   A    
C51   C60   S    
C51   C53   A    
C12   C33   S    
C13   C14   A    
C26   I1    S    
C20   C31   S    
