data_mof_unit_41011.cif
_audit_creation_date              2012-12-10T17:05:18-0500
_audit_creation_method            fapswitch 2.2
_symmetry_space_group_name_H-M    P1
_symmetry_Int_Tables_number       1
_space_group_crystal_system       triclinic
_cell_length_a                    10.034292
_cell_length_b                    10.734662
_cell_length_c                    15.510338
_cell_angle_alpha                 89.954226
_cell_angle_beta                  67.861203
_cell_angle_gamma                 89.762649
_cell_volume                      1547.50412054

loop_
_atom_site_label
_atom_site_type_symbol
_atom_type_description
_atom_site_fract_x
_atom_site_fract_y
_atom_site_fract_z
_atom_type_partial_charge
C1    C     C_R   0.497123 0.737125 0.504615 0.918027
C2    C     C_R   0.709450 0.394815 0.041756 0.177963
C3    C     C_R   0.571471 0.445296 0.092767 0.095110
C4    C     C_R   0.409979 0.497837 0.675910 0.866935
C5    C     C_R   0.811994 0.384857 0.083030 -0.217858
C6    C     C_R   0.778125 0.424613 0.174556 -0.200646
C7    C     C_R   0.545580 0.494993 0.180556 -0.256561
C8    C     C_2   0.592151 0.066932 0.520670 -0.214366
C9    C     C_2   0.513682 0.130770 0.482122 0.297822
C10   C     C_2   0.602344 0.933224 0.514570 -0.131792
C11   C     C_2   0.487011 0.867866 0.520063 -0.250125
C12   C     C_R   0.405016 0.446839 0.915736 0.095301
C13   C     C_2   0.110947 0.441126 0.438475 -0.122188
C14   C     C_2   0.962810 0.447472 0.435347 -0.135470
C15   C     C_R   0.502643 0.262722 0.496158 0.797316
C16   C     C_R   0.589907 0.498516 0.324060 0.878449
C17   C     C_R   0.353521 0.486942 0.777107 -0.057787
C18   C     C_R   0.643425 0.478492 0.223716 -0.058102
C19   C     C_R   0.163600 0.510333 0.928423 -0.216198
C20   C     C_R   0.209547 0.513031 0.831764 -0.199474
C21   C     C_R   0.448545 0.451269 0.819090 -0.263923
C22   C     C_R   0.261115 0.480732 0.970747 0.177634
C23   C     C_R   0.504311 0.420000 0.958504 0.068483
C24   C     C_R   0.464263 0.447447 0.054081 0.070815
C25   C     C_R   0.318063 0.474294 0.108167 -0.227139
C26   C     C_R   0.217804 0.488562 0.066983 -0.241755
C27   C     C_R   0.642538 0.368454 0.909013 -0.230991
C28   C     C_R   0.742394 0.354337 0.950775 -0.238194
H1    H     H_    0.107351 0.511070 0.110293 0.148971
H2    H     H_    0.447624 0.545740 0.217731 0.158814
H3    H     H_    0.854654 0.409700 0.207575 0.149810
H4    H     H_    0.846745 0.313842 0.911065 0.151464
H5    H     H_    0.053518 0.536113 0.969931 0.149637
H6    H     H_    0.134257 0.539621 0.800019 0.157643
H7    H     H_    0.559046 0.433972 0.774904 0.157529
H8    H     H_    0.277458 0.481921 0.183049 0.146045
H9    H     H_    0.674861 0.334202 0.838685 0.146892
H10   H     H_    0.410291 0.138054 0.397910 0.336641
H11   H     H_    0.916427 0.343163 0.045517 0.144932
H12   H     H_    0.650097 0.113440 0.558135 0.133380
H13   H     H_    0.704400 0.889426 0.505955 0.168092
H14   H     H_    0.382203 0.911234 0.536576 0.193829
H15   H     H_    0.191594 0.386266 0.385231 0.158789
H16   H     H_    0.074821 0.556065 0.546413 0.158273
H17   H     H_    0.947812 0.404290 0.376451 0.154633
H18   H     H_    0.864283 0.533661 0.557281 0.163728
N1    N     N_2   0.148330 0.498670 0.499030 -0.188217
N2    N     N_2   0.852680 0.498640 0.499000 -0.189463
O1    O     O_R   0.386950 0.680940 0.500010 -0.607471
O2    O     O_R   0.613110 0.680900 0.499990 -0.608690
O3    O     O_R   0.322330 0.500030 0.632270 -0.613637
O4    O     O_R   0.548480 0.499990 0.632240 -0.618287
O5    O     O_R   0.386890 0.319100 0.500010 -0.609129
O6    O     O_R   0.613050 0.319060 0.499990 -0.620537
O7    O     O_R   0.451520 0.500010 0.367760 -0.612515
O8    O     O_R   0.677670 0.499970 0.367730 -0.609376
O9    O     O_3   0.454819 0.073713 0.424525 -0.768875
Zn1   Zn    Zn3+2 0.349000 0.500030 0.500020 0.945857
Zn2   Zn    Zn3+2 0.651000 0.499970 0.499980 0.939953

loop_
_geom_bond_atom_site_label_1
_geom_bond_atom_site_label_2
_ccdc_geom_bond_type
C14   N2    D    
O5    Zn1   S    
C16   O8    A    
C26   H1    S    
C21   H7    S    
O4    Zn2   S    
C23   C27   A    
H10   O9    S    
C8    H12   S    
C1    O2    A    
C9    O9    S    
C19   C20   A    
C1    C11   S    
O8    Zn2   S    
C28   H4    S    
C23   C24   A    
C7    C18   A    
C20   H6    S    
C17   C20   A    
C6    H3    S    
C9    C15   S    
C16   O7    A    
O3    Zn1   S    
C13   C14   S    
N1    Zn1   S    
C12   C23   A    
C3    C24   A    
C4    O4    A    
C4    C17   S    
C15   O5    A    
C8    C10   S    
C27   H9    S    
C2    C3    A    
C14   H17   S    
C3    C7    A    
O6    Zn2   S    
C5    H11   S    
C22   C26   A    
C5    C6    A    
C6    C18   A    
H18   N2    S    
C2    C5    A    
C10   C11   D    
O2    Zn2   S    
C4    O3    A    
C15   O6    A    
C12   C22   A    
C13   H15   S    
C19   C22   A    
C24   C25   A    
N2    Zn2   S    
C16   C18   S    
C19   H5    S    
O7    Zn1   S    
C27   C28   A    
C13   N1    D    
C2    C28   A    
C11   H14   S    
C25   H8    S    
C25   C26   A    
C1    O1    A    
C12   C21   A    
C17   C21   A    
O1    Zn1   S    
C8    C9    D    
C10   H13   S    
H16   N1    S    
C7    H2    S    
