data_mof_unit_42808.cif
_audit_creation_date              2012-12-11T15:35:13-0500
_audit_creation_method            fapswitch 2.2
_symmetry_space_group_name_H-M    P1
_symmetry_Int_Tables_number       1
_space_group_crystal_system       triclinic
_cell_length_a                    17.519884
_cell_length_b                    24.195341
_cell_length_c                    15.092512
_cell_angle_alpha                 89.622239
_cell_angle_beta                  125.269565
_cell_angle_gamma                 90.232407
_cell_volume                      5223.26034457

loop_
_atom_site_label
_atom_site_type_symbol
_atom_type_description
_atom_site_fract_x
_atom_site_fract_y
_atom_site_fract_z
_atom_type_partial_charge
C1    C     C_R   0.349002 0.151332 0.907941 -0.129199
C2    C     C_R   0.308750 0.877207 0.908657 -0.127639
C3    C     C_R   0.851107 0.651826 0.907745 -0.131682
C4    C     C_R   0.809873 0.375168 0.907693 -0.130215
C5    C     C_R   0.647231 0.151792 0.091314 -0.135196
C6    C     C_R   0.681756 0.867610 0.091188 -0.132979
C7    C     C_R   0.149308 0.651188 0.090931 -0.137732
C8    C     C_R   0.184186 0.370340 0.090657 -0.127619
C9    C     C_R   0.591234 0.866685 0.909878 -0.119866
C10   C     C_R   0.556269 0.153413 0.911195 -0.152780
C11   C     C_R   0.095780 0.372267 0.909388 -0.125714
C12   C     C_R   0.060593 0.651921 0.910200 -0.121014
C13   C     C_R   0.538769 0.003944 0.715645 0.079046
C14   C     C_R   0.962267 0.500453 0.651980 0.047249
C15   C     C_R   0.824377 0.999857 0.302118 0.085452
C16   C     C_R   0.324898 0.500866 0.298882 0.079680
C17   C     C_R   0.616483 0.184879 0.001596 0.052978
C18   C     C_R   0.677403 0.851178 0.000483 0.042138
C19   C     C_R   0.121695 0.683379 0.000865 0.043578
C20   C     C_R   0.182474 0.357231 0.000085 0.036489
C21   C     C_3   0.073755 0.943591 0.488027 -0.510064
C22   C     C_3   0.046994 0.016875 0.584139 -0.491157
C23   C     C_3   0.577905 0.448632 0.475526 -0.512093
C24   C     C_3   0.547427 0.511168 0.583581 -0.487291
C25   C     C_3   0.969414 0.942210 0.394804 0.110919
C26   C     C_3   0.942075 0.013185 0.496866 0.098549
C27   C     C_3   0.473081 0.446744 0.383171 0.102794
C28   C     C_3   0.442556 0.508923 0.494768 0.101617
C29   C     C_3   0.081198 0.045414 0.443742 0.633239
C30   C     C_3   0.579460 0.554214 0.449574 0.640570
C31   C     C_3   0.103796 0.002899 0.537426 0.241238
C32   C     C_3   0.604955 0.505500 0.535326 0.240993
C33   C     C_3   0.925222 0.000368 0.384891 0.202071
C34   C     C_3   0.426182 0.502252 0.381543 0.205999
C35   C     C_R   0.401792 0.875504 0.091650 -0.124356
C36   C     C_R   0.441594 0.152157 0.089989 -0.126224
C37   C     C_R   0.904841 0.369355 0.089987 -0.124658
C38   C     C_R   0.944360 0.653016 0.089436 -0.132212
C39   C     C_3   0.973314 0.044385 0.356611 -0.426024
C40   C     C_3   0.472210 0.550588 0.359522 -0.423158
C41   C     C_R   0.159683 0.815163 0.903534 -0.170349
C42   C     C_R   0.288187 0.267178 0.900932 -0.172164
C43   C     C_R   0.660688 0.312363 0.902174 -0.172778
C44   C     C_R   0.788811 0.766394 0.900426 -0.173774
C45   C     C_R   0.610058 0.268673 0.902939 -0.171248
C46   C     C_R   0.733327 0.806341 0.901133 -0.168221
C47   C     C_R   0.113416 0.768645 0.903468 -0.170556
C48   C     C_R   0.238126 0.311003 0.901448 -0.170118
C49   C     C_R   0.640868 0.242570 0.001523 0.143329
C50   C     C_R   0.749197 0.821884 0.999845 0.152405
C51   C     C_R   0.146441 0.741201 0.001496 0.142797
C52   C     C_R   0.254685 0.327838 0.999876 0.150190
C53   C     C_R   0.708570 0.268344 0.099491 -0.171833
C54   C     C_R   0.831358 0.805354 0.097756 -0.180205
C55   C     C_R   0.213170 0.767065 0.099937 -0.172682
C56   C     C_R   0.334821 0.309394 0.097964 -0.178908
C57   C     C_R   0.259267 0.813626 0.099895 -0.168814
C58   C     C_R   0.385432 0.266036 0.097512 -0.166828
C59   C     C_R   0.758714 0.312424 0.098669 -0.174937
C60   C     C_R   0.887246 0.765798 0.096973 -0.165161
C61   C     C_R   0.239731 0.833806 0.001516 0.143198
C62   C     C_R   0.355156 0.240807 0.998932 0.143458
C63   C     C_R   0.741753 0.329983 0.000010 0.146100
C64   C     C_R   0.858892 0.741487 0.998368 0.141545
C65   C     C_R   0.620402 0.972009 0.636292 0.197775
C66   C     C_R   0.512748 0.052160 0.555003 0.204169
C67   C     C_R   0.886493 0.475347 0.462178 0.218226
C68   C     C_R   0.037381 0.526071 0.565569 0.206390
C69   C     C_R   0.618972 0.968778 0.543384 -0.271066
C70   C     C_R   0.514715 0.047541 0.466212 -0.259583
C71   C     C_R   0.888355 0.477101 0.372159 -0.233895
C72   C     C_R   0.035399 0.527887 0.473677 -0.239456
C73   C     C_R   0.563541 0.005382 0.458447 0.091725
C74   C     C_R   0.961607 0.503702 0.379228 0.056929
C75   C     C_R   0.541380 0.046689 0.296866 -0.147696
C76   C     C_R   0.542850 0.954850 0.300731 -0.152026
C77   C     C_R   0.988509 0.547185 0.255208 -0.143154
C78   C     C_R   0.995869 0.455005 0.265625 -0.142146
C79   C     C_R   0.560758 0.010923 0.637962 0.012769
C80   C     C_R   0.961078 0.500858 0.558244 -0.031029
C81   C     C_R   0.248812 0.955418 0.693977 -0.165610
C82   C     C_R   0.246441 0.047375 0.698991 -0.149504
C83   C     C_R   0.748805 0.456239 0.692748 -0.163747
C84   C     C_R   0.747619 0.547980 0.699234 -0.147621
C85   C     C_R   0.379934 0.183486 0.998709 0.044354
C86   C     C_R   0.312048 0.863730 0.000732 0.040741
C87   C     C_R   0.884070 0.684472 0.998200 0.050470
C88   C     C_R   0.814791 0.358662 0.999254 0.041014
C89   C     C_R   0.552073 0.001512 0.357576 0.090634
C90   C     C_R   0.968345 0.501605 0.291704 0.087068
C91   C     C_R   0.201820 0.002316 0.633205 0.063227
C92   C     C_R   0.703133 0.503735 0.631643 0.057417
C93   C     C_R   0.524281 0.046957 0.761301 -0.115767
C94   C     C_R   0.503815 0.956663 0.733738 -0.141780
C95   C     C_R   0.964909 0.546490 0.705736 -0.122463
C96   C     C_R   0.966441 0.454182 0.706532 -0.152786
C97   C     C_R   0.768064 0.953833 0.274403 -0.172848
C98   C     C_R   0.768514 0.046601 0.259900 -0.133251
C99   C     C_R   0.269251 0.454423 0.272602 -0.174597
C100  C     C_R   0.268023 0.547128 0.258465 -0.130152
H1    H     H_    0.309576 0.164834 0.824330 0.084932
H2    H     H_    0.250530 0.873226 0.824692 0.092362
H3    H     H_    0.811812 0.665081 0.823999 0.083302
H4    H     H_    0.751424 0.372120 0.823621 0.091992
H5    H     H_    0.084101 0.913719 0.550560 0.143015
H6    H     H_    0.064983 0.987340 0.650657 0.160204
H7    H     H_    0.590491 0.414455 0.532085 0.143668
H8    H     H_    0.565129 0.476775 0.642089 0.156608
H9    H     H_    0.938141 0.911159 0.419747 0.106293
H10   H     H_    0.914809 0.977417 0.517794 0.121411
H11   H     H_    0.443489 0.412311 0.403696 0.107310
H12   H     H_    0.414584 0.471173 0.509547 0.119459
H13   H     H_    0.955584 0.037068 0.274080 0.167389
H14   H     H_    0.942725 0.085548 0.349962 0.153359
H15   H     H_    0.457014 0.546368 0.277500 0.168085
H16   H     H_    0.437646 0.589887 0.354157 0.150399
H17   H     H_    0.138267 0.832326 0.826098 0.103792
H18   H     H_    0.267453 0.251088 0.823376 0.107039
H19   H     H_    0.641307 0.327878 0.824457 0.103488
H20   H     H_    0.769155 0.751046 0.822802 0.105792
H21   H     H_    0.553785 0.252219 0.825620 0.104063
H22   H     H_    0.673564 0.820477 0.823802 0.098954
H23   H     H_    0.057966 0.751885 0.825974 0.104777
H24   H     H_    0.181146 0.327425 0.824181 0.106994
H25   H     H_    0.729862 0.251505 0.177116 0.106926
H26   H     H_    0.848548 0.818411 0.175478 0.113347
H27   H     H_    0.236653 0.748998 0.177414 0.105461
H28   H     H_    0.353559 0.324051 0.175550 0.112476
H29   H     H_    0.316344 0.829581 0.177294 0.107784
H30   H     H_    0.441199 0.249189 0.175001 0.103955
H31   H     H_    0.816087 0.328566 0.175742 0.106158
H32   H     H_    0.945161 0.750129 0.174361 0.104991
H33   H     H_    0.428925 0.869583 0.175811 0.092993
H34   H     H_    0.487132 0.165963 0.172946 0.082322
H35   H     H_    0.934639 0.356233 0.171898 0.086521
H36   H     H_    0.991183 0.667129 0.172006 0.081971
H37   H     H_    0.660114 0.937996 0.536626 0.122278
H38   H     H_    0.471937 0.075388 0.398118 0.130270
H39   H     H_    0.833198 0.457921 0.296750 0.138410
H40   H     H_    0.093769 0.545910 0.476789 0.137693
H41   H     H_    0.554951 0.089550 0.321574 0.092881
H42   H     H_    0.557123 0.912660 0.330149 0.090422
H43   H     H_    0.984917 0.590175 0.271622 0.104387
H44   H     H_    0.004782 0.414160 0.299357 0.095904
H45   H     H_    0.238558 0.913144 0.666587 0.095833
H46   H     H_    0.229107 0.090516 0.684221 0.112806
H47   H     H_    0.738161 0.414138 0.664533 0.097103
H48   H     H_    0.732370 0.591175 0.686638 0.114294
H49   H     H_    0.549619 0.088424 0.771504 0.103236
H50   H     H_    0.494499 0.916369 0.698676 0.085572
H51   H     H_    0.953686 0.589100 0.679074 0.099874
H52   H     H_    0.955722 0.411877 0.679712 0.109947
H53   H     H_    0.787351 0.912401 0.306084 0.086969
H54   H     H_    0.789038 0.089519 0.272878 0.103223
H55   H     H_    0.290594 0.413270 0.305273 0.084929
H56   H     H_    0.287325 0.590190 0.271866 0.100652
H57   H     H_    0.684747 0.165037 0.174676 0.082658
H58   H     H_    0.734342 0.856754 0.174148 0.088323
H59   H     H_    0.185923 0.664962 0.173853 0.082923
H60   H     H_    0.236707 0.358725 0.173124 0.090002
H61   H     H_    0.560370 0.855733 0.826839 0.080748
H62   H     H_    0.509686 0.167719 0.828379 0.087997
H63   H     H_    0.068424 0.365790 0.825587 0.088923
H64   H     H_    0.016605 0.665612 0.826720 0.082095
H65   H     H_    0.118265 0.928441 0.462774 0.195777
H66   H     H_    0.066752 0.058271 0.622772 0.192113
H67   H     H_    0.622523 0.439177 0.447265 0.198649
H68   H     H_    0.567005 0.549450 0.632526 0.192423
N1    N     N_R   0.392140 0.102630 0.941800 -0.038429
N2    N     N_R   0.392140 0.897370 0.941800 -0.041744
N3    N     N_R   0.892140 0.602630 0.941800 -0.039005
N4    N     N_R   0.892140 0.397370 0.941800 -0.040601
N5    N     N_R   0.450890 0.896450 0.057150 -0.042335
N6    N     N_R   0.450890 0.103550 0.057150 -0.038095
N7    N     N_R   0.950890 0.396450 0.057150 -0.040241
N8    N     N_R   0.950890 0.603550 0.057150 -0.037177
N9    N     N_R   0.525160 0.027960 0.206160 -0.038134
N10   N     N_R   0.525160 0.972040 0.206160 -0.038234
N11   N     N_R   0.025160 0.527960 0.206160 -0.043362
N12   N     N_R   0.025160 0.472040 0.206160 -0.040633
N13   N     N_R   0.317870 0.971120 0.792790 -0.036329
N14   N     N_R   0.317870 0.028880 0.792790 -0.037259
N15   N     N_R   0.817870 0.471120 0.792790 -0.034818
N16   N     N_R   0.817870 0.528880 0.792790 -0.037521
N17   N     N_R   0.473480 0.027920 0.793480 -0.043402
N18   N     N_R   0.473480 0.972080 0.793480 -0.039125
N19   N     N_R   0.973480 0.527920 0.793480 -0.039762
N20   N     N_R   0.973480 0.472080 0.793480 -0.037452
N21   N     N_R   0.681610 0.971120 0.207570 -0.033316
N22   N     N_R   0.681610 0.028880 0.207570 -0.040068
N23   N     N_R   0.181610 0.471120 0.207570 -0.034393
N24   N     N_R   0.181610 0.528880 0.207570 -0.041887
N25   N     N_R   0.605410 0.102620 0.056870 -0.036328
N26   N     N_R   0.605410 0.897380 0.056870 -0.037448
N27   N     N_R   0.105410 0.602620 0.056870 -0.036943
N28   N     N_R   0.105410 0.397380 0.056870 -0.038255
N29   N     N_R   0.549680 0.896430 0.944180 -0.038823
N30   N     N_R   0.549680 0.103570 0.944180 -0.038622
N31   N     N_R   0.049680 0.396430 0.944180 -0.040551
N32   N     N_R   0.049680 0.603570 0.944180 -0.038521
Ni1   Ni    Ni4+2 0.433410 0.064680 0.868830 0.206830
Ni2   Ni    Ni4+2 0.433410 0.935320 0.868830 0.210781
Ni3   Ni    Ni4+2 0.933410 0.564680 0.868830 0.204519
Ni4   Ni    Ni4+2 0.933410 0.435320 0.868830 0.211043
Ni5   Ni    Ni4+2 0.565650 0.934380 0.131170 0.210469
Ni6   Ni    Ni4+2 0.565650 0.065620 0.131170 0.205587
Ni7   Ni    Ni4+2 0.065650 0.434380 0.131170 0.211965
Ni8   Ni    Ni4+2 0.065650 0.565620 0.131170 0.203173
C101  C     C_3   0.951920 0.919638 0.288780 -0.995738
H69   H     H_    0.876743 0.912122 0.226890 0.248190
H70   H     H_    0.975013 0.947914 0.251137 0.258973
H71   H     H_    0.988673 0.879559 0.305202 0.248314
C102  C     C_3   0.892651 0.064539 0.502281 -1.005289
H72   H     H_    0.907682 0.102234 0.472658 0.253304
H73   H     H_    0.816116 0.057871 0.455936 0.255189
H74   H     H_    0.917005 0.071831 0.587474 0.254872
C103  C     C_3   0.455913 0.430585 0.274116 -0.993005
H75   H     H_    0.380202 0.426621 0.209263 0.253328
H76   H     H_    0.485438 0.460793 0.246420 0.259125
H77   H     H_    0.488879 0.389906 0.283000 0.249858
C104  C     C_3   0.392840 0.558090 0.506379 -1.006284
H78   H     H_    0.409219 0.597815 0.483793 0.256409
H79   H     H_    0.316105 0.551713 0.456885 0.253238
H80   H     H_    0.415439 0.561189 0.591765 0.253315
C105  C     C_3   0.132983 0.028590 0.392361 -1.033268
H81   H     H_    0.104689 0.991054 0.342633 0.245233
H82   H     H_    0.129242 0.061833 0.338762 0.264078
H83   H     H_    0.207033 0.019698 0.456928 0.252657
C106  C     C_3   0.109538 0.106430 0.480148 -1.074803
H84   H     H_    0.077924 0.134128 0.408053 0.253833
H85   H     H_    0.085028 0.121296 0.528968 0.239789
H86   H     H_    0.185869 0.112727 0.524152 0.256975
C107  C     C_3   0.634143 0.547933 0.398220 -1.056354
H87   H     H_    0.614252 0.510370 0.348600 0.238855
H88   H     H_    0.619596 0.583304 0.343124 0.264200
H89   H     H_    0.710587 0.546888 0.462237 0.248250
C108  C     C_3   0.600063 0.614271 0.494907 -1.069646
H90   H     H_    0.561233 0.644870 0.427708 0.248917
H91   H     H_    0.579109 0.621325 0.550464 0.241711
H92   H     H_    0.674078 0.626175 0.533621 0.252370
C109  C     C_3   0.685731 0.934020 0.731150 -0.376961
C110  C     C_3   0.761596 0.966436 0.830294 -0.857380
H93   H     H_    0.802389 0.991766 0.809672 0.254063
H94   H     H_    0.730608 0.993874 0.860308 0.257043
H95   H     H_    0.809804 0.937160 0.896463 0.253827
H96   H     H_    0.646391 0.908542 0.752806 0.179755
H97   H     H_    0.720916 0.904531 0.709429 0.186207
C111  C     C_3   0.452045 0.099457 0.548396 -0.358208
C112  C     C_3   0.355862 0.079766 0.513043 -0.906386
H98   H     H_    0.319722 0.060011 0.432091 0.265802
H99   H     H_    0.313882 0.115739 0.506737 0.250225
H100  H     H_    0.360435 0.049757 0.571534 0.269482
H101  H     H_    0.486677 0.125024 0.621844 0.166486
H102  H     H_    0.439730 0.130547 0.486725 0.178322
C113  C     C_3   0.803831 0.447176 0.450968 -0.383615
C114  C     C_3   0.807464 0.384507 0.442148 -0.926680
H103  H     H_    0.800214 0.373419 0.366320 0.259008
H104  H     H_    0.874407 0.367559 0.512413 0.254703
H105  H     H_    0.748968 0.365163 0.440293 0.250204
H106  H     H_    0.798540 0.456958 0.518870 0.199791
H107  H     H_    0.738609 0.462505 0.375926 0.197602
C115  C     C_3   0.124901 0.547546 0.669992 -0.355272
C116  C     C_3   0.129775 0.610600 0.670001 -0.906976
H108  H     H_    0.134436 0.625478 0.603499 0.253084
H109  H     H_    0.192830 0.624853 0.748439 0.255177
H110  H     H_    0.067143 0.629019 0.659507 0.252187
H111  H     H_    0.130559 0.533466 0.743604 0.201402
H112  H     H_    0.187612 0.530491 0.678321 0.183147

loop_
_geom_bond_atom_site_label_1
_geom_bond_atom_site_label_2
_ccdc_geom_bond_type
C20   C52   S    
C68   C80   A    
C116  H110  S    
C30   C32   S    
C43   C63   A    
C98   H54   S    
C58   C62   A    
C105  H82   S    
C65   C79   A    
C63   C88   S    
N14   Ni1   S    
C96   N20   A    
C37   C88   A    
C93   H49   S    
N13   Ni2   S    
C29   C105  S    
C98   N22   A    
C40   H16   S    
C101  H71   S    
C13   C79   S    
C82   N14   A    
C53   C59   A    
C95   N19   A    
C116  H108  S    
C77   N11   A    
C54   C60   A    
N13   N14   A    
C44   C64   A    
C103  H77   S    
C36   N6    A    
C83   C92   A    
C21   C31   S    
C59   H31   S    
C112  H98   S    
C50   C54   A    
C26   C102  S    
C34   C40   S    
N15   Ni4   S    
C57   H29   S    
C24   H68   S    
C105  H81   S    
C28   H12   S    
C106  H86   S    
C76   N10   A    
N5    Ni5   S    
C115  H112  S    
C35   C86   A    
C111  H102  S    
C40   H15   S    
C7    H59   S    
C44   H20   S    
C10   C17   A    
N25   N30   A    
C96   H52   S    
N10   Ni5   S    
N19   Ni3   S    
C65   C69   A    
C105  H83   S    
C21   H65   S    
N9    Ni6   S    
N18   Ni2   S    
C109  C110  S    
C2    C86   A    
N17   Ni1   S    
N4    Ni4   S    
C76   H42   S    
N25   Ni6   S    
C75   H41   S    
C16   C34   S    
N11   Ni8   S    
C47   H23   S    
C33   C39   S    
C47   C51   A    
N27   Ni8   S    
C113  H107  S    
C44   C46   A    
C28   C104  S    
C39   H13   S    
C99   H55   S    
C110  H94   S    
N1    N6    A    
C37   H35   S    
C69   C73   A    
C24   H8    S    
C41   C61   A    
N12   Ni7   S    
C107  H87   S    
C26   H10   S    
C64   C87   S    
C51   C55   A    
C14   C96   A    
N4    N7    A    
C25   H9    S    
C76   C89   A    
C81   H45   S    
C100  H56   S    
C97   N21   A    
C27   H11   S    
C10   H62   S    
N16   Ni3   S    
C108  H90   S    
C1    C85   A    
N24   Ni8   S    
C35   H33   S    
C38   C87   A    
C100  N24   A    
C15   C97   A    
N28   N31   A    
C10   N30   A    
C68   C115  S    
C6    H58   S    
C9    N29   A    
C101  H69   S    
C84   H48   S    
C27   C34   S    
C69   H37   S    
C6    C18   A    
C5    H57   S    
C77   C90   A    
C112  H99   S    
C110  H95   S    
N2    Ni2   S    
C22   C31   S    
C104  H79   S    
C3    C87   A    
C109  H96   S    
C35   N5    A    
C102  H72   S    
C94   N18   A    
C84   N16   A    
C72   C74   A    
C17   C49   S    
C115  H111  S    
C38   H36   S    
C111  H101  S    
C16   C100  A    
C66   C111  S    
C30   C107  S    
C45   H21   S    
C103  H75   S    
C22   H6    S    
C70   C73   A    
C65   C109  S    
C11   C20   A    
N20   Ni4   S    
C78   C90   A    
C82   C91   A    
N23   N24   A    
C114  H104  S    
C22   H66   S    
C42   C48   A    
C9    H61   S    
N15   N16   A    
C24   C32   S    
C106  H84   S    
C66   C79   A    
C78   H44   S    
C37   N7    A    
C104  H78   S    
C107  H88   S    
C9    C18   A    
C26   C33   S    
C38   N8    A    
C45   C49   A    
C77   H43   S    
C68   C72   A    
C39   H14   S    
C23   H7    S    
C114  H103  S    
C29   C39   S    
N30   Ni1   S    
C11   H63   S    
C110  H93   S    
C41   C47   A    
C30   C40   S    
N29   Ni2   S    
C8    C20   A    
C81   C91   A    
C25   C101  S    
C43   C45   A    
C53   H25   S    
C2    N2    A    
C83   H47   S    
C12   N32   A    
C55   H27   S    
C70   H38   S    
C23   C27   S    
C14   C80   S    
C55   C57   A    
N31   Ni4   S    
C97   H53   S    
C23   H67   S    
C15   C98   A    
C95   H51   S    
C82   H46   S    
C30   C108  S    
C7    N27   A    
C113  C114  S    
C8    H60   S    
C1    H1    S    
C14   C95   A    
C6    N26   A    
C111  C112  S    
C18   C50   S    
C114  H105  S    
C5    N25   A    
N27   N32   A    
C102  H74   S    
C3    H3    S    
C116  H109  S    
N26   Ni5   S    
C21   C25   S    
C113  H106  S    
C83   N15   A    
N7    Ni7   S    
C60   H32   S    
C4    N4    A    
C28   C34   S    
C109  H97   S    
C59   C63   A    
C42   H18   S    
C67   C80   A    
C24   C28   S    
C31   C91   S    
C36   H34   S    
C48   H24   S    
C71   C74   A    
C71   H39   S    
C16   C99   A    
C57   C61   A    
C115  C116  S    
C4    C88   A    
C67   C113  S    
C36   C85   A    
C104  H80   S    
C81   N13   A    
C84   C92   A    
N3    N8    A    
C46   C50   A    
C7    C19   A    
C103  H76   S    
C60   C64   A    
C13   C94   A    
C78   N12   A    
C23   C32   S    
N8    Ni8   S    
N28   Ni7   S    
C108  H91   S    
N22   Ni6   S    
C102  H73   S    
C29   C106  S    
C73   C89   S    
C29   C31   S    
C99   N23   A    
C54   H26   S    
C3    N3    A    
N17   N18   A    
C32   C92   S    
C12   H64   S    
C58   H30   S    
N32   Ni3   S    
C49   C53   A    
C74   C90   S    
C4    H4    S    
C12   C19   A    
C1    N1    A    
C101  H70   S    
C56   C58   A    
C8    N28   A    
C67   C71   A    
C56   H28   S    
N23   Ni7   S    
N3    Ni3   S    
N21   N22   A    
C75   N9    A    
C107  H89   S    
C11   N31   A    
C112  H100  S    
C27   C103  S    
C25   C33   S    
C61   C86   S    
C75   C89   A    
N1    Ni1   S    
N11   N12   A    
N26   N29   A    
C19   C51   S    
C94   H50   S    
C72   H40   S    
C5    C17   A    
C66   C70   A    
C106  H85   S    
N9    N10   A    
C22   C26   S    
C108  H92   S    
C13   C93   A    
N6    Ni6   S    
C2    H2    S    
C62   C85   S    
C46   H22   S    
N19   N20   A    
N21   Ni5   S    
C41   H17   S    
C42   C62   A    
C48   C52   A    
C15   C33   S    
C21   H5    S    
C52   C56   A    
C43   H19   S    
N2    N5    A    
C93   N17   A    
