data_mof_unit_20610.cif
_audit_creation_date              2012-12-10T19:44:31-0500
_audit_creation_method            fapswitch 2.2
_symmetry_space_group_name_H-M    P1
_symmetry_Int_Tables_number       1
_space_group_crystal_system       triclinic
_cell_length_a                    8.544156
_cell_length_b                    14.932371
_cell_length_c                    14.275722
_cell_angle_alpha                 88.825667
_cell_angle_beta                  97.571676
_cell_angle_gamma                 91.663528
_cell_volume                      1804.46381164

loop_
_atom_site_label
_atom_site_type_symbol
_atom_type_description
_atom_site_fract_x
_atom_site_fract_y
_atom_site_fract_z
_atom_type_partial_charge
C1    C     C_R   0.501188 0.327711 0.500746 0.877336
C2    C     C_R   0.388989 0.450858 0.888460 -0.309342
C3    C     C_R   0.502457 0.498289 0.053459 0.131963
C4    C     C_R   0.503858 0.499299 0.947133 0.132187
C5    C     C_R   0.201592 0.498607 0.475780 0.966613
C6    C     C_R   0.798368 0.503321 0.524013 0.961429
C7    C     C_2   0.037010 0.491491 0.463714 -0.379071
C8    C     C_2   0.962767 0.513756 0.535026 -0.373522
C9    C     C_R   0.567250 0.092630 0.583431 -0.231754
C10   C     C_R   0.368646 0.904007 0.498978 -0.217826
C11   C     C_R   0.566244 0.185004 0.583289 -0.235603
C12   C     C_R   0.499935 0.671554 0.499353 0.863262
C13   C     C_R   0.363668 0.811731 0.495759 -0.220913
C14   C     C_R   0.504781 0.231372 0.501359 -0.059791
C15   C     C_R   0.504420 0.766570 0.499213 -0.030176
C16   C     C_R   0.450348 0.185627 0.418248 -0.195335
C17   C     C_R   0.650564 0.811632 0.508263 -0.189085
C18   C     C_R   0.454881 0.092881 0.416718 0.220732
C19   C     C_R   0.657211 0.904702 0.509023 0.222499
C20   C     C_R   0.512447 0.046824 0.500709 0.112343
C21   C     C_R   0.514080 0.950362 0.503712 0.101335
C22   C     C_3   0.401307 0.044737 0.325727 -0.950578
C23   C     C_R   0.433158 0.427176 0.102209 -0.276269
C24   C     C_3   0.814715 0.953687 0.512658 -0.963806
C25   C     C_R   0.660646 0.642581 0.257849 0.155045
C26   C     C_R   0.598230 0.728736 0.254666 -0.147948
C27   C     C_R   0.693752 0.801947 0.288096 -0.120459
C28   C     C_R   0.851933 0.789708 0.324473 -0.137805
C29   C     C_R   0.914996 0.704304 0.327085 -0.168379
C30   C     C_R   0.820394 0.631348 0.292199 -0.109766
C31   C     C_R   0.275338 0.387500 0.737389 0.157622
C32   C     C_R   0.321951 0.301401 0.717680 -0.105688
C33   C     C_R   0.211068 0.237867 0.677279 -0.149736
C34   C     C_R   0.617739 0.548599 0.902165 -0.275416
C35   C     C_R   0.051226 0.258382 0.661034 -0.135284
C36   C     C_R   0.002222 0.341724 0.686932 -0.134248
C37   C     C_R   0.113633 0.405787 0.725922 -0.161820
C38   C     C_R   0.431403 0.429965 0.200884 -0.004147
C39   C     C_R   0.612415 0.548889 0.802815 -0.005328
C40   C     C_R   0.570894 0.569093 0.206794 0.130539
C41   C     C_R   0.390120 0.449703 0.790060 0.130033
C42   C     C_R   0.569644 0.569700 0.108119 -0.306658
H1    H     H_    0.977652 0.464367 0.397940 0.165308
H2    H     H_    0.712426 0.586063 0.942863 0.135409
H3    H     H_    0.376701 0.375043 0.236299 0.127170
H4    H     H_    0.700356 0.587411 0.770076 0.130474
H5    H     H_    0.622804 0.626628 0.074906 0.139861
H6    H     H_    0.297546 0.412657 0.918442 0.139007
H7    H     H_    0.497950 0.003066 0.307430 0.240777
H8    H     H_    0.295974 0.001344 0.333261 0.244387
H9    H     H_    0.369103 0.092371 0.265967 0.237119
H10   H     H_    0.814631 0.998773 0.449825 0.247048
H11   H     H_    0.838144 0.993806 0.577776 0.245401
H12   H     H_    0.022430 0.541320 0.600435 0.165856
H13   H     H_    0.913145 0.906622 0.513142 0.233034
H14   H     H_    0.476956 0.739328 0.224514 0.125981
H15   H     H_    0.645507 0.868237 0.285345 0.135210
H16   H     H_    0.925940 0.846476 0.349838 0.135055
H17   H     H_    0.038167 0.695023 0.353692 0.136804
H18   H     H_    0.872814 0.566816 0.288127 0.127386
H19   H     H_    0.443913 0.283241 0.735511 0.119218
H20   H     H_    0.248592 0.172136 0.660523 0.144644
H21   H     H_    0.964991 0.208936 0.630786 0.135520
H22   H     H_    0.877754 0.356141 0.677929 0.153182
H23   H     H_    0.611756 0.056662 0.647700 0.147761
H24   H     H_    0.073896 0.468956 0.748845 0.120232
H25   H     H_    0.259309 0.939623 0.496229 0.145480
H26   H     H_    0.614964 0.220004 0.646569 0.147518
H27   H     H_    0.251072 0.775603 0.490930 0.127901
H28   H     H_    0.404175 0.222203 0.354684 0.147587
H29   H     H_    0.758156 0.774045 0.513159 0.135138
H30   H     H_    0.382003 0.368655 0.065320 0.133834
N1    N     N_R   0.500000 0.499980 0.252470 -0.109644
N2    N     N_R   0.500000 0.500020 0.747530 -0.110919
O1    O     O_R   0.500010 0.369070 0.579480 -0.626784
O2    O     O_R   0.499990 0.630930 0.420520 -0.614038
O3    O     O_R   0.500010 0.369060 0.420520 -0.634008
O4    O     O_R   0.499990 0.630940 0.579480 -0.620763
O5    O     O_R   0.271750 0.500000 0.560890 -0.604206
O6    O     O_R   0.728250 0.500000 0.439110 -0.612401
O7    O     O_R   0.271750 0.499990 0.401930 -0.631849
O8    O     O_R   0.728250 0.500010 0.598070 -0.645952
Zn1   Zn    Zn3+2 0.500000 0.500010 0.606140 0.934929
Zn2   Zn    Zn3+2 0.500000 0.499990 0.393860 0.939150

loop_
_geom_bond_atom_site_label_1
_geom_bond_atom_site_label_2
_ccdc_geom_bond_type
C24   H10   S    
C3    C42   A    
C6    O8    A    
C1    O3    A    
C3    C23   A    
C35   C36   A    
N2    Zn1   S    
O6    Zn2   S    
O2    Zn2   S    
C7    C8    D    
C10   H25   S    
C24   H13   S    
C26   C27   A    
C28   C29   A    
C19   C21   A    
C32   H19   S    
C25   C40   S    
C11   C14   A    
C2    C41   A    
C40   N1    A    
C39   N2    A    
C38   H3    S    
C33   C35   A    
C41   N2    A    
O4    Zn1   S    
C29   H17   S    
C33   H20   S    
C30   H18   S    
C7    H1    S    
C5    O5    A    
N1    Zn2   S    
C22   H8    S    
C40   C42   A    
C10   C21   A    
C4    C34   A    
C34   C39   A    
C1    O1    A    
C16   H28   S    
C27   H15   S    
C8    H12   S    
C5    C7    S    
C6    C8    S    
O3    Zn2   S    
C2    H6    S    
C24   H11   S    
C31   C37   A    
C12   O4    A    
C2    C4    A    
C29   C30   A    
C5    O7    A    
C9    C20   A    
C6    O6    A    
C31   C32   A    
C12   C15   S    
C37   H24   S    
C34   H2    S    
C9    C11   A    
C39   H4    S    
C17   H29   S    
C13   C15   A    
C14   C16   A    
C3    C4    S    
O7    Zn2   S    
C11   H26   S    
C22   H7    S    
C25   C30   A    
C15   C17   A    
C36   C37   A    
C31   C41   S    
C18   C22   S    
C23   H30   S    
C10   C13   A    
C26   H14   S    
C28   H16   S    
C23   C38   A    
C32   C33   A    
C12   O2    A    
C19   C24   S    
C25   C26   A    
O5    Zn1   S    
O1    Zn1   S    
C13   H27   S    
C17   C19   A    
C18   C20   A    
C42   H5    S    
C9    H23   S    
C20   C21   S    
C16   C18   A    
O8    Zn1   S    
C27   C28   A    
C35   H21   S    
C1    C14   S    
C36   H22   S    
C22   H9    S    
C38   N1    A    
