data_mof_unit_40255.cif
_audit_creation_date              2012-12-11T17:12:41-0500
_audit_creation_method            fapswitch 2.2
_symmetry_space_group_name_H-M    P1
_symmetry_Int_Tables_number       1
_space_group_crystal_system       triclinic
_cell_length_a                    17.224949
_cell_length_b                    6.881344
_cell_length_c                    14.411307
_cell_angle_alpha                 88.540564
_cell_angle_beta                  110.08756
_cell_angle_gamma                 91.80625
_cell_volume                      1603.28071424

loop_
_atom_site_label
_atom_site_type_symbol
_atom_type_description
_atom_site_fract_x
_atom_site_fract_y
_atom_site_fract_z
_atom_type_partial_charge
O1    O     O_R   0.314130 0.635770 0.168990 -0.544515
O2    O     O_R   0.685870 0.364230 0.831010 -0.544515
O3    O     O_R   0.185870 0.135770 0.331010 -0.540307
O4    O     O_R   0.814130 0.864230 0.668990 -0.540306
O5    O     O_R   0.146800 0.302460 0.139760 -0.537284
O6    O     O_R   0.853200 0.697540 0.860240 -0.537283
O7    O     O_R   0.353200 0.802460 0.360240 -0.536090
O8    O     O_R   0.646800 0.197540 0.639760 -0.536090
C1    C     C_R   0.113976 0.475258 0.112773 0.722594
C2    C     C_R   0.886024 0.524742 0.887227 0.722594
C3    C     C_R   0.386004 0.976457 0.387217 0.726751
C4    C     C_R   0.613996 0.023543 0.612783 0.726751
O9    O     O_R   0.311100 0.305780 0.157130 -0.542829
O10   O     O_R   0.688900 0.694220 0.842870 -0.542829
O11   O     O_R   0.188900 0.805780 0.342870 -0.547714
O12   O     O_R   0.811100 0.194220 0.657130 -0.547714
O13   O     O_R   0.351340 0.139640 0.348510 -0.535201
O14   O     O_R   0.648660 0.860360 0.651490 -0.535200
O15   O     O_R   0.148660 0.639640 0.151490 -0.534093
O16   O     O_R   0.851340 0.360360 0.848510 -0.534093
C5    C     C_R   0.333420 0.479198 0.136322 0.702738
C6    C     C_R   0.666580 0.520802 0.863677 0.702738
C7    C     C_R   0.166070 0.970431 0.363507 0.702682
C8    C     C_R   0.833930 0.029569 0.636493 0.702682
C9    C     C_1   0.533593 0.008145 0.533084 -0.185685
C10   C     C_1   0.466407 0.991855 0.466916 -0.185685
C11   C     C_1   0.966468 0.509609 0.967002 -0.184935
C12   C     C_1   0.033532 0.490391 0.032998 -0.184935
O17   O     O_3   0.263010 0.470920 0.312770 -0.367569
O18   O     O_3   0.736990 0.529080 0.687230 -0.367569
O19   O     O_3   0.236990 0.970920 0.187230 -0.368324
O20   O     O_3   0.763010 0.029080 0.812770 -0.368324
V1    V     V_3+5 0.247590 0.194450 0.238360 1.421543
V2    V     V_3+5 0.752410 0.805550 0.761640 1.421543
V3    V     V_3+5 0.252410 0.694450 0.261640 1.420790
V4    V     V_3+5 0.747590 0.305550 0.738360 1.420790
C13   C     C_R   0.112768 0.961072 0.425607 -0.066683
C14   C     C_R   0.887231 0.038928 0.574393 -0.066683
C15   C     C_R   0.386001 0.507253 0.074229 -0.065330
C16   C     C_R   0.613999 0.492747 0.925771 -0.065330
C17   C     C_R   0.946200 0.234194 0.469716 -0.200338
C18   C     C_R   0.053800 0.765806 0.530284 -0.200338
C19   C     C_R   0.557222 0.270235 0.022270 -0.200998
C20   C     C_R   0.442778 0.729765 0.977730 -0.200998
C21   C     C_R   0.889967 0.210481 0.519705 -0.167897
C22   C     C_R   0.110033 0.789519 0.480295 -0.167897
C23   C     C_R   0.613530 0.311868 0.973894 -0.166118
C24   C     C_R   0.386470 0.688132 0.026106 -0.166118
C25   C     C_R   0.941158 0.888959 0.576230 -0.238326
C26   C     C_R   0.058841 0.111041 0.423769 -0.238326
C27   C     C_R   0.557963 0.633789 0.928996 -0.240462
C28   C     C_R   0.442037 0.366211 0.071004 -0.240462
C29   C     C_R   0.998565 0.912784 0.526653 0.158927
C30   C     C_R   0.001435 0.087216 0.473346 0.158927
C31   C     C_R   0.500360 0.591850 0.976715 0.159942
C32   C     C_R   0.499640 0.408150 0.023285 0.159942
H1    H     H_    0.150827 0.671064 0.483340 0.133948
H2    H     H_    0.849173 0.328936 0.516660 0.133947
H3    H     H_    0.343878 0.799799 0.027270 0.133408
H4    H     H_    0.656122 0.200201 0.972730 0.133408
H5    H     H_    0.059616 0.243000 0.381314 0.121180
H6    H     H_    0.940384 0.757000 0.618686 0.121180
H7    H     H_    0.442933 0.227337 0.108605 0.120863
H8    H     H_    0.557067 0.772663 0.891395 0.120862
H9    H     H_    0.947026 0.368540 0.429108 0.123526
H10   H     H_    0.052974 0.631460 0.570891 0.123526
H11   H     H_    0.558112 0.129202 0.057816 0.121805
H12   H     H_    0.441888 0.870798 0.942184 0.121805

loop_
_geom_bond_atom_site_label_1
_geom_bond_atom_site_label_2
_ccdc_geom_bond_type
C2    C11   S    
O10   V2    S    
C16   C23   A    
C8    C14   S    
C31   C32   A    
O19   V1    S    
O2    C6    A    
C16   C27   A    
C17   C21   A    
O17   V3    S    
O3    C7    A    
C5    C15   S    
O18   V4    S    
C4    C9    S    
O8    C4    A    
C6    C16   S    
O10   C6    A    
O11   C7    A    
C15   C28   A    
C9    C10   T    
O9    C5    A    
O12   C8    A    
C14   C25   A    
O15   V3    S    
C29   C30   A    
O12   V4    S    
O1    C5    A    
C13   C26   A    
O14   V2    S    
C20   C31   A    
O7    V3    S    
O5    C1    A    
C26   C30   A    
C28   C32   A    
C25   C29   A    
O20   V4    S    
O19   V3    S    
O11   V3    S    
O7    C3    A    
C27   C31   A    
O5    V1    S    
C18   C29   A    
C18   C22   A    
O4    C8    A    
O4    V2    S    
C17   C30   A    
C20   H12   S    
O6    C2    A    
O18   V2    S    
O2    V4    S    
C21   H2    S    
O16   V4    S    
O17   V1    S    
C19   C32   A    
C23   H4    S    
C20   C24   A    
O1    V3    S    
C24   H3    S    
C19   H11   S    
O9    V1    S    
O8    V4    S    
C4    O14   A    
C11   C12   T    
C18   H10   S    
C26   H5    S    
O3    V1    S    
C3    O13   A    
C14   C21   A    
C17   H9    S    
C25   H6    S    
C3    C10   S    
O13   V1    S    
C13   C22   A    
C7    C13   S    
C19   C23   A    
C22   H1    S    
C1    O15   A    
C27   H8    S    
O6    V2    S    
C1    C12   S    
C2    O16   A    
C15   C24   A    
C28   H7    S    
O20   V2    S    
