data_mof_unit_7846.cif
_audit_creation_date              2012-12-11T14:58:37-0500
_audit_creation_method            fapswitch 2.2
_symmetry_space_group_name_H-M    P1
_symmetry_Int_Tables_number       1
_space_group_crystal_system       triclinic
_cell_length_a                    11.066415
_cell_length_b                    11.024073
_cell_length_c                    18.777229
_cell_angle_alpha                 90.400015
_cell_angle_beta                  90.622574
_cell_angle_gamma                 59.456356
_cell_volume                      1972.78440666

loop_
_atom_site_label
_atom_site_type_symbol
_atom_type_description
_atom_site_fract_x
_atom_site_fract_y
_atom_site_fract_z
_atom_type_partial_charge
C1    C     C_R   0.358467 0.770968 0.397082 0.657910
C2    C     C_R   0.232033 0.437314 0.200818 0.432172
C3    C     C_R   0.226798 0.429892 0.275036 0.079733
C4    C     C_R   0.382955 0.352833 0.388261 0.600886
C5    C     C_R   0.812299 0.730088 0.355297 0.017096
C6    C     C_R   0.829431 0.654200 0.292498 -0.114431
C7    C     C_R   0.961640 0.539535 0.274342 -0.093375
C8    C     C_R   0.083818 0.519277 0.308870 0.050273
C9    C     C_R   0.357233 0.339937 0.311850 0.062516
C10   C     C_R   0.912335 0.229206 0.302547 0.046293
C11   C     C_R   0.938773 0.212646 0.230136 0.361664
C12   C     C_R   0.609041 0.178170 0.155670 -0.000708
C13   C     C_R   0.861848 0.326714 0.183402 0.009689
C14   C     C_R   0.745594 0.449542 0.207375 -0.148680
C15   C     C_R   0.716692 0.463676 0.279563 -0.155531
C16   C     C_R   0.770194 0.382548 0.401430 0.584301
C17   C     C_R   0.806268 0.358819 0.327437 -0.059444
C18   C     C_R   0.365992 0.704700 0.272554 0.352184
C19   C     C_R   0.360390 0.731250 0.200486 0.365069
C20   C     C_R   0.350013 0.855859 0.177692 -0.050282
C21   C     C_R   0.344974 0.954559 0.227469 0.375868
C22   C     C_R   0.343524 0.930607 0.300129 0.379706
C23   C     C_R   0.350399 0.339704 0.162623 0.150917
C24   C     C_R   0.354131 0.805323 0.322566 -0.051611
C25   C     C_R   0.366302 0.201026 0.692257 0.019849
C26   C     C_R   0.355210 0.188938 0.764911 -0.184394
C27   C     C_R   0.300351 0.308265 0.809493 0.044664
C28   C     C_R   0.347338 0.764038 0.605762 0.614641
C29   C     C_R   0.248340 0.442051 0.781079 0.450474
C30   C     C_R   0.257521 0.455554 0.708462 -0.050316
C31   C     C_R   0.321914 0.335100 0.664335 -0.026975
C32   C     C_R   0.910790 0.387579 0.706395 0.442948
C33   C     C_R   0.941667 0.374128 0.778238 0.353961
C34   C     C_R   0.480982 0.256946 0.271615 -0.047250
C35   C     C_R   0.911752 0.288931 0.821111 -0.046163
C36   C     C_R   0.850978 0.215595 0.790429 0.310132
C37   C     C_R   0.815220 0.233397 0.718454 -0.115150
C38   C     C_R   0.840193 0.323703 0.676878 -0.053949
C39   C     C_R   0.195170 0.875770 0.709037 0.301210
C40   C     C_R   0.369202 0.350849 0.595324 0.570977
C41   C     C_R   0.179934 0.891034 0.781860 -0.141685
C42   C     C_R   0.297930 0.842994 0.826351 -0.074438
C43   C     C_R   0.432568 0.772940 0.798061 0.412179
C44   C     C_R   0.448970 0.751779 0.725302 0.342434
C45   C     C_R   0.478744 0.258134 0.197821 0.024455
C46   C     C_R   0.329881 0.805807 0.680011 -0.036103
C47   C     C_R   0.911189 0.314627 0.111562 0.589603
C48   C     C_R   0.327709 0.296583 0.091925 0.630449
C49   C     C_R   0.307702 0.900556 0.105197 0.676200
C50   C     C_R   0.944473 0.281965 0.896959 0.564935
C51   C     C_R   0.293868 0.286312 0.884638 0.593179
C52   C     C_R   0.768283 0.373625 0.608772 0.607856
C53   C     C_R   0.275392 0.893335 0.898682 0.580841
C54   C     C_R   0.790680 0.028658 0.043183 0.362482
C55   C     C_R   0.719062 0.175228 0.044328 -0.022292
C56   C     C_R   0.062409 0.619765 0.359715 0.399886
C57   C     C_R   0.633264 0.249492 0.101017 0.321066
C58   C     C_2   0.673482 0.854377 0.371261 0.582939
C59   C     C_2   0.988813 0.108304 0.350234 0.632530
C60   C     C_2   0.838783 0.798707 0.094236 0.675817
C61   C     C_2   0.430782 0.072339 0.647597 0.588639
C62   C     C_2   0.928442 0.758027 0.466187 0.575177
C63   C     C_R   0.933438 0.700352 0.394002 0.032805
C64   C     C_R   0.682338 0.030023 0.155336 -0.162612
C65   C     C_R   0.773172 0.953992 0.098773 0.042389
Cr1   Cr    Cr6+3 0.601770 0.606860 0.505860 1.178793
Cr2   Cr    Cr6+3 0.291380 0.601660 0.495070 1.152451
Cr3   Cr    Cr6+3 0.606880 0.291510 0.499120 1.114134
Cr4   Cr    Cr6+3 0.062440 0.063090 0.008210 1.196080
Cr5   Cr    Cr6+3 0.062880 0.375170 0.998920 1.180100
Cr6   Cr    Cr6+3 0.374700 0.061720 0.992470 1.127934
F1    F     F_    0.044057 0.087336 0.206002 -0.595665
F2    F     F_    0.078435 0.928045 0.667218 -0.595070
F3    F     F_    0.547646 0.724866 0.840845 -0.519282
F4    F     F_    0.581412 0.673970 0.700078 -0.553745
F5    F     F_    0.871460 0.961163 0.985945 -0.517872
F6    F     F_    0.561739 0.392213 0.098542 -0.581934
F7    F     F_    0.134727 0.682647 0.346165 -0.559049
F8    F     F_    0.120129 0.540898 0.164898 -0.580569
F9    F     F_    0.388622 0.577950 0.293914 -0.598811
F10   F     F_    0.360163 0.638148 0.152948 -0.510277
F11   F     F_    0.325990 0.080122 0.205585 -0.617910
F12   F     F_    0.325580 0.031236 0.347947 -0.573287
F13   F     F_    0.193709 0.557901 0.823548 -0.543189
F14   F     F_    0.940775 0.471773 0.666971 -0.525283
F15   F     F_    0.991605 0.453275 0.806789 -0.532308
F16   F     F_    0.817234 0.134964 0.830322 -0.547621
H1    H     H_    0.582626 0.195135 0.297218 0.173658
H2    H     H_    0.726550 0.232999 0.000161 0.200423
H3    H     H_    0.659166 0.974989 0.195423 0.210913
H4    H     H_    0.527047 0.973333 0.444014 0.390864
H5    H     H_    0.028112 0.917188 0.373702 0.404979
H6    H     H_    0.973580 0.618599 0.043415 0.380536
H7    H     H_    0.591031 0.873763 0.634722 0.404317
H8    H     H_    0.994756 0.854456 0.534011 0.383720
H9    H     H_    0.739848 0.683829 0.258119 0.157737
H10   H     H_    0.970730 0.477778 0.227908 0.184829
H11   H     H_    0.682437 0.535843 0.171370 0.199709
H12   H     H_    0.630577 0.561000 0.299302 0.145854
H13   H     H_    0.389613 0.085497 0.786886 0.174094
H14   H     H_    0.224027 0.559577 0.687776 0.181906
H15   H     H_    0.759671 0.184036 0.696594 0.212055
H16   H     H_    0.075107 0.946399 0.803232 0.242990
O1    O     O_R   0.748800 0.497470 0.428000 -0.506862
O2    O     O_R   0.417600 0.174890 0.067840 -0.520323
O3    O     O_R   0.375320 0.946260 0.070860 -0.479555
O4    O     O_R   0.476420 0.724060 0.429470 -0.496058
O5    O     O_R   0.160600 0.919630 0.926660 -0.440747
O6    O     O_R   0.933060 0.190520 0.936020 -0.453886
O7    O     O_R   0.908880 0.403460 0.925020 -0.411690
O8    O     O_R   0.179600 0.361450 0.918490 -0.429606
O9    O     O_R   0.391510 0.170860 0.907530 -0.511340
O10   O     O_R   0.351130 0.942530 0.922260 -0.475293
O11   O     O_3   0.166667 0.166667 0.999870 -0.362990
O12   O     O_R   0.300070 0.471040 0.567100 -0.507246
O13   O     O_R   0.264580 0.744340 0.416750 -0.378619
O14   O     O_R   0.309380 0.472470 0.418200 -0.444717
O15   O     O_R   0.501710 0.260430 0.414300 -0.506107
O16   O     O_R   0.728090 0.305600 0.428960 -0.487443
O17   O     O_R   0.738760 0.495930 0.588610 -0.371354
O18   O     O_R   0.467110 0.722640 0.578360 -0.450605
O19   O     O_R   0.254530 0.742800 0.577360 -0.459174
O20   O     O_2   0.604727 0.933839 0.322902 -0.515568
O21   O     O_R   0.621536 0.883395 0.440591 -0.616154
O22   O     O_2   0.038490 0.119913 0.406637 -0.457447
O23   O     O_R   0.491670 0.258900 0.574910 -0.483094
O24   O     O_R   0.996706 0.982277 0.331741 -0.616323
O25   O     O_2   0.800920 0.737104 0.133816 -0.533374
O26   O     O_R   0.941762 0.722398 0.043411 -0.536794
O27   O     O_2   0.380927 0.073081 0.589030 -0.480014
O28   O     O_R   0.551002 0.951248 0.671913 -0.604386
O29   O     O_2   0.856096 0.748420 0.511987 -0.426665
O30   O     O_R   0.011625 0.815585 0.483709 -0.650860
O31   O     O_R   0.718780 0.304180 0.577850 -0.517868
O32   O     O_3   0.500010 0.500010 0.500020 -0.322082
O33   O     O_R   0.186690 0.923650 0.086970 -0.394553
O34   O     O_R   0.957250 0.194250 0.084630 -0.471766
O35   O     O_R   0.934970 0.407490 0.085330 -0.503206
O36   O     O_R   0.203780 0.365190 0.067090 -0.458039

loop_
_geom_bond_atom_site_label_1
_geom_bond_atom_site_label_2
_ccdc_geom_bond_type
C25   C31   A    
H5    O24   S    
C51   O9    A    
C23   C45   A    
C27   C29   A    
C52   O31   A    
C41   C42   A    
C35   C36   A    
C64   H3    S    
Cr1   O4    S    
Cr2   O13   S    
C8    C56   A    
C7    C8    A    
C39   C41   A    
C54   C65   A    
Cr5   O11   S    
Cr6   O10   S    
C58   O20   D    
C62   C63   S    
C5    C58   S    
H8    O30   S    
C18   C24   A    
C5    C6    A    
C62   O30   S    
C21   C22   A    
C36   C37   A    
C37   C38   A    
C42   C53   S    
C30   C31   A    
C12   C64   A    
C28   O19   A    
C40   O12   A    
C38   C52   S    
C10   C17   A    
C59   O24   S    
C50   O7    A    
C56   F7    S    
C31   C40   S    
C5    C63   A    
C18   C19   A    
Cr2   O12   S    
C2    F8    S    
Cr5   O7    S    
Cr3   O15   S    
Cr4   O6    S    
C16   O1    A    
C19   C20   A    
C44   C46   A    
C16   C17   S    
C1    O13   A    
C32   C38   A    
C43   F3    S    
Cr5   O36   S    
Cr1   O17   S    
C13   C14   A    
C4    O15   A    
H6    O26   S    
Cr4   O5    S    
C27   C51   S    
C14   H11   S    
C36   F16   S    
Cr4   O34   S    
Cr4   O11   S    
C56   C63   A    
Cr1   O1    S    
C60   O25   D    
C29   F13   S    
C3    C8    S    
Cr5   O8    S    
C16   O16   A    
C13   C47   S    
C28   O18   A    
C25   C61   S    
C25   C26   A    
C50   O6    A    
C41   H16   S    
Cr6   O11   S    
C44   F4    S    
Cr2   O32   S    
C33   F15   S    
C29   C30   A    
C3    C9    A    
C62   O29   D    
C20   C49   S    
C53   O10   A    
C48   O2    A    
C40   O23   A    
Cr6   O9    S    
C47   O34   A    
C35   C50   S    
C26   C27   A    
Cr1   O18   S    
C34   C45   A    
C34   H1    S    
C21   F11   S    
Cr2   O14   S    
C49   O3    A    
C61   O27   D    
C1    O4    A    
C39   C46   A    
C54   F5    S    
C12   C57   A    
C52   O17   A    
C18   F9    S    
C49   O33   A    
C60   C65   S    
Cr5   O35   S    
Cr4   O33   S    
C6    H9    S    
H4    O21   S    
C55   C57   A    
C43   C44   A    
C9    C34   A    
C22   C24   A    
C4    O14   A    
C42   C43   A    
Cr2   O19   S    
Cr3   O23   S    
C15   C17   A    
C54   C55   A    
C51   O8    A    
C23   C48   S    
C7    H10   S    
C48   O36   A    
C11   F1    S    
Cr3   O32   S    
C15   H12   S    
C12   C45   S    
C60   O26   S    
C6    C7    A    
C59   O22   D    
C58   O21   S    
H7    O28   S    
C28   C46   S    
C64   C65   A    
C57   F6    S    
Cr6   O2    S    
C2    C3    A    
Cr3   O16   S    
C32   C33   A    
C22   F12   S    
C11   C13   A    
C53   O5    A    
C37   H15   S    
C32   F14   S    
C47   O35   A    
Cr3   O31   S    
C33   C35   A    
C30   H14   S    
C10   C59   S    
C39   F2    S    
C10   C11   A    
C61   O28   S    
Cr1   O32   S    
C20   C21   A    
C1    C24   S    
C55   H2    S    
Cr6   O3    S    
C2    C23   A    
C14   C15   A    
C4    C9    S    
C19   F10   S    
C26   H13   S    
