data_mof_unit_18677.cif
_audit_creation_date              2012-12-10T18:11:03-0500
_audit_creation_method            fapswitch 2.2
_symmetry_space_group_name_H-M    P1
_symmetry_Int_Tables_number       1
_space_group_crystal_system       triclinic
_cell_length_a                    10.736561
_cell_length_b                    9.420715
_cell_length_c                    10.622688
_cell_angle_alpha                 89.770775
_cell_angle_beta                  90.033952
_cell_angle_gamma                 90.007911
_cell_volume                      1074.43446645

loop_
_atom_site_label
_atom_site_type_symbol
_atom_type_description
_atom_site_fract_x
_atom_site_fract_y
_atom_site_fract_z
_atom_type_partial_charge
C1    C     C_R   0.259840 0.500191 0.501006 0.789247
C2    C     C_3   0.500120 0.500839 0.122384 0.028819
C3    C     C_3   0.070979 0.409912 0.614927 -0.007479
C4    C     C_3   0.071131 0.432595 0.376890 -0.013221
C5    C     C_3   0.926624 0.416142 0.616901 -0.391920
C6    C     C_3   0.926636 0.430669 0.379335 -0.391383
C7    C     C_3   0.070811 0.655050 0.512473 -0.364607
C8    C     C_3   0.121719 0.500694 0.501553 0.154731
C9    C     C_3   0.877750 0.500447 0.501500 0.105927
C10   C     C_3   0.928400 0.654791 0.508880 -0.389337
C11   C     C_3   0.618818 0.083529 0.552635 -0.189998
C12   C     C_3   0.618861 0.916100 0.552509 -0.189097
C13   C     C_3   0.398556 0.083475 0.582116 -0.187677
C14   C     C_3   0.398587 0.915873 0.582157 -0.189987
C15   C     C_3   0.483179 0.084054 0.374352 -0.183753
C16   C     C_3   0.483091 0.916929 0.374370 -0.188964
C17   C     C_R   0.500016 0.500295 0.259287 0.781486
C18   C     C_R   0.739969 0.500170 0.500879 0.777192
C19   C     C_R   0.500417 0.499679 0.740775 0.777558
C20   C     C_3   0.497002 0.634928 0.040120 -0.142808
C21   C     C_3   0.399653 0.429587 0.041980 -0.172261
C22   C     C_3   0.396479 0.563620 0.957534 -0.170892
C23   C     C_3   0.500556 0.498989 0.877627 0.029190
C24   C     C_3   0.601113 0.570156 0.957927 -0.172226
C25   C     C_3   0.503767 0.364896 0.959845 -0.144413
C26   C     C_3   0.604252 0.436194 0.042512 -0.175314
Cu1   Cu    Cu3+1 0.499860 0.642410 0.500060 0.888090
Cu2   Cu    Cu3+1 0.499860 0.357590 0.500060 0.886656
H1    H     H_    0.311596 0.616071 0.919951 0.123640
H2    H     H_    0.892297 0.708349 0.594718 0.156960
H3    H     H_    0.896366 0.717201 0.425694 0.162314
H4    H     H_    0.635561 0.122958 0.649770 0.134114
H5    H     H_    0.635850 0.875619 0.649536 0.134746
H6    H     H_    0.407657 0.122298 0.680411 0.138467
H7    H     H_    0.407745 0.876321 0.680484 0.140311
H8    H     H_    0.394287 0.123603 0.333262 0.136629
H9    H     H_    0.394123 0.877758 0.333420 0.136207
H10   H     H_    0.559163 0.122108 0.311556 0.139998
H11   H     H_    0.558926 0.879207 0.311518 0.136451
H12   H     H_    0.306645 0.121355 0.547519 0.134150
H13   H     H_    0.306672 0.878268 0.547642 0.134741
H14   H     H_    0.494154 0.745576 0.075620 0.116774
H15   H     H_    0.317545 0.371065 0.078652 0.123773
H16   H     H_    0.683484 0.627468 0.920205 0.112065
H17   H     H_    0.506506 0.254265 0.924289 0.119129
H18   H     H_    0.689183 0.384232 0.080596 0.112885
H19   H     H_    0.891657 0.466951 0.704561 0.167719
H20   H     H_    0.886647 0.487009 0.296227 0.165584
H21   H     H_    0.103259 0.705454 0.601005 0.156963
H22   H     H_    0.106677 0.723250 0.434925 0.164036
N1    N     N_3   0.500250 0.143650 0.502780 -0.109839
N2    N     N_3   0.500250 0.856350 0.502780 -0.108603
O1    O     O_R   0.317570 0.620260 0.500070 -0.593380
O2    O     O_R   0.317570 0.379740 0.500070 -0.604709
O3    O     O_R   0.499850 0.620240 0.316900 -0.595707
O4    O     O_R   0.499850 0.379760 0.316900 -0.592606
O5    O     O_R   0.682190 0.620260 0.500030 -0.597380
O6    O     O_R   0.682190 0.379740 0.500030 -0.596769
O7    O     O_R   0.499910 0.620280 0.683200 -0.589636
O8    O     O_R   0.499910 0.379720 0.683200 -0.593713
H23   H     H_    0.698485 0.120819 0.494479 0.136242
H24   H     H_    0.698393 0.879599 0.494099 0.135640
C27   C     C_3   0.125273 0.450584 0.744346 -0.922929
H25   H     H_    0.099321 0.560291 0.771190 0.235139
H26   H     H_    0.088754 0.377209 0.817666 0.232523
H27   H     H_    0.228174 0.440646 0.744633 0.231850
C28   C     C_3   0.119085 0.504806 0.255592 -0.911874
H28   H     H_    0.081375 0.613854 0.245081 0.240566
H29   H     H_    0.222215 0.509890 0.254685 0.226873
H30   H     H_    0.089223 0.442344 0.172380 0.227971
H31   H     H_    0.098339 0.297269 0.599093 0.137494
H32   H     H_    0.103942 0.320457 0.373134 0.135815
H33   H     H_    0.889110 0.305953 0.616086 0.139254
H34   H     H_    0.893688 0.318772 0.373980 0.136562

loop_
_geom_bond_atom_site_label_1
_geom_bond_atom_site_label_2
_ccdc_geom_bond_type
C7    C10   S    
C27   H26   S    
C22   H1    S    
C1    C8    S    
C3    H31   S    
C4    C8    S    
C6    C9    S    
Cu2   O4    S    
C7    C8    S    
C5    H19   S    
C6    H20   S    
C24   C26   S    
Cu2   N1    S    
Cu1   O3    S    
C15   C16   S    
C1    O1    A    
C13   H12   S    
C21   H15   S    
C10   H3    S    
C18   O6    A    
C14   N2    S    
C20   C24   S    
C23   C24   S    
C15   N1    S    
C9    C10   S    
C17   O3    A    
C16   H9    S    
C3    C5    S    
C27   H27   S    
C13   N1    S    
C21   C22   S    
C2    C17   S    
C12   N2    S    
C6    H34   S    
Cu2   O8    S    
C2    C20   S    
C28   H28   S    
C7    H21   S    
C4    C6    S    
C3    C8    S    
Cu1   O5    S    
C14   H7    S    
Cu2   O2    S    
C19   O7    A    
C25   C26   S    
C28   H29   S    
C19   C23   S    
C1    O2    A    
C15   H10   S    
C5    C9    S    
C12   H24   S    
C10   H2    S    
C18   O5    A    
C2    C21   S    
C2    C26   S    
C17   O4    A    
C14   H13   S    
C20   C22   S    
C11   H4    S    
C3    C27   S    
C24   H16   S    
C25   H17   S    
C15   H8    S    
C4    H32   S    
Cu1   N2    S    
C21   C25   S    
C16   N2    S    
C7    H22   S    
C11   H23   S    
C4    C28   S    
C20   H14   S    
C11   C12   S    
Cu1   O1    S    
Cu2   O6    S    
C19   O8    A    
C28   H30   S    
C13   H6    S    
Cu1   O7    S    
C23   C25   S    
C5    H33   S    
C11   N1    S    
C26   H18   S    
C16   H11   S    
C27   H25   S    
C9    C18   S    
Cu1   Cu2   S    
C22   C23   S    
C12   H5    S    
C13   C14   S    
