data_mof_unit_44598.cif
_audit_creation_date              2012-12-11T15:39:33-0500
_audit_creation_method            fapswitch 2.2
_symmetry_space_group_name_H-M    P1
_symmetry_Int_Tables_number       1
_space_group_crystal_system       triclinic
_cell_length_a                    17.415961
_cell_length_b                    24.456305
_cell_length_c                    14.978375
_cell_angle_alpha                 89.547177
_cell_angle_beta                  125.527821
_cell_angle_gamma                 90.923438
_cell_volume                      5191.36318043

loop_
_atom_site_label
_atom_site_type_symbol
_atom_type_description
_atom_site_fract_x
_atom_site_fract_y
_atom_site_fract_z
_atom_type_partial_charge
C1    C     C_R   0.349343 0.348676 0.908530 -0.117195
C2    C     C_R   0.434519 0.499414 0.633408 0.056133
C3    C     C_R   0.137941 0.827155 0.997284 0.068517
C4    C     C_R   0.962266 0.998708 0.288340 0.054650
C5    C     C_R   0.934519 0.999414 0.633408 0.056133
C6    C     C_R   0.199716 0.500641 0.632912 0.078197
C7    C     C_R   0.826797 0.500838 0.297412 0.072594
C8    C     C_R   0.699716 0.000642 0.632912 0.078196
C9    C     C_R   0.326797 0.000838 0.297412 0.072593
C10   C     C_R   0.074228 0.552298 0.471767 0.170128
C11   C     C_R   0.978919 0.552192 0.390036 0.174693
C12   C     C_R   0.574229 0.052298 0.471767 0.170128
C13   C     C_R   0.658802 0.352607 0.090494 -0.145956
C14   C     C_R   0.478919 0.052192 0.390036 0.174693
C15   C     C_R   0.120313 0.502767 0.518070 0.026464
C16   C     C_R   0.928364 0.502696 0.351985 0.033271
C17   C     C_R   0.620313 0.002767 0.518070 0.026464
C18   C     C_R   0.428364 0.002696 0.351986 0.033272
C19   C     C_R   0.076104 0.454306 0.459073 -0.190969
C20   C     C_R   0.979524 0.454285 0.375418 -0.185425
C21   C     C_R   0.576104 0.954306 0.459073 -0.190969
C22   C     C_R   0.479524 0.954285 0.375418 -0.185426
C23   C     C_3   0.964066 0.602670 0.433857 -0.525391
C24   C     C_R   0.849343 0.848676 0.908530 -0.117195
C25   C     C_3   0.068192 0.603044 0.522902 -0.517182
C26   C     C_3   0.464066 0.102669 0.433858 -0.525390
C27   C     C_3   0.568192 0.103044 0.522902 -0.517182
C28   C     C_R   0.255273 0.733729 0.927585 -0.208975
C29   C     C_R   0.837629 0.689170 0.099558 -0.178102
C30   C     C_R   0.755272 0.233728 0.927585 -0.208976
C31   C     C_R   0.337629 0.189170 0.099558 -0.178102
C32   C     C_R   0.711664 0.279062 0.929144 -0.164893
C33   C     C_R   0.384057 0.235545 0.100868 -0.159057
C34   C     C_R   0.211665 0.779062 0.929145 -0.164893
C35   C     C_R   0.158803 0.852607 0.090494 -0.145957
C36   C     C_R   0.884057 0.735545 0.100868 -0.159057
C37   C     C_R   0.677759 0.278642 0.993200 0.104202
C38   C     C_R   0.356587 0.259655 0.001651 0.101884
C39   C     C_R   0.177759 0.778643 0.993200 0.104202
C40   C     C_R   0.856587 0.759655 0.001651 0.101885
C41   C     C_R   0.407313 0.632676 0.088744 -0.109493
C42   C     C_R   0.595633 0.626194 0.906699 -0.105236
C43   C     C_R   0.907313 0.132676 0.088744 -0.109492
C44   C     C_R   0.095633 0.126194 0.906699 -0.105236
C45   C     C_R   0.682237 0.232700 0.051726 -0.224041
C46   C     C_R   0.319659 0.645313 0.995101 0.104508
C47   C     C_R   0.299184 0.229958 0.903913 -0.205859
C48   C     C_R   0.182237 0.732700 0.051726 -0.224042
C49   C     C_R   0.799184 0.729958 0.903913 -0.205859
C50   C     C_R   0.224393 0.686221 0.048434 0.206442
C51   C     C_R   0.753272 0.682586 0.902468 0.197322
C52   C     C_R   0.724393 0.186221 0.048434 0.206442
C53   C     C_R   0.253272 0.182586 0.902468 0.197321
C54   C     C_R   0.263096 0.687976 0.988619 0.054616
C55   C     C_R   0.761478 0.667808 0.999058 0.074607
C56   C     C_R   0.763095 0.187976 0.988619 0.054616
C57   C     C_R   0.685001 0.640387 0.997374 0.071865
C58   C     C_R   0.261478 0.167808 0.999058 0.074607
C59   C     C_R   0.397904 0.548365 0.469067 -0.136349
C60   C     C_R   0.406888 0.548143 0.383574 -0.102745
C61   C     C_R   0.897904 0.048365 0.469067 -0.136349
C62   C     C_R   0.906888 0.048143 0.383574 -0.102745
C63   C     C_R   0.419909 0.498543 0.348123 0.144246
C64   C     C_R   0.402874 0.498974 0.519776 0.121698
C65   C     C_R   0.919909 0.998543 0.348123 0.144246
C66   C     C_R   0.902874 0.998974 0.519776 0.121699
C67   C     C_R   0.404032 0.449076 0.382968 -0.156839
C68   C     C_R   0.819659 0.145313 0.995101 0.104507
C69   C     C_R   0.395401 0.449282 0.469007 -0.163745
C70   C     C_R   0.904032 0.949076 0.382968 -0.156838
C71   C     C_R   0.895401 0.949282 0.469007 -0.163747
C72   C     C_R   0.486177 0.453247 0.254893 -0.123068
C73   C     C_R   0.451924 0.454064 0.697631 -0.123005
C74   C     C_R   0.986177 0.953247 0.254893 -0.123068
C75   C     C_R   0.951924 0.954064 0.697631 -0.123005
C76   C     C_R   0.248785 0.545648 0.696251 -0.153581
C77   C     C_R   0.769562 0.545783 0.268284 -0.131200
C78   C     C_R   0.748785 0.045648 0.696251 -0.153582
C79   C     C_R   0.185001 0.140387 0.997374 0.071865
C80   C     C_R   0.269562 0.045783 0.268284 -0.131201
C81   C     C_R   0.493327 0.544785 0.262829 -0.095482
C82   C     C_R   0.450335 0.545172 0.696067 -0.096857
C83   C     C_R   0.993327 0.044785 0.262829 -0.095482
C84   C     C_R   0.950335 0.045172 0.696067 -0.096857
C85   C     C_R   0.244612 0.454657 0.696141 -0.113758
C86   C     C_R   0.769292 0.454515 0.261147 -0.118375
C87   C     C_R   0.744612 0.954657 0.696141 -0.113757
C88   C     C_R   0.269292 0.954515 0.261147 -0.118374
C89   C     C_R   0.313281 0.626901 0.904987 -0.133631
C90   C     C_R   0.462266 0.498708 0.288340 0.054650
C91   C     C_R   0.685406 0.629798 0.089161 -0.125818
C92   C     C_R   0.813281 0.126901 0.904987 -0.133631
C93   C     C_R   0.185406 0.129798 0.089161 -0.125818
C94   C     C_R   0.442133 0.348533 0.091246 -0.137952
C95   C     C_R   0.569117 0.354855 0.906092 -0.133032
C96   C     C_R   0.942134 0.848533 0.091246 -0.137952
C97   C     C_R   0.069118 0.854855 0.906092 -0.133032
C98   C     C_R   0.379659 0.316980 0.000105 0.063830
C99   C     C_R   0.637941 0.327155 0.997284 0.068516
C100  C     C_R   0.879659 0.816980 0.000105 0.063830
H1    H     H_    0.309195 0.335303 0.824065 0.089934
H2    H     H_    0.105986 0.638426 0.517115 0.192639
H3    H     H_    0.422057 0.095192 0.467226 0.205588
H4    H     H_    0.605986 0.138426 0.517115 0.192639
H5    H     H_    0.286116 0.735106 0.882178 0.132565
H6    H     H_    0.855496 0.674382 0.177473 0.112920
H7    H     H_    0.786115 0.235106 0.882177 0.132566
H8    H     H_    0.355496 0.174382 0.177473 0.112919
H9    H     H_    0.707505 0.315117 0.883962 0.130556
H10   H     H_    0.434130 0.254765 0.179298 0.110924
H11   H     H_    0.207506 0.815117 0.883962 0.130556
H12   H     H_    0.701673 0.337350 0.173653 0.097225
H13   H     H_    0.934130 0.754765 0.179298 0.110925
H14   H     H_    0.652541 0.233025 0.098328 0.149672
H15   H     H_    0.286702 0.244301 0.828110 0.140058
H16   H     H_    0.152541 0.733026 0.098328 0.149672
H17   H     H_    0.786702 0.744301 0.828110 0.140058
H18   H     H_    0.397609 0.587507 0.501777 0.119973
H19   H     H_    0.412350 0.587186 0.353406 0.131994
H20   H     H_    0.897609 0.087507 0.501776 0.119973
H21   H     H_    0.912350 0.087186 0.353406 0.131994
H22   H     H_    0.407294 0.410051 0.352060 0.109101
H23   H     H_    0.809195 0.835303 0.824065 0.089934
H24   H     H_    0.392822 0.410323 0.501729 0.108514
H25   H     H_    0.907294 0.910051 0.352060 0.109100
H26   H     H_    0.892822 0.910323 0.501730 0.108515
H27   H     H_    0.438697 0.649216 0.169653 0.103056
H28   H     H_    0.565253 0.632825 0.821451 0.135924
H29   H     H_    0.938697 0.149216 0.169653 0.103055
H30   H     H_    0.065253 0.132825 0.821451 0.135924
H31   H     H_    0.475488 0.410653 0.264479 0.093401
H32   H     H_    0.435736 0.411829 0.671887 0.082469
H33   H     H_    0.975488 0.910653 0.264479 0.093401
H34   H     H_    0.201673 0.837350 0.173653 0.097225
H35   H     H_    0.935736 0.911829 0.671887 0.082469
H36   H     H_    0.245212 0.586920 0.668125 0.099965
H37   H     H_    0.790799 0.587202 0.293061 0.097516
H38   H     H_    0.745212 0.086920 0.668125 0.099965
H39   H     H_    0.290799 0.087202 0.293062 0.097516
H40   H     H_    0.496026 0.586167 0.287931 0.092971
H41   H     H_    0.431681 0.586822 0.667870 0.088080
H42   H     H_    0.996026 0.086167 0.287931 0.092971
H43   H     H_    0.931681 0.086822 0.667870 0.088080
H44   H     H_    0.232766 0.412747 0.668206 0.085837
H45   H     H_    0.941710 0.637972 0.377010 0.188682
H46   H     H_    0.790256 0.412376 0.273050 0.093276
H47   H     H_    0.732766 0.912747 0.668206 0.085837
H48   H     H_    0.290257 0.912376 0.273051 0.093276
H49   H     H_    0.257812 0.634117 0.819449 0.102816
H50   H     H_    0.736370 0.644211 0.170887 0.084728
H51   H     H_    0.757812 0.134116 0.819449 0.102816
H52   H     H_    0.236370 0.144211 0.170887 0.084728
H53   H     H_    0.489521 0.334797 0.174961 0.085967
H54   H     H_    0.530481 0.342307 0.821140 0.099075
H55   H     H_    0.989521 0.834797 0.174961 0.085967
H56   H     H_    0.083404 0.596320 0.605252 0.207831
H57   H     H_    0.030482 0.842308 0.821140 0.099075
H58   H     H_    0.111616 0.415491 0.486178 0.127348
H59   H     H_    0.944480 0.415487 0.339751 0.129583
H60   H     H_    0.611616 0.915491 0.486178 0.127348
H61   H     H_    0.444480 0.915488 0.339751 0.129584
H62   H     H_    0.441710 0.137972 0.377011 0.188681
H63   H     H_    0.583404 0.096320 0.605253 0.207831
H64   H     H_    0.922057 0.595192 0.467225 0.205588
I1    I     I_    0.223319 0.614947 0.128972 -0.459224
I2    I     I_    0.684371 0.634882 0.756475 -0.468544
I3    I     I_    0.723319 0.114947 0.128972 -0.459224
I4    I     I_    0.184371 0.134882 0.756475 -0.468544
N1    N     N_R   0.394180 0.396910 0.943210 -0.039613
N2    N     N_R   0.474350 0.471570 0.793850 -0.039057
N3    N     N_R   0.025650 0.971570 0.206150 -0.042745
N4    N     N_R   0.974350 0.971570 0.793850 -0.039057
N5    N     N_R   0.319480 0.528420 0.793810 -0.037211
N6    N     N_R   0.680520 0.528420 0.206190 -0.041322
N7    N     N_R   0.819480 0.028420 0.793810 -0.037211
N8    N     N_R   0.180520 0.028420 0.206190 -0.041322
N9    N     N_R   0.525640 0.528390 0.206120 -0.043383
N10   N     N_R   0.474360 0.528390 0.793880 -0.040435
N11   N     N_R   0.025640 0.028390 0.206120 -0.043383
N12   N     N_R   0.605820 0.396910 0.056790 -0.038030
N13   N     N_R   0.974360 0.028390 0.793880 -0.040435
N14   N     N_R   0.319490 0.471590 0.793840 -0.039469
N15   N     N_R   0.680510 0.471590 0.206160 -0.042435
N16   N     N_R   0.819490 0.971590 0.793840 -0.039470
N17   N     N_R   0.180510 0.971590 0.206160 -0.042435
N18   N     N_R   0.394130 0.603080 0.943110 -0.045945
N19   N     N_R   0.605870 0.603080 0.056890 -0.043179
N20   N     N_R   0.894130 0.103080 0.943110 -0.045945
N21   N     N_R   0.105870 0.103080 0.056890 -0.043179
N22   N     N_R   0.450990 0.396900 0.056840 -0.038208
N23   N     N_R   0.894180 0.896910 0.943210 -0.039613
N24   N     N_R   0.549010 0.396900 0.943160 -0.038909
N25   N     N_R   0.950990 0.896900 0.056840 -0.038208
N26   N     N_R   0.049010 0.896900 0.943160 -0.038909
N27   N     N_R   0.105820 0.896910 0.056790 -0.038030
N28   N     N_R   0.450950 0.603070 0.056740 -0.045469
N29   N     N_R   0.549050 0.603070 0.943260 -0.049548
N30   N     N_R   0.950950 0.103070 0.056740 -0.045469
N31   N     N_R   0.049050 0.103070 0.943260 -0.049548
N32   N     N_R   0.525650 0.471570 0.206150 -0.042745
Ni1   Ni    Ni4+2 0.434860 0.434850 0.869700 0.213791
Ni2   Ni    Ni4+2 0.565140 0.434850 0.130300 0.218053
Ni3   Ni    Ni4+2 0.934860 0.934850 0.869700 0.213791
Ni4   Ni    Ni4+2 0.065140 0.934850 0.130300 0.218053
Ni5   Ni    Ni4+2 0.565130 0.565140 0.130240 0.222406
Ni6   Ni    Ni4+2 0.434870 0.565140 0.869760 0.211639
Ni7   Ni    Ni4+2 0.065130 0.065140 0.130240 0.222406
Ni8   Ni    Ni4+2 0.934870 0.065140 0.869760 0.211639

loop_
_geom_bond_atom_site_label_1
_geom_bond_atom_site_label_2
_ccdc_geom_bond_type
C81   H40   S    
C13   C99   A    
C77   N6    A    
C30   H7    S    
N14   Ni1   S    
C89   N18   A    
C41   H27   S    
C19   C20   A    
C37   C99   S    
C38   C98   S    
N23   N25   A    
C76   H36   S    
N8    N17   A    
C46   C89   A    
C51   C55   A    
C96   N25   A    
C15   C19   A    
C23   H45   S    
C29   C36   A    
C26   C27   S    
C85   N14   A    
C6    C85   A    
C87   H47   S    
N2    N10   A    
C60   C63   A    
N1    N22   A    
C31   C58   A    
N18   N28   A    
C84   N13   A    
C77   H37   S    
C79   C93   A    
C13   H12   S    
N12   Ni2   S    
C10   C15   A    
C9    C88   A    
C4    C65   S    
C75   H35   S    
C25   H2    S    
C7    C86   A    
N26   Ni3   S    
C44   H30   S    
C40   C49   A    
C74   H33   S    
C86   H46   S    
C27   H4    S    
N28   Ni5   S    
C35   H34   S    
C60   H19   S    
C31   H8    S    
C11   C23   S    
N3    Ni4   S    
C14   C18   A    
N2    Ni1   S    
C27   H63   S    
C6    C15   S    
C61   C66   A    
N20   Ni8   S    
C43   C68   A    
C49   C51   A    
C20   H59   S    
C74   N3    A    
C12   C17   A    
N6    Ni5   S    
C41   C46   A    
C31   C33   A    
C71   H26   S    
N5    Ni6   S    
N20   N30   A    
C43   N30   A    
C4    C74   A    
C35   N27   A    
C7    C77   A    
N21   N31   A    
C48   C50   A    
N26   N27   A    
C73   H32   S    
C28   C34   A    
C59   C60   A    
N16   Ni3   S    
C24   C100  A    
C21   C22   A    
C61   H20   S    
C8    C78   A    
C34   H11   S    
C19   H58   S    
N3    N11   A    
N29   Ni6   S    
N23   Ni3   S    
N7    Ni8   S    
C50   I1    S    
C82   H41   S    
C36   H13   S    
C78   H38   S    
C85   H44   S    
C83   H42   S    
C2    C64   S    
N11   Ni7   S    
C42   N29   A    
C49   H17   S    
C89   H49   S    
C32   C37   A    
C32   H9    S    
N18   Ni6   S    
C12   C27   S    
C34   C39   A    
C43   H29   S    
N13   Ni8   S    
C80   N8    A    
N12   N24   A    
C87   N16   A    
C22   H61   S    
C28   C54   A    
N22   Ni2   S    
N27   Ni4   S    
C29   C55   A    
C45   C52   A    
C45   H14   S    
C30   C56   A    
C26   H62   S    
C24   H23   S    
C42   C57   A    
C67   C69   A    
C9    C80   A    
C97   H57   S    
C97   N26   A    
C5    C75   A    
N4    Ni3   S    
C47   H15   S    
C94   N22   A    
C63   C67   A    
C26   H3    S    
C72   N32   A    
C65   C70   A    
C72   C90   A    
C11   C16   A    
C3    C97   A    
C53   I4    S    
C66   C71   A    
C3    C35   A    
C28   H5    S    
N24   Ni1   S    
C46   C54   S    
C92   H51   S    
C88   H48   S    
C16   C20   A    
C64   C69   A    
C14   C26   S    
N25   Ni4   S    
C38   C47   A    
C70   C71   A    
C2    C73   A    
C95   N24   A    
C81   C90   A    
C58   C79   S    
C70   H25   S    
C88   N17   A    
N19   N29   A    
N5    N14   A    
C59   H18   S    
C93   N21   A    
C55   C57   S    
C78   N7    A    
C21   H60   S    
C29   H6    S    
C2    C82   A    
C37   C45   A    
C80   H39   S    
C67   H22   S    
C1    H1    S    
N1    Ni1   S    
C50   C54   A    
C36   C40   A    
N8    Ni7   S    
C72   H31   S    
C23   H64   S    
C84   H43   S    
C5    C84   A    
C91   N19   A    
C76   N5    A    
C57   C91   A    
C62   C65   A    
N30   Ni7   S    
C18   C22   A    
N15   Ni2   S    
N9    N32   A    
C44   C79   A    
C7    C16   S    
C8    C17   S    
C12   C14   A    
C5    C66   S    
C93   H52   S    
C1    C98   A    
C40   C100  S    
C91   H50   S    
C53   C58   A    
C92   N20   A    
C6    C76   A    
C42   H28   S    
C41   N28   A    
C13   N12   A    
C96   C100  A    
C83   N11   A    
C33   C38   A    
C69   H24   S    
C48   H16   S    
C95   H54   S    
C8    C87   A    
C81   N9    A    
C52   I3    S    
C56   C68   S    
C30   C32   A    
C86   N15   A    
C4    C83   A    
N21   Ni7   S    
C94   H53   S    
C47   C53   A    
N10   Ni6   S    
C63   C90   S    
C1    N1    A    
N31   Ni8   S    
C68   C92   A    
N9    Ni5   S    
N19   Ni5   S    
C24   N23   A    
C95   C99   A    
C23   C25   S    
C61   C62   A    
C17   C21   A    
C10   C25   S    
C10   C11   A    
C3    C39   S    
C96   H55   S    
C59   C64   A    
C9    C18   S    
C44   N31   A    
N32   Ni2   S    
N17   Ni4   S    
C75   N4    A    
C94   C98   A    
C39   C48   A    
C51   I2    S    
C33   H10   S    
C73   N2    A    
N4    N13   A    
N6    N15   A    
C82   N10   A    
C62   H21   S    
C52   C56   A    
N7    N16   A    
C25   H56   S    
