data_mof_unit_15557.cif
_audit_creation_date              2012-12-11T14:08:30-0500
_audit_creation_method            fapswitch 2.2
_symmetry_space_group_name_H-M    P1
_symmetry_Int_Tables_number       1
_space_group_crystal_system       triclinic
_cell_length_a                    10.951099
_cell_length_b                    10.980955
_cell_length_c                    18.736602
_cell_angle_alpha                 90.72507
_cell_angle_beta                  89.83459
_cell_angle_gamma                 61.094792
_cell_volume                      1972.18502593

loop_
_atom_site_label
_atom_site_type_symbol
_atom_type_description
_atom_site_fract_x
_atom_site_fract_y
_atom_site_fract_z
_atom_type_partial_charge
C1    C     C_R   0.228402 0.648240 0.605073 0.538774
C2    C     C_2   0.747187 0.197799 0.716339 -0.147713
C3    C     C_2   0.152109 0.669602 0.671137 -0.092679
C4    C     C_R   0.655316 0.622354 0.600882 0.535895
C5    C     C_2   0.156249 0.693455 0.831066 0.131763
C6    C     C_2   0.179735 0.578355 0.794748 -0.152855
C7    C     C_2   0.201544 0.563743 0.717277 -0.158008
C8    C     C_2   0.661331 0.649315 0.322854 -0.109160
C9    C     C_2   0.630663 0.670338 0.160781 0.015024
C10   C     C_2   0.703552 0.558137 0.202290 0.105012
C11   C     C_2   0.658319 0.559073 0.275195 -0.126806
C12   C     C_3   0.679686 0.564671 0.803277 -0.104536
C13   C     C_2   0.631263 0.200661 0.317843 -0.113525
C14   C     C_2   0.637976 0.203940 0.163498 -0.116003
C15   C     C_2   0.522276 0.237151 0.200391 -0.168591
C16   C     C_R   0.619776 0.238155 0.605281 0.561346
C17   C     C_2   0.517450 0.265316 0.276378 -0.168865
C18   C     C_2   0.125676 0.676358 0.343430 -0.124809
C19   C     C_2   0.018326 0.746988 0.196821 -0.100849
C20   C     C_2   0.056754 0.821060 0.241552 -0.032660
C21   C     C_2   0.053234 0.804525 0.318570 -0.167546
C22   C     C_R   0.700953 0.109508 0.901306 0.541242
C23   C     C_3   0.721820 0.681614 0.809544 0.065923
C24   C     C_R   0.750108 0.705074 0.883410 0.549547
C25   C     C_R   0.111945 0.711722 0.905363 0.551716
C26   C     C_R   0.673573 0.114106 0.101355 0.540959
C27   C     C_R   0.693555 0.690337 0.095797 0.551976
C28   C     C_R   0.216396 0.649829 0.404140 0.549683
C29   C     C_R   0.021228 0.751525 0.118588 0.580801
C30   C     C_R   0.645317 0.623920 0.395832 0.537336
C31   C     C_R   0.613276 0.234817 0.393025 0.549897
C32   C     C_3   0.607478 0.818835 0.777607 -0.228446
C33   C     C_3   0.588333 0.801284 0.697936 -0.250154
C34   C     C_3   0.680110 0.648631 0.675416 0.049324
C35   C     C_3   0.857406 0.636432 0.765046 -0.255769
C36   C     C_3   0.004168 0.177886 0.776586 -0.343635
C37   C     C_3   0.517912 0.190870 0.721091 -0.246760
C38   C     C_3   0.410442 0.163438 0.680473 -0.276484
C39   C     C_3   0.311464 0.147426 0.731566 -0.495789
C40   C     C_3   0.256597 0.833916 0.786973 -0.309463
C41   C     C_3   0.948150 0.405565 0.229635 -0.285427
C42   C     C_3   0.489291 0.790229 0.184580 -0.271305
C43   C     C_3   0.500420 0.918574 0.210855 -0.276619
C44   C     C_3   0.413426 0.986827 0.278280 -0.466335
C45   C     C_3   0.834934 0.610560 0.686563 -0.243868
C46   C     C_3   0.139083 0.893209 0.219036 -0.210942
C47   C     C_3   0.046057 0.041978 0.193471 -0.273982
C48   C     C_3   0.115432 0.081831 0.133780 -0.424435
C49   C     C_3   0.560574 0.579352 0.854871 -0.266666
C50   C     C_3   0.609951 0.510363 0.927971 -0.288822
C51   C     C_3   0.492866 0.501333 0.968004 -0.445139
C52   C     C_3   0.645942 0.554252 0.723715 -0.215167
C53   C     C_2   0.639243 0.196331 0.681149 -0.036788
C54   C     C_2   0.675359 0.206770 0.843566 -0.111115
C55   C     C_2   0.775261 0.186480 0.795442 0.106307
Cr1   Cr    Cr6+3 0.393010 0.398050 0.501480 0.995448
Cr2   Cr    Cr6+3 0.398820 0.707980 0.501630 1.004169
Cr3   Cr    Cr6+3 0.708140 0.393940 0.496850 1.003597
Cr4   Cr    Cr6+3 0.937950 0.938450 0.008940 0.975494
Cr5   Cr    Cr6+3 0.626180 0.937030 0.994750 0.976304
Cr6   Cr    Cr6+3 0.937790 0.625760 0.001410 0.995921
H1    H     H_    0.639551 0.899174 0.785217 0.125161
H2    H     H_    0.069722 0.773453 0.684009 0.137608
H3    H     H_    0.641081 0.473822 0.291586 0.141776
H4    H     H_    0.689911 0.727785 0.308987 0.087142
H5    H     H_    0.436257 0.227735 0.177390 0.145971
H6    H     H_    0.414862 0.332674 0.299473 0.155902
H7    H     H_    0.718124 0.223486 0.186012 0.082797
H8    H     H_    0.734963 0.132598 0.296368 0.088766
H9    H     H_    0.476329 0.837294 0.687142 0.139894
H10   H     H_    0.038676 0.892372 0.352010 0.147183
H11   H     H_    0.973482 0.686852 0.219267 0.074033
H12   H     H_    0.710194 0.445285 0.705591 0.128770
H13   H     H_    0.143849 0.586631 0.310592 0.095671
H14   H     H_    0.622759 0.864616 0.666745 0.115989
H15   H     H_    0.888447 0.719084 0.768061 0.123303
H16   H     H_    0.863617 0.673783 0.651279 0.116508
H17   H     H_    0.772912 0.464626 0.816205 0.157831
H18   H     H_    0.536117 0.579121 0.715787 0.113127
H19   H     H_    0.908849 0.191190 0.873681 0.264821
H20   H     H_    0.099757 0.152450 0.807219 0.143690
H21   H     H_    0.957306 0.287400 0.759368 0.127224
H22   H     H_    0.033796 0.107720 0.729198 0.154572
H23   H     H_    0.944460 0.539556 0.786710 0.129595
H24   H     H_    0.367724 0.072530 0.773967 0.154318
H25   H     H_    0.240347 0.249492 0.757280 0.142318
H26   H     H_    0.248815 0.111010 0.700636 0.133509
H27   H     H_    0.339872 0.253044 0.647677 0.197621
H28   H     H_    0.462500 0.071766 0.644533 0.168996
H29   H     H_    0.563033 0.110417 0.761767 0.151043
H30   H     H_    0.454501 0.293470 0.746856 0.125861
H31   H     H_    0.046459 0.903638 0.807972 0.302765
H32   H     H_    0.237475 0.911390 0.745429 0.137648
H33   H     H_    0.346117 0.736556 0.767921 0.154023
H34   H     H_    0.905704 0.499137 0.672716 0.137688
H35   H     H_    0.277916 0.871138 0.838338 0.145297
H36   H     H_    0.825804 0.361696 0.159711 0.237539
H37   H     H_    0.048815 0.338169 0.202125 0.138733
H38   H     H_    0.951382 0.498899 0.250390 0.149593
H39   H     H_    0.935484 0.349085 0.275343 0.138513
H40   H     H_    0.431852 0.908902 0.319765 0.175395
H41   H     H_    0.442186 0.063165 0.300780 0.162754
H42   H     H_    0.300851 0.043167 0.265986 0.141617
H43   H     H_    0.610551 0.890808 0.221572 0.162300
H44   H     H_    0.463848 0.996866 0.168082 0.188878
H45   H     H_    0.823518 0.206622 0.683229 0.138178
H46   H     H_    0.418008 0.820323 0.138258 0.130493
H47   H     H_    0.440241 0.755993 0.225871 0.141399
H48   H     H_    0.204474 0.092284 0.154538 0.129945
H49   H     H_    0.153748 0.003252 0.089815 0.178990
H50   H     H_    0.038962 0.182475 0.110756 0.137941
H51   H     H_    0.946766 0.053001 0.173942 0.200523
H52   H     H_    0.020318 0.115450 0.239317 0.125365
H53   H     H_    0.200505 0.898808 0.264808 0.130017
H54   H     H_    0.219110 0.827135 0.179167 0.169721
H55   H     H_    0.403602 0.607198 0.977599 0.166947
H56   H     H_    0.567785 0.278457 0.834660 0.065976
H57   H     H_    0.456297 0.438366 0.937127 0.152911
H58   H     H_    0.531656 0.451420 0.020355 0.148918
H59   H     H_    0.700172 0.404420 0.921611 0.161420
H60   H     H_    0.641900 0.572724 0.962108 0.214277
H61   H     H_    0.486595 0.689899 0.865686 0.154947
H62   H     H_    0.502687 0.531072 0.829118 0.141595
H63   H     H_    0.191800 0.487649 0.823231 0.103933
H64   H     H_    0.274742 0.461021 0.698603 0.138330
H65   H     H_    0.506989 0.854247 0.806083 0.120735
N1    N     N_2   0.909337 0.157287 0.822008 -0.507853
N2    N     N_2   0.136535 0.814586 0.794430 -0.524740
N3    N     N_2   0.834331 0.444787 0.180005 -0.478929
O1    O     O_R   0.507110 0.256280 0.580300 -0.531913
O2    O     O_R   0.837080 0.593860 0.915300 -0.545478
O3    O     O_R   0.064770 0.636080 0.932550 -0.519091
O4    O     O_R   0.280830 0.527190 0.577940 -0.514385
O5    O     O_R   0.068250 0.829200 0.092940 -0.531016
O6    O     O_R   0.799650 0.057040 0.080330 -0.535216
O7    O     O_R   0.586130 0.079760 0.077080 -0.522771
O8    O     O_R   0.627700 0.809630 0.066580 -0.514650
O9    O     O_R   0.816140 0.597180 0.075920 -0.487515
O10   O     O_R   0.045360 0.639170 0.081440 -0.491676
O11   O     O_3   0.833980 0.833750 0.001700 -0.276985
O12   O     O_R   0.524640 0.695370 0.425100 -0.499281
O13   O     O_R   0.261360 0.738990 0.584270 -0.515070
O14   O     O_R   0.532590 0.694780 0.574370 -0.506992
O15   O     O_R   0.744470 0.503750 0.577000 -0.532561
O16   O     O_R   0.698520 0.277230 0.571620 -0.508454
O17   O     O_R   0.498530 0.256920 0.419280 -0.518864
O18   O     O_R   0.272880 0.527780 0.428680 -0.508740
O19   O     O_R   0.252780 0.739630 0.423250 -0.515982
O20   O     O_R   0.735890 0.504390 0.415980 -0.514372
O21   O     O_R   0.690560 0.277820 0.422350 -0.498960
O22   O     O_3   0.499990 0.499990 0.499980 -0.247748
O23   O     O_R   0.089190 0.825870 0.932320 -0.512113
O24   O     O_R   0.819070 0.053960 0.931440 -0.493207
O25   O     O_R   0.607070 0.076440 0.916460 -0.530856
O26   O     O_R   0.647110 0.806550 0.917690 -0.516631

loop_
_geom_bond_atom_site_label_1
_geom_bond_atom_site_label_2
_ccdc_geom_bond_type
C48   H49   S    
C18   C21   D    
C54   C55   D    
C19   C20   D    
C39   H26   S    
C40   H32   S    
C4    O14   A    
C12   C49   S    
Cr4   O24   S    
Cr3   O16   S    
C22   C54   S    
Cr4   O23   S    
C38   H28   S    
C9    C42   S    
C27   O8    A    
C30   O12   A    
C37   H29   S    
C21   H10   S    
C25   O23   A    
C50   H59   S    
C3    C7    D    
C2    C55   S    
C38   C39   S    
Cr6   O9    S    
C36   H22   S    
C47   H51   S    
C40   N2    S    
Cr1   O1    S    
C51   H57   S    
C47   H52   S    
C43   H44   S    
C32   H65   S    
C16   C53   S    
C26   O6    A    
Cr6   O3    S    
C43   H43   S    
C31   O17   A    
C33   H14   S    
C36   H21   S    
C12   H17   S    
C51   H58   S    
C23   C24   S    
C41   H38   S    
C1    O13   A    
C6    H63   S    
C52   H18   S    
C16   O1    A    
C9    C10   D    
Cr5   O7    S    
C24   O26   A    
Cr5   O8    S    
C37   C53   S    
C29   O5    A    
C8    H4    S    
C18   H13   S    
C19   H11   S    
C50   H60   S    
C40   H35   S    
C1    O4    A    
H31   N2    S    
C12   C52   S    
C44   H42   S    
Cr1   O4    S    
C29   O10   A    
C4    C34   S    
C35   H15   S    
C17   H6    S    
C27   O9    A    
C28   O19   A    
C46   H53   S    
C18   C28   S    
C11   H3    S    
C31   O21   A    
Cr2   O14   S    
Cr6   O10   S    
C30   O20   A    
C15   H5    S    
C2    H45   S    
C14   C26   S    
C38   H27   S    
C16   O16   A    
C1    C3    S    
C43   C44   S    
C37   C38   S    
C47   C48   S    
C12   C23   S    
C36   H20   S    
C44   H40   S    
C50   C51   S    
C41   H39   S    
C34   C45   S    
C7    H64   S    
Cr1   O22   S    
C33   H9    S    
Cr5   O11   S    
C5    C25   S    
C46   H54   S    
C55   N1    S    
C52   H12   S    
C23   C35   S    
C42   H46   S    
Cr2   O19   S    
C36   N1    S    
C42   C43   S    
C39   H24   S    
C45   H34   S    
Cr3   O22   S    
C9    C27   S    
C22   O25   A    
C15   C17   S    
C46   C47   S    
C28   O18   A    
C44   H41   S    
Cr2   O13   S    
C14   C15   D    
C13   C31   S    
C40   H33   S    
C2    C53   D    
C4    O15   A    
C35   H23   S    
Cr3   O20   S    
Cr6   O11   S    
C6    C7    S    
H19   N1    S    
C3    H2    S    
Cr4   O5    S    
C34   C52   S    
C51   H55   S    
Cr2   O12   S    
C8    C30   S    
C23   C32   S    
Cr1   O18   S    
Cr5   O26   S    
C32   H1    S    
C19   C29   S    
C32   C33   S    
C41   N3    S    
C24   O2    A    
C5    C6    D    
C13   H8    S    
Cr4   O11   S    
C8    C11   D    
C49   H61   S    
Cr2   O22   S    
C5    N2    S    
Cr4   O6    S    
C33   C34   S    
C48   H48   S    
Cr1   O17   S    
Cr5   O25   S    
C10   N3    S    
C26   O7    A    
C10   C11   S    
Cr6   O2    S    
H36   N3    S    
C13   C17   D    
Cr3   O15   S    
C48   H50   S    
C20   C21   S    
C49   H62   S    
C49   C50   S    
C54   H56   S    
C14   H7    S    
C41   H37   S    
C45   H16   S    
C39   H25   S    
C25   O3    A    
C42   H47   S    
C20   C46   S    
Cr3   O21   S    
C37   H30   S    
C22   O24   A    
C35   C45   S    
