data_mof_unit_65003.cif
_audit_creation_date              2013-03-05T15:59:28-0500
_audit_creation_method            fapswitch 2.2
_symmetry_space_group_name_H-M    P1
_symmetry_Int_Tables_number       1
_space_group_crystal_system       triclinic
_cell_length_a                    21.481594
_cell_length_b                    29.411322
_cell_length_c                    29.408625
_cell_angle_alpha                 90.019198
_cell_angle_beta                  90.161594
_cell_angle_gamma                 90.061444
_cell_volume                      18580.3447485

loop_
_atom_site_label
_atom_site_type_symbol
_atom_site_description
_atom_site_fract_x
_atom_site_fract_y
_atom_site_fract_z
_atom_type_partial_charge
O1    O     O_R   0.000000 0.964120 0.061970 -0.572678
O2    O     O_R   0.000000 0.964120 0.938030 -0.549436
O3    O     O_R   0.500000 0.464120 0.561970 -0.572626
O4    O     O_R   0.500000 0.464120 0.438030 -0.540348
O5    O     O_R   0.000000 0.035860 0.061950 -0.570362
O6    O     O_R   0.000000 0.035860 0.938050 -0.570687
O7    O     O_R   0.500000 0.535860 0.561950 -0.570400
O8    O     O_R   0.500000 0.535860 0.438050 -0.578024
C1    C     C_R   0.999956 0.000002 0.085537 0.811323
C2    C     C_R   0.000002 0.999988 0.914465 0.865283
C3    C     C_R   0.499964 0.500002 0.585537 0.810607
C4    C     C_R   0.499999 0.499987 0.414465 0.862792
O9    O     O_R   0.091580 0.964120 0.000000 -0.562921
O10   O     O_R   0.908420 0.964120 0.000000 -0.584647
O11   O     O_R   0.591580 0.464120 0.500000 -0.562967
O12   O     O_R   0.408420 0.464120 0.500000 -0.574955
O13   O     O_R   0.091590 0.035860 0.000000 -0.595700
O14   O     O_R   0.908410 0.035860 0.000000 -0.583259
O15   O     O_R   0.591590 0.535860 0.500000 -0.595656
O16   O     O_R   0.408410 0.535860 0.500000 -0.590395
C5    C     C_R   0.121271 0.000048 0.000092 0.889404
C6    C     C_R   0.878735 0.999962 0.000023 0.896559
C7    C     C_R   0.621271 0.500048 0.500092 0.889244
C8    C     C_R   0.378725 0.499993 0.500189 0.893975
Cu1   Cu    Cu3+1 0.000000 0.957510 0.000000 0.984681
Cu2   Cu    Cu3+1 0.500000 0.457510 0.500000 0.995596
Cu3   Cu    Cu3+1 0.000000 0.042470 0.000000 0.958364
Cu4   Cu    Cu3+1 0.500000 0.542470 0.500000 0.950438
C9    C     C_3   0.229296 0.984004 0.040299 -0.287235
C10   C     C_3   0.771429 0.036761 0.023766 -0.237208
C11   C     C_3   0.771653 0.960917 0.020521 -0.243920
C12   C     C_3   0.228009 0.044144 0.994206 -0.230347
C13   C     C_3   0.729297 0.483975 0.540287 -0.287461
C14   C     C_3   0.271887 0.543381 0.509006 -0.242164
C15   C     C_3   0.271039 0.471386 0.533079 -0.236848
C16   C     C_3   0.728009 0.544149 0.494239 -0.230369
C17   C     C_3   0.269692 0.026834 0.033245 0.254531
C18   C     C_3   0.730950 0.997849 0.042671 0.255681
C19   C     C_3   0.769691 0.526810 0.533265 0.254930
C20   C     C_3   0.230816 0.514129 0.540397 0.255173
H1    H     H_    0.211905 0.970614 0.073189 0.149471
H2    H     H_    0.789392 0.066725 0.042663 0.154671
H3    H     H_    0.789771 0.929834 0.037350 0.154441
H4    H     H_    0.209617 0.079160 0.990110 0.157317
H5    H     H_    0.711906 0.470560 0.573167 0.149633
H6    H     H_    0.290118 0.577875 0.516689 0.157908
H7    H     H_    0.288767 0.447799 0.559561 0.149617
H8    H     H_    0.709616 0.579168 0.490169 0.157006
C21   C     C_3   0.311209 0.001291 0.999608 -0.163827
C22   C     C_3   0.688915 0.999527 0.000486 -0.202131
C23   C     C_3   0.811209 0.501293 0.499609 -0.163740
C24   C     C_3   0.188878 0.501029 0.500245 -0.202013
C25   C     C_3   0.270326 0.959000 0.005305 0.205876
C26   C     C_3   0.729986 0.037268 0.980786 0.201671
C27   C     C_3   0.730197 0.963827 0.977658 0.199680
C28   C     C_3   0.269136 0.017325 0.960563 0.190981
C29   C     C_3   0.770327 0.458998 0.505274 0.205408
C30   C     C_3   0.230548 0.528894 0.468539 0.196003
C31   C     C_3   0.229622 0.459163 0.491806 0.205514
C32   C     C_3   0.769136 0.517356 0.460576 0.191108
C33   C     C_3   0.229049 0.974305 0.965317 0.246138
C34   C     C_3   0.770616 0.001594 0.956810 0.248387
C35   C     C_3   0.729050 0.474332 0.465298 0.246099
C36   C     C_3   0.270632 0.486670 0.459016 0.247277
C37   C     C_3   0.188699 0.000360 0.999922 -0.164871
C38   C     C_3   0.811317 0.999869 0.000097 -0.166565
C39   C     C_3   0.688699 0.500361 0.499922 -0.165114
C40   C     C_3   0.311284 0.500149 0.500217 -0.167302
C41   C     C_1   0.999867 0.000021 0.136669 -0.206467
C42   C     C_1   0.000042 0.999983 0.863337 -0.152949
C43   C     C_1   0.499882 0.500025 0.636669 -0.206424
C44   C     C_1   0.500043 0.499978 0.363337 -0.156980
C45   C     C_1   0.999801 0.000024 0.179049 -0.001172
C46   C     C_1   0.000084 0.999981 0.820958 0.032462
C47   C     C_1   0.499820 0.500030 0.679049 -0.001253
C48   C     C_1   0.500088 0.499973 0.320958 0.029465
C49   C     C_1   0.999748 0.000020 0.229300 0.004540
C50   C     C_1   0.000140 0.999982 0.770707 0.022188
C51   C     C_1   0.499766 0.500027 0.729300 0.004519
C52   C     C_1   0.500147 0.499973 0.270707 0.020823
C53   C     C_1   0.999728 0.000013 0.271682 0.005084
C54   C     C_1   0.000185 0.999983 0.728325 0.015427
C55   C     C_1   0.499742 0.500021 0.771682 0.005068
C56   C     C_1   0.500190 0.499975 0.228324 0.014734
C57   C     C_1   0.999734 0.000005 0.321935 0.004676
C58   C     C_1   0.000218 0.999986 0.678070 0.010384
C59   C     C_1   0.499742 0.500010 0.821935 0.004582
C60   C     C_1   0.500221 0.499980 0.178069 0.009990
C61   C     C_1   0.999780 0.999998 0.364318 -0.184499
C62   C     C_1   0.000202 0.999988 0.635686 -0.181296
C63   C     C_1   0.499783 0.500001 0.864318 -0.184661
C64   C     C_1   0.500204 0.499985 0.135685 -0.181563
O17   O     O_R   0.500000 0.061920 0.964120 -0.559317
O18   O     O_R   0.500000 0.061920 0.035880 -0.564070
O19   O     O_R   0.000000 0.561920 0.464120 -0.561735
O20   O     O_R   0.000000 0.561920 0.535880 -0.569927
C65   C     C_R   0.500028 0.085496 0.000008 0.808488
C66   C     C_R   0.999979 0.585496 0.500009 0.812859
O21   O     O_R   0.408440 0.999940 0.964130 -0.581973
O22   O     O_R   0.591560 0.999940 0.035870 -0.580661
O23   O     O_R   0.591560 0.999940 0.964130 -0.573028
O24   O     O_R   0.408440 0.999940 0.035870 -0.568901
O25   O     O_R   0.908440 0.499940 0.464130 -0.582312
O26   O     O_R   0.091560 0.499940 0.535870 -0.578126
O27   O     O_R   0.091560 0.499940 0.464130 -0.574955
O28   O     O_R   0.908440 0.499940 0.535870 -0.568464
C67   C     C_R   0.378765 0.000950 0.999892 0.852415
C68   C     C_R   0.621292 0.999539 0.000125 0.848828
C69   C     C_R   0.878765 0.500953 0.499892 0.852549
C70   C     C_R   0.121267 0.501096 0.500074 0.848047
Cu5   Cu    Cu3+1 0.500000 0.999950 0.957510 0.986416
Cu6   Cu    Cu3+1 0.500000 0.999950 0.042490 0.969733
Cu7   Cu    Cu3+1 0.000000 0.499950 0.457510 0.985284
Cu8   Cu    Cu3+1 0.000000 0.499950 0.542490 0.970666
O29   O     O_R   0.500000 0.937960 0.964120 -0.559780
O30   O     O_R   0.500000 0.937960 0.035880 -0.574863
O31   O     O_R   0.000000 0.437960 0.464120 -0.553642
O32   O     O_R   0.000000 0.437960 0.535880 -0.572165
C71   C     C_R   0.499953 0.914391 0.999993 0.825884
C72   C     C_R   0.000003 0.414392 0.499994 0.820629
O33   O     O_R   0.053020 0.061970 0.500000 -0.556588
O34   O     O_R   0.946980 0.061970 0.500000 -0.555468
O35   O     O_R   0.553020 0.561970 0.000000 -0.556836
O36   O     O_R   0.446980 0.561970 0.000000 -0.555907
C73   C     C_R   0.000028 0.084520 0.500000 0.795571
C74   C     C_R   0.500027 0.584520 0.999999 0.795131
O37   O     O_R   0.053020 0.999990 0.438010 -0.556496
O38   O     O_R   0.946980 0.999990 0.561990 -0.554890
O39   O     O_R   0.946980 0.999990 0.438010 -0.556581
O40   O     O_R   0.053020 0.999990 0.561990 -0.556304
O41   O     O_R   0.553020 0.499990 0.938010 -0.556618
O42   O     O_R   0.446980 0.499990 0.061990 -0.555175
O43   O     O_R   0.446980 0.499990 0.938010 -0.556521
O44   O     O_R   0.553020 0.499990 0.061990 -0.556176
C75   C     C_R   0.999924 0.999991 0.415457 0.795210
C76   C     C_R   0.000073 0.999990 0.584544 0.795638
C77   C     C_R   0.499925 0.499991 0.915457 0.795221
C78   C     C_R   0.500074 0.499989 0.084544 0.795744
Cu9   Cu    Cu3+1 0.062770 0.999990 0.500000 0.970564
Cu10  Cu    Cu3+1 0.937230 0.999990 0.500000 0.972402
Cu11  Cu    Cu3+1 0.562770 0.499990 0.000000 0.970239
Cu12  Cu    Cu3+1 0.437230 0.499990 0.000000 0.971896
O45   O     O_R   0.053000 0.938010 0.500000 -0.556288
O46   O     O_R   0.947000 0.938010 0.500000 -0.556527
O47   O     O_R   0.553000 0.438010 0.000000 -0.556126
O48   O     O_R   0.447000 0.438010 0.000000 -0.556182
C79   C     C_R   0.999969 0.915448 0.500003 0.795345
C80   C     C_R   0.499971 0.415448 0.000002 0.795898
C81   C     C_1   0.499955 0.136628 0.000027 -0.204461
C82   C     C_1   0.999882 0.636629 0.500032 -0.200557
C83   C     C_1   0.499911 0.179009 0.000035 0.005571
C84   C     C_1   0.999830 0.679011 0.500043 0.004479
C85   C     C_1   0.499886 0.229266 0.000035 0.006696
C86   C     C_1   0.999814 0.729268 0.500044 0.005731
C87   C     C_1   0.999827 0.771654 0.500037 0.005600
C88   C     C_1   0.499882 0.271652 0.000029 0.006549
C89   C     C_1   0.999862 0.821915 0.500025 0.005052
C90   C     C_1   0.499891 0.321913 0.000019 0.006098
C91   C     C_1   0.999903 0.864301 0.500014 -0.184349
C92   C     C_1   0.499914 0.364300 0.000011 -0.183522
C93   C     C_1   0.499948 0.863270 0.999980 -0.190090
C94   C     C_1   0.000027 0.363272 0.499984 -0.193977
C95   C     C_1   0.499957 0.820897 0.999977 0.008876
C96   C     C_1   0.000048 0.320899 0.499983 0.010423
C97   C     C_1   0.499987 0.770653 0.999979 0.008283
C98   C     C_1   0.000070 0.270655 0.499985 0.009597
C99   C     C_1   0.000083 0.228278 0.499988 0.008440
C100  C     C_1   0.500020 0.728276 0.999983 0.007134
C101  C     C_1   0.000090 0.178031 0.499993 0.006959
C102  C     C_1   0.500056 0.678030 0.999989 0.005572
C103  C     C_1   0.000079 0.135653 0.499996 -0.182962
C104  C     C_1   0.500067 0.635652 0.999994 -0.184147
N1    N     N_2   0.292235 0.054655 0.070431 -0.410526
H9    H     H_    0.259295 0.059497 0.095384 0.251473
C105  C     C_3   0.322812 0.096416 0.057193 -0.639781
H10   H     H_    0.343949 0.112639 0.087634 0.227772
H11   H     H_    0.288577 0.120326 0.042011 0.210737
H12   H     H_    0.360393 0.089604 0.032297 0.225200
N2    N     N_2   0.708088 0.995383 0.088845 -0.400365
H13   H     H_    0.678116 0.968456 0.093840 0.261973
C106  C     C_3   0.755602 0.998420 0.123612 -0.675557
H14   H     H_    0.733441 0.997789 0.157666 0.230225
H15   H     H_    0.781904 0.030773 0.120333 0.233537
H16   H     H_    0.788192 0.969223 0.120967 0.216708
N3    N     N_2   0.792234 0.554604 0.570472 -0.410256
H17   H     H_    0.759295 0.559423 0.595431 0.251204
C107  C     C_3   0.822803 0.596378 0.557265 -0.642126
H18   H     H_    0.843944 0.612577 0.587718 0.227121
H19   H     H_    0.788563 0.620298 0.542106 0.210604
H20   H     H_    0.860380 0.589588 0.532360 0.225187
N4    N     N_2   0.207534 0.529282 0.583953 -0.400461
H21   H     H_    0.176751 0.556008 0.581112 0.256625
C108  C     C_3   0.254823 0.536869 0.618181 -0.670173
H22   H     H_    0.232349 0.546532 0.650727 0.229860
H23   H     H_    0.286514 0.564771 0.607535 0.217938
H24   H     H_    0.282159 0.505359 0.623973 0.231705
N5    N     N_2   0.295439 0.913713 0.011229 -0.411365
H25   H     H_    0.333712 0.912945 0.032443 0.245210
C109  C     C_3   0.250160 0.879070 0.022242 -0.599783
H26   H     H_    0.272961 0.845218 0.021782 0.222315
H27   H     H_    0.211715 0.878808 0.996971 0.268582
H28   H     H_    0.230808 0.885107 0.056711 0.204095
N6    N     N_2   0.705004 0.077863 0.959745 -0.398259
H29   H     H_    0.667041 0.090765 0.976790 0.241584
C110  C     C_3   0.750463 0.112425 0.948873 -0.603220
H30   H     H_    0.727699 0.139968 0.929117 0.224169
H31   H     H_    0.788593 0.098033 0.927982 0.265808
H32   H     H_    0.770236 0.127199 0.980555 0.202976
N7    N     N_2   0.705197 0.925252 0.953053 -0.423808
H33   H     H_    0.677276 0.934575 0.926063 0.278075
C111  C     C_3   0.749753 0.890295 0.941690 -0.618311
H34   H     H_    0.725532 0.861908 0.924095 0.222418
H35   H     H_    0.771764 0.876574 0.973002 0.224342
H36   H     H_    0.786229 0.904050 0.918812 0.256115
N8    N     N_2   0.292662 0.034851 0.917931 -0.407479
H37   H     H_    0.318960 0.011422 0.900384 0.283045
C112  C     C_3   0.247305 0.057669 0.889638 -0.633850
H38   H     H_    0.270201 0.070156 0.858223 0.225300
H39   H     H_    0.227558 0.087419 0.907788 0.223545
H40   H     H_    0.209247 0.033955 0.879958 0.249441
N9    N     N_2   0.795441 0.413706 0.511165 -0.411305
H41   H     H_    0.833714 0.412923 0.532378 0.245598
C113  C     C_3   0.750163 0.379055 0.522152 -0.597386
H42   H     H_    0.772965 0.345203 0.521667 0.222814
H43   H     H_    0.711718 0.378811 0.496881 0.268545
H44   H     H_    0.730812 0.385066 0.556626 0.204141
N10   N     N_2   0.206279 0.559266 0.434071 -0.416262
H45   H     H_    0.178976 0.542860 0.410295 0.282000
C114  C     C_3   0.251326 0.589768 0.414071 -0.628239
H46   H     H_    0.227762 0.612025 0.388872 0.223185
H47   H     H_    0.288401 0.570258 0.396523 0.252865
H48   H     H_    0.272481 0.611779 0.440625 0.224464
N11   N     N_2   0.204221 0.414451 0.482690 -0.404026
H49   H     H_    0.166023 0.406938 0.502476 0.240727
C115  C     C_3   0.249300 0.378017 0.481926 -0.598957
H50   H     H_    0.226255 0.346179 0.470510 0.223970
H51   H     H_    0.268842 0.372521 0.516506 0.202733
H52   H     H_    0.287631 0.385880 0.457966 0.268022
N12   N     N_2   0.792663 0.534914 0.417957 -0.407690
H53   H     H_    0.818963 0.511499 0.400393 0.283089
C116  C     C_3   0.747307 0.557752 0.389680 -0.635497
H54   H     H_    0.770204 0.570264 0.358276 0.224905
H55   H     H_    0.727556 0.587487 0.407853 0.223281
H56   H     H_    0.709250 0.534044 0.379981 0.249759
Br1   Br    Br    0.198871 0.937016 0.915449 -0.530687
Br2   Br    Br    0.801109 0.003592 0.894804 -0.543845
Br3   Br    Br    0.698870 0.437080 0.415403 -0.527299
Br4   Br    Br    0.301045 0.467557 0.399969 -0.536818

loop_
_geom_bond_atom_site_label_1
_geom_bond_atom_site_label_2
_geom_bond_distance
_ccdc_geom_bond_type
C11   C38   1.549327 S    
C19   C23   1.531085 S    
N6    H29   1.031087 S    
O43   C77   1.318216 A    
C61   C75   1.503922 S    
C59   C63   1.246418 T    
C87   C89   1.478236 S    
C13   H5    1.110057 S    
Cu10  O46   1.835182 S    
Cu12  O48   1.835182 S    
O24   Cu6   1.975922 S    
Cu5   Cu6   2.499142 S    
O3    C3    1.262392 A    
C52   C56   1.246417 T    
C64   C78   1.503987 S    
C71   C93   1.503542 S    
C113  H44   1.111011 S    
C105  H11   1.110915 S    
C43   C47   1.246339 T    
C29   N9    1.447982 S    
N1    H9    1.030818 S    
C112  H40   1.110502 S    
O7    C3    1.262489 A    
C10   C26   1.544062 S    
O43   Cu12  1.835619 S    
C22   C26   1.532134 S    
C47   C51   1.477828 S    
C11   H3    1.110030 S    
O28   Cu8   1.975922 S    
C32   C35   1.536371 S    
C14   C20   1.540896 S    
C36   C40   1.543006 S    
O27   Cu7   1.975920 S    
O25   Cu7   1.977015 S    
O27   C70   1.233653 A    
O37   C75   1.317789 A    
Cu7   Cu8   2.499142 S    
C114  H48   1.110171 S    
O38   C76   1.317763 A    
C3    C43   1.503722 S    
C100  C102  1.477820 S    
N3    C107  1.446252 S    
C11   C27   1.543772 S    
C33   Br1   1.940582 S    
C26   N6    1.447894 S    
C27   C34   1.537840 S    
O2    Cu1   1.832857 S    
C17   C21   1.531084 S    
C10   C18   1.541448 S    
C15   C31   1.544994 S    
C116  H54   1.110278 S    
C80   C92   1.504318 S    
C7    C39   1.448503 S    
N5    C109  1.445324 S    
N10   H45   1.030819 S    
C45   C49   1.477825 S    
C6    C38   1.448251 S    
C107  H20   1.109731 S    
C114  H47   1.110411 S    
O33   C73   1.318078 A    
C63   C77   1.503919 S    
C25   C33   1.538546 S    
N12   H53   1.030776 S    
C28   N8    1.447921 S    
O20   C66   1.262604 A    
C42   C46   1.246296 T    
C109  H28   1.111010 S    
C115  H50   1.110170 S    
C41   C45   1.246339 T    
O21   Cu5   1.977015 S    
C23   C29   1.531369 S    
C20   C24   1.532103 S    
C24   C70   1.452401 S    
O4    C4    1.262366 A    
N11   H49   1.031068 S    
O48   C80   1.317868 A    
O41   Cu11  1.834446 S    
C72   C94   1.503513 S    
C5    C37   1.448501 S    
O23   C68   1.234857 A    
O11   C7    1.233673 A    
C4    C44   1.503598 S    
C15   H7    1.109980 S    
C109  H26   1.110159 S    
O12   C8    1.233538 A    
O39   C75   1.318210 A    
C14   H6    1.110004 S    
C90   C92   1.246652 T    
C115  H51   1.111035 S    
C81   C83   1.246480 T    
O36   Cu12  1.834680 S    
C31   N11   1.447866 S    
O37   Cu9   1.834446 S    
O46   C79   1.317838 A    
O40   Cu9   1.835616 S    
N6    C110  1.445341 S    
C93   C95   1.246261 T    
C29   C35   1.538544 S    
C105  H12   1.109732 S    
C94   C96   1.246249 T    
C110  H31   1.109480 S    
O12   Cu2   1.977074 S    
C35   C39   1.542760 S    
O22   C68   1.231615 A    
C107  H19   1.110914 S    
C34   C38   1.543193 S    
O9    C5    1.233672 A    
N4    H21   1.030995 S    
O13   Cu3   1.977288 S    
O16   C8    1.232084 A    
C74   C104  1.503862 S    
C113  H42   1.110158 S    
C21   C67   1.451252 S    
C58   C62   1.246457 T    
O31   C72   1.262532 A    
C14   C40   1.550206 S    
C57   C61   1.246418 T    
O11   Cu2   1.976657 S    
C26   C34   1.537787 S    
C30   C36   1.538033 S    
C108  H23   1.111332 S    
C112  H38   1.110279 S    
C106  H14   1.110257 S    
C17   N1    1.447618 S    
O13   C5    1.231817 A    
O7    Cu4   1.832273 S    
O35   C74   1.318104 A    
C99   C101  1.477834 S    
C116  H55   1.110067 S    
C56   C60   1.477930 S    
C89   C91   1.246640 T    
O15   C7    1.231816 A    
N8    H37   1.030775 S    
N4    C108  1.445186 S    
C111  H34   1.110306 S    
O5    C1    1.262505 A    
C114  H46   1.110313 S    
O41   C77   1.317780 A    
C24   C31   1.532037 S    
C33   C37   1.542761 S    
C27   N7    1.447479 S    
N9    H41   1.030939 S    
C62   C76   1.503990 S    
C50   C54   1.246417 T    
O6    Cu3   1.832143 S    
Cu8   O32   1.833477 S    
C49   C53   1.246395 T    
O42   C78   1.317766 A    
O8    C4    1.262456 A    
C108  H24   1.110589 S    
C60   C64   1.246454 T    
O35   Cu11  1.835127 S    
C113  H43   1.109474 S    
N7    H33   1.030893 S    
C31   C36   1.537610 S    
O1    C1    1.262377 A    
O24   C67   1.234098 A    
N12   C116  1.445421 S    
C32   N12   1.447921 S    
C13   C19   1.543256 S    
C12   C17   1.540965 S    
C85   C88   1.246614 T    
C14   C30   1.542525 S    
O15   Cu4   1.977288 S    
N11   C115  1.445290 S    
C86   C87   1.246608 T    
C10   C38   1.549488 S    
N1    C105  1.446253 S    
C24   C30   1.531681 S    
C16   C39   1.548610 S    
O17   Cu5   1.832892 S    
C9    C37   1.548350 S    
C2    C42   1.503598 S    
Cu5   O29   1.833606 S    
N10   C114  1.445286 S    
C84   C86   1.478146 S    
O22   Cu6   1.977013 S    
C97   C100  1.246350 T    
O29   C71   1.262530 A    
C98   C99   1.246358 T    
O8    Cu4   1.832143 S    
C115  H52   1.109482 S    
Cu7   O31   1.833606 S    
O26   C70   1.233021 A    
O23   Cu5   1.975920 S    
C36   Br4   1.940293 S    
O2    C2    1.262391 A    
O17   C65   1.262612 A    
O45   C79   1.317744 A    
Cu6   O30   1.833477 S    
O47   C80   1.317723 A    
O21   C67   1.231730 A    
C13   C39   1.548351 S    
O36   C74   1.317864 A    
C79   C91   1.504300 S    
C66   C82   1.503899 S    
C110  H32   1.111071 S    
C111  H35   1.110230 S    
C110  H30   1.110188 S    
C13   C29   1.543628 S    
C18   N2    1.447113 S    
C106  H16   1.111381 S    
C9    H1    1.110057 S    
O14   C6    1.232734 A    
Cu2   Cu4   2.498786 S    
C22   C68   1.452644 S    
C16   C19   1.540964 S    
O40   C76   1.318269 A    
O14   Cu3   1.976875 S    
C48   C52   1.477826 S    
C1    C41   1.503719 S    
O9    Cu1   1.976657 S    
C55   C59   1.477878 S    
O44   C78   1.318265 A    
O4    Cu2   1.832857 S    
Cu9   Cu10  2.696797 S    
O1    Cu1   1.832725 S    
C11   C18   1.540597 S    
C18   C22   1.533208 S    
Cu11  O47   1.834735 S    
C112  H39   1.110068 S    
O42   Cu12  1.834443 S    
O16   Cu4   1.976876 S    
O3    Cu2   1.832725 S    
C22   C27   1.531171 S    
O18   C65   1.262617 A    
O30   C71   1.262483 A    
O25   C69   1.231733 A    
C116  H56   1.110504 S    
C25   N5    1.447982 S    
O10   C6    1.232627 A    
O34   C73   1.317898 A    
C88   C90   1.478251 S    
C15   C20   1.541575 S    
O38   Cu10  1.834443 S    
C35   Br3   1.940580 S    
C107  H18   1.110058 S    
N9    C113  1.445325 S    
C21   C28   1.533995 S    
C54   C58   1.477933 S    
Cu11  Cu12  2.696797 S    
O44   Cu11  1.835616 S    
C51   C55   1.246392 T    
O5    Cu3   1.832272 S    
O33   Cu9   1.835127 S    
N3    H17   1.030820 S    
C20   N4    1.446801 S    
C9    C25   1.543627 S    
C15   C40   1.549406 S    
O19   Cu7   1.832892 S    
C44   C48   1.246302 T    
C21   C25   1.531368 S    
C96   C98   1.477740 S    
N7    C111  1.445156 S    
C12   C28   1.545155 S    
C16   H8    1.109936 S    
C105  H10   1.110056 S    
C82   C84   1.246489 T    
C83   C85   1.478146 S    
O10   Cu1   1.977074 S    
N5    H25   1.030940 S    
C73   C103  1.503883 S    
O32   C72   1.262452 A    
Cu9   O45   1.834735 S    
O20   Cu8   1.833021 S    
N8    C112  1.445423 S    
C34   Br2   1.940207 S    
O6    C2    1.262434 A    
C8    C40   1.448748 S    
Cu1   Cu3   2.498786 S    
O34   Cu10  1.834680 S    
N2    H13   1.030928 S    
C19   N3    1.447616 S    
O39   Cu10  1.835619 S    
C106  H15   1.110481 S    
C111  H36   1.110295 S    
C12   H4    1.109936 S    
C23   C69   1.451250 S    
C108  H22   1.110250 S    
C46   C50   1.477823 S    
C9    C17   1.543259 S    
C109  H27   1.109472 S    
C65   C81   1.503871 S    
C28   C33   1.536370 S    
C10   H2    1.109997 S    
C95   C97   1.477737 S    
O26   Cu8   1.977013 S    
C23   C32   1.533995 S    
C102  C104  1.246382 T    
C16   C32   1.545154 S    
O19   C66   1.262652 A    
O28   C69   1.234096 A    
O18   Cu6   1.833021 S    
C53   C57   1.477877 S    
C30   N10   1.447713 S    
C12   C37   1.548609 S    
N2    C106  1.445347 S    
C101  C103  1.246393 T    
