data_mof_unit_14258.cif
_audit_creation_date              2012-12-10T18:35:14-0500
_audit_creation_method            fapswitch 2.2
_symmetry_space_group_name_H-M    P1
_symmetry_Int_Tables_number       1
_space_group_crystal_system       triclinic
_cell_length_a                    18.635699
_cell_length_b                    18.741639
_cell_length_c                    19.005282
_cell_angle_alpha                 109.755489
_cell_angle_beta                  109.457113
_cell_angle_gamma                 108.9296
_cell_volume                      5126.66341286

loop_
_atom_site_label
_atom_site_type_symbol
_atom_type_description
_atom_site_fract_x
_atom_site_fract_y
_atom_site_fract_z
_atom_type_partial_charge
C1    C     C_R   0.382370 0.502175 0.381907 0.795648
C2    C     C_R   0.800518 0.726614 0.798383 -0.123413
C3    C     C_R   0.960926 0.731253 0.962981 -0.122193
C4    C     C_R   0.948232 0.717363 0.026396 -0.207294
C5    C     C_R   0.007477 0.779115 0.113526 0.122632
C6    C     C_R   0.282995 0.546630 0.953696 -0.155015
C7    C     C_R   0.199098 0.477517 0.889703 -0.084329
C8    C     C_R   0.169300 0.397036 0.887096 0.101318
C9    C     C_R   0.226635 0.385300 0.946266 -0.191347
C10   C     C_R   0.310371 0.454611 0.010395 -0.118343
C11   C     C_R   0.338398 0.535373 0.014380 -0.105993
C12   C     C_R   0.077950 0.255695 0.753156 -0.243907
C13   C     C_R   0.827887 0.811529 0.573135 -0.155051
C14   C     C_R   0.997719 0.184811 0.684201 -0.074089
C15   C     C_R   0.918844 0.179231 0.679369 -0.019449
C16   C     C_R   0.921943 0.244095 0.745685 -0.248170
C17   C     C_R   0.002381 0.315557 0.814817 -0.074709
C18   C     C_R   0.081561 0.322672 0.817694 -0.006409
C19   C     C_R   0.786695 0.121673 0.542246 -0.175990
C20   C     C_R   0.710436 0.053193 0.466520 -0.152583
C21   C     C_R   0.679201 0.968810 0.453290 -0.131075
C22   C     C_R   0.722801 0.952855 0.516722 -0.075014
C23   C     C_R   0.799540 0.020725 0.593270 0.402236
C24   C     C_R   0.812099 0.811410 0.495747 -0.096327
C25   C     C_R   0.832892 0.106338 0.605474 0.015833
C26   C     C_R   0.730554 0.748368 0.419336 -0.028587
C27   C     C_R   0.668287 0.685511 0.422465 -0.239878
C28   C     C_R   0.684651 0.686364 0.499943 -0.070514
C29   C     C_R   0.763862 0.751053 0.576275 0.003994
C30   C     C_R   0.636907 0.759353 0.299666 -0.193843
C31   C     C_R   0.613926 0.760578 0.222435 -0.154895
C32   C     C_R   0.660525 0.748018 0.179636 -0.222381
C33   C     C_R   0.618357 0.618895 0.499770 0.807803
C34   C     C_R   0.729362 0.732830 0.213263 -0.094279
C35   C     C_R   0.752598 0.730182 0.290077 0.451436
C36   C     C_R   0.707233 0.746009 0.335440 0.034156
C37   C     C_R   0.408632 0.761602 0.552179 -0.214511
C38   C     C_R   0.359969 0.679621 0.478201 -0.093671
C39   C     C_R   0.371623 0.666552 0.406442 0.033986
C40   C     C_R   0.429773 0.738111 0.408373 -0.173676
C41   C     C_R   0.476795 0.821227 0.481485 0.461509
C42   C     C_R   0.466842 0.832353 0.554075 -0.224555
C43   C     C_R   0.251495 0.577278 0.256316 -0.233971
C44   C     C_R   0.617627 0.498158 0.618426 0.800447
C45   C     C_R   0.185639 0.497280 0.182908 -0.065115
C46   C     C_R   0.181331 0.418711 0.177543 0.000159
C47   C     C_R   0.248587 0.423464 0.243085 -0.255145
C48   C     C_R   0.314657 0.503417 0.316612 -0.076385
C49   C     C_R   0.313665 0.581204 0.325535 0.012288
C50   C     C_R   0.064876 0.269198 0.125041 -0.151722
C51   C     C_R   0.998118 0.185323 0.058647 -0.135214
C52   C     C_R   0.974278 0.161987 0.972964 -0.110345
C53   C     C_R   0.016904 0.222625 0.953595 -0.121715
C54   C     C_R   0.083218 0.306792 0.019853 -0.111606
C55   C     C_R   0.379746 0.381207 0.498628 0.788212
C56   C     C_R   0.108105 0.330868 0.106196 0.119072
C57   C     C_R   0.189201 0.505595 0.548158 -0.140499
C58   C     C_R   0.213322 0.444516 0.557036 -0.143524
C59   C     C_R   0.220555 0.389400 0.491376 0.132792
C60   C     C_R   0.203286 0.396126 0.416781 -0.128013
C61   C     C_R   0.178108 0.456567 0.407718 -0.149777
C62   C     C_R   0.171060 0.511231 0.473326 -0.131371
C63   C     C_R   0.176176 0.253941 0.497848 -0.239952
C64   C     C_R   0.186524 0.183514 0.498487 -0.070481
C65   C     C_R   0.260458 0.178043 0.498988 0.001241
C66   C     C_R   0.751697 0.766306 0.775048 0.058261
C67   C     C_R   0.322617 0.243846 0.498686 -0.247756
C68   C     C_R   0.312035 0.314154 0.497752 -0.079604
C69   C     C_R   0.238182 0.319587 0.497396 -0.006659
C70   C     C_R   0.346603 0.116160 0.562680 -0.141034
C71   C     C_R   0.360685 0.046172 0.557892 -0.132049
C72   C     C_R   0.302063 0.963077 0.485788 -0.120082
C73   C     C_R   0.229098 0.949773 0.418494 -0.144356
C74   C     C_R   0.214193 0.019375 0.423419 -0.126823
C75   C     C_R   0.272948 0.103110 0.495654 0.127360
C76   C     C_R   0.562435 0.594021 0.861213 -0.117082
C77   C     C_R   0.745421 0.780558 0.705690 -0.120828
C78   C     C_R   0.629185 0.586141 0.847123 -0.131837
C79   C     C_R   0.609320 0.511628 0.775834 0.119627
C80   C     C_R   0.522014 0.444536 0.719827 -0.112877
C81   C     C_R   0.455484 0.452613 0.734288 -0.111346
C82   C     C_R   0.475640 0.527430 0.804723 -0.122383
C83   C     C_R   0.745795 0.503951 0.823096 -0.256835
C84   C     C_R   0.813677 0.496161 0.811574 -0.076268
C85   C     C_R   0.816119 0.486693 0.735797 -0.018711
C86   C     C_R   0.749278 0.484320 0.672001 -0.238699
C87   C     C_R   0.682228 0.494346 0.684283 -0.070520
C88   C     C_R   0.783469 0.751221 0.657967 0.074844
C89   C     C_R   0.680040 0.503802 0.760476 0.002231
C90   C     C_R   0.964683 0.552829 0.751635 -0.101642
C91   C     C_R   0.031404 0.544762 0.737666 -0.143045
C92   C     C_R   0.020949 0.462301 0.693404 -0.126428
C93   C     C_R   0.944012 0.387815 0.663555 -0.120628
C94   C     C_R   0.876977 0.395495 0.677369 -0.163089
C95   C     C_R   0.886921 0.478195 0.721385 0.103590
C96   C     C_R   0.998684 0.878965 0.382000 0.838611
C97   C     C_R   0.880585 0.879526 0.497995 0.843617
C98   C     C_R   0.998705 0.118012 0.618213 0.811602
C99   C     C_R   0.832739 0.712957 0.682811 -0.178786
C100  C     C_R   0.119144 0.117393 0.498905 0.782248
C101  C     C_R   0.001308 0.381361 0.882035 0.794503
C102  C     C_R   0.118852 0.498331 0.117058 0.783602
C103  C     C_R   0.999511 0.618972 0.118214 0.787738
C104  C     C_R   0.881073 0.498203 0.879726 0.793053
C105  C     C_R   0.112633 0.773478 0.548673 -0.141980
C106  C     C_R   0.099550 0.785811 0.477807 -0.109504
C107  C     C_R   0.019238 0.730713 0.400349 0.123013
C108  C     C_R   0.954632 0.659614 0.393315 -0.144821
C109  C     C_R   0.967760 0.647561 0.464345 -0.156281
C110  C     C_R   0.841530 0.701274 0.752979 -0.088629
C111  C     C_R   0.046518 0.704780 0.542153 -0.113633
C112  C     C_R   0.002005 0.676820 0.255337 -0.243209
C113  C     C_R   0.999191 0.686119 0.184742 -0.070957
C114  C     C_R   0.000558 0.760763 0.181528 0.020623
C115  C     C_R   0.997917 0.821124 0.246274 -0.280702
C116  C     C_R   0.000844 0.812108 0.317019 -0.041850
C117  C     C_R   0.006849 0.740936 0.323804 0.035084
C118  C     C_R   0.076096 0.857750 0.136113 -0.200310
C119  C     C_R   0.086770 0.872924 0.072212 -0.241047
C120  C     C_R   0.029501 0.808889 0.984747 0.468611
Cu1   Cu    Cu3+1 0.499980 0.561800 0.561790 0.950859
Cu2   Cu    Cu3+1 0.500020 0.438200 0.438210 0.941419
Cu3   Cu    Cu3+1 0.061810 0.999960 0.561770 0.961013
Cu4   Cu    Cu3+1 0.938190 0.999990 0.438190 0.962485
Cu5   Cu    Cu3+1 0.061800 0.561770 0.999960 0.962627
Cu6   Cu    Cu3+1 0.938200 0.438190 0.000000 0.956581
H1    H     H_    0.804032 0.712353 0.849596 0.116057
H2    H     H_    0.642808 0.749271 0.119894 0.135752
H3    H     H_    0.764329 0.721955 0.178872 0.146988
H4    H     H_    0.502861 0.895907 0.611359 0.123118
H5    H     H_    0.399954 0.770621 0.607520 0.138499
H6    H     H_    0.312873 0.626314 0.476731 0.153150
H7    H     H_    0.436922 0.729724 0.352267 0.138660
H8    H     H_    0.251071 0.636694 0.261852 0.148898
H9    H     H_    0.247928 0.363786 0.237959 0.153138
H10   H     H_    0.082743 0.286162 0.191166 0.121449
H11   H     H_    0.965114 0.138315 0.073674 0.131803
H12   H     H_    0.922883 0.096925 0.921610 0.136381
H13   H     H_    0.998622 0.204203 0.887219 0.138482
H14   H     H_    0.115265 0.353247 0.004153 0.105014
H15   H     H_    0.151676 0.558047 0.466205 0.130997
H16   H     H_    0.183611 0.547874 0.598865 0.120071
H17   H     H_    0.225605 0.439566 0.614605 0.112829
H18   H     H_    0.207220 0.353218 0.364956 0.102115
H19   H     H_    0.163587 0.460816 0.349683 0.142905
H20   H     H_    0.707567 0.810469 0.685991 0.137278
H21   H     H_    0.118951 0.257451 0.497086 0.151146
H22   H     H_    0.379576 0.240119 0.498887 0.150308
H23   H     H_    0.393000 0.180469 0.618466 0.121302
H24   H     H_    0.417380 0.056471 0.609805 0.125568
H25   H     H_    0.313348 0.909068 0.481904 0.131804
H26   H     H_    0.184454 0.885561 0.362353 0.138950
H27   H     H_    0.157861 0.008433 0.370517 0.098147
H28   H     H_    0.424048 0.533650 0.815712 0.120683
H29   H     H_    0.578000 0.651737 0.915967 0.128213
H30   H     H_    0.696137 0.638300 0.891253 0.116734
H31   H     H_    0.861652 0.689326 0.645936 0.132780
H32   H     H_    0.505617 0.386214 0.665094 0.096795
H33   H     H_    0.388298 0.400902 0.690904 0.134279
H34   H     H_    0.744485 0.510853 0.881614 0.145288
H35   H     H_    0.751270 0.477721 0.613843 0.155791
H36   H     H_    0.974234 0.617145 0.786812 0.135320
H37   H     H_    0.091296 0.602457 0.761302 0.119368
H38   H     H_    0.072649 0.456103 0.682613 0.114793
H39   H     H_    0.936749 0.324288 0.629924 0.135398
H40   H     H_    0.817654 0.337288 0.654060 0.124059
H41   H     H_    0.056743 0.695194 0.597001 0.123754
H42   H     H_    0.877402 0.669187 0.769411 0.145232
H43   H     H_    0.174281 0.816813 0.608444 0.119892
H44   H     H_    0.152074 0.838076 0.483220 0.135577
H45   H     H_    0.894189 0.613441 0.332780 0.162056
H46   H     H_    0.917161 0.593410 0.458831 0.133932
H47   H     H_    0.004716 0.621109 0.258964 0.147221
H48   H     H_    0.996295 0.877234 0.242779 0.149252
H49   H     H_    0.122454 0.906477 0.203225 0.142621
H50   H     H_    0.140453 0.933629 0.090957 0.129492
H51   H     H_    0.917824 0.680316 0.896866 0.131037
H52   H     H_    0.889631 0.860076 0.631889 0.175356
H53   H     H_    0.894083 0.657017 0.007672 0.113752
H54   H     H_    0.403322 0.588926 0.063910 0.124960
H55   H     H_    0.305180 0.608802 0.956003 0.115261
H56   H     H_    0.157335 0.486765 0.842418 0.133157
H57   H     H_    0.206194 0.322644 0.943036 0.134640
H58   H     H_    0.353700 0.445558 0.056691 0.134360
H59   H     H_    0.138261 0.259931 0.755494 0.152285
H60   H     H_    0.861362 0.239593 0.742651 0.156080
H61   H     H_    0.810955 0.186383 0.550446 0.132522
H62   H     H_    0.675962 0.065455 0.417628 0.139757
H63   H     H_    0.606293 0.636026 0.364318 0.146842
H64   H     H_    0.620203 0.915921 0.394242 0.165602
H65   H     H_    0.696568 0.887292 0.506448 0.163991
H66   H     H_    0.600060 0.769308 0.332072 0.138241
H67   H     H_    0.560010 0.771491 0.195856 0.135122
O1    O     O_R   0.409800 0.552190 0.462000 -0.583519
O2    O     O_R   0.947810 0.909820 0.357620 -0.585297
O3    O     O_R   0.962020 0.909790 0.552160 -0.584835
O4    O     O_R   0.857630 0.909810 0.447800 -0.578363
O5    O     O_R   0.052190 0.090130 0.642340 -0.587082
O6    O     O_R   0.947800 0.090160 0.537980 -0.582280
O7    O     O_R   0.142370 0.090140 0.552150 -0.580130
O8    O     O_R   0.037980 0.090170 0.447800 -0.593195
O9    O     O_R   0.052200 0.461970 0.909800 -0.579238
O10   O     O_R   0.947810 0.357610 0.909840 -0.585259
O11   O     O_R   0.142370 0.552160 0.090140 -0.581949
O12   O     O_R   0.409840 0.447810 0.357640 -0.589125
O13   O     O_R   0.037990 0.447800 0.090170 -0.578558
O14   O     O_R   0.052190 0.642350 0.090120 -0.573936
O15   O     O_R   0.947800 0.537990 0.090150 -0.587234
O16   O     O_R   0.962010 0.552150 0.909780 -0.581952
O17   O     O_R   0.857630 0.447800 0.909820 -0.585754
O18   O     O_R   0.590160 0.642370 0.552180 -0.596593
O19   O     O_R   0.590190 0.537990 0.447820 -0.586115
O20   O     O_R   0.590160 0.552190 0.642360 -0.571171
O21   O     O_R   0.590200 0.447810 0.538000 -0.591676
O22   O     O_R   0.409810 0.462010 0.552180 -0.573141
O23   O     O_R   0.409840 0.357630 0.447820 -0.588920
O24   O     O_R   0.052200 0.909800 0.461980 -0.593284
O25   O     O_3   0.818559 0.710980 0.317289 -0.780329
H68   H     H_    0.821507 0.700812 0.365667 0.312140
O26   O     O_3   0.529788 0.890415 0.479218 -0.767756
H69   H     H_    0.557659 0.944280 0.535078 0.319849
C121  C     C_R   0.702849 0.787025 0.819230 0.094143
C122  C     C_R   0.616566 0.768535 0.771477 -0.118340
C123  C     C_R   0.569395 0.784867 0.812763 -0.141294
C124  C     C_R   0.607679 0.819801 0.901927 -0.120100
C125  C     C_R   0.693256 0.838515 0.950018 -0.146596
C126  C     C_R   0.740718 0.822239 0.909059 -0.166580
H70   H     H_    0.584941 0.739870 0.702112 0.139194
H71   H     H_    0.502906 0.769935 0.775480 0.116471
H72   H     H_    0.570945 0.832134 0.933732 0.117277
H73   H     H_    0.722784 0.865435 0.019090 0.125633
H74   H     H_    0.807055 0.837443 0.947579 0.127450
O27   O     O_3   0.039197 0.819920 0.919707 -0.760438
H75   H     H_    0.090302 0.877885 0.945742 0.316315
O28   O     O_3   0.839262 0.000329 0.653210 -0.770107
H76   H     H_    0.888482 0.054273 0.706621 0.320023

loop_
_geom_bond_atom_site_label_1
_geom_bond_atom_site_label_2
_ccdc_geom_bond_type
C8    C9    A    
C78   C79   A    
Cu5   O11   S    
C93   C94   A    
C81   H33   S    
C5    C114  S    
C10   H58   S    
C41   C42   A    
Cu3   O5    S    
C19   C20   A    
C104  O17   A    
C66   C121  S    
C78   H30   S    
C123  C124  A    
C94   H40   S    
C55   C68   S    
O25   H68   S    
Cu3   Cu4   S    
C82   H28   S    
C45   C46   A    
C108  C109  A    
Cu4   O6    S    
Cu1   O20   S    
C26   C27   A    
C13   H52   S    
C105  H43   S    
C57   H16   S    
C90   H36   S    
C44   O21   A    
Cu1   O22   S    
C97   O3    A    
C13   C29   A    
C28   C29   A    
C103  C113  S    
C76   C78   A    
C115  H48   S    
C101  O9    A    
C109  C111  A    
C55   O22   A    
C112  C117  A    
C120  O27   S    
C33   O19   A    
C15   C25   S    
C71   H24   S    
C106  C107  A    
C125  H73   S    
C116  C117  A    
C34   C35   A    
C73   C74   A    
C37   C42   A    
C102  O11   A    
C118  C119  A    
O26   H69   S    
C29   C88   S    
C17   C101  S    
C19   H61   S    
C110  H42   S    
C58   H17   S    
C96   O2    A    
C54   H14   S    
C83   H34   S    
C122  C123  A    
C34   H3    S    
Cu6   O15   S    
C16   C17   A    
C65   C67   A    
C52   H12   S    
O28   H76   S    
C14   C98   S    
C70   C71   A    
C30   H66   S    
C44   C87   S    
C1    O12   A    
O27   H75   S    
C109  H46   S    
C72   C73   A    
C23   O28   S    
C2    H1    S    
C92   H38   S    
Cu1   O18   S    
C126  H74   S    
C105  C111  A    
C93   H39   S    
C59   C60   A    
C63   C64   A    
C53   H13   S    
C21   C22   A    
C24   C97   S    
C106  H44   S    
Cu2   O12   S    
C91   H37   S    
C61   C62   A    
C70   H23   S    
C104  O16   A    
C63   H21   S    
C112  C113  A    
C55   O23   A    
C114  C115  A    
C57   C58   A    
C121  C122  A    
C38   C39   A    
C83   C89   A    
C54   C56   A    
Cu5   O9    S    
C74   C75   A    
C98   O5    A    
C6    H55   S    
C51   C52   A    
C47   C48   A    
C97   O4    A    
Cu3   O7    S    
C7    C8    A    
C84   C85   A    
C103  O15   A    
C77   C88   A    
C42   H4    S    
Cu6   O17   S    
C76   C82   A    
C91   C92   A    
C31   H67   S    
Cu5   O16   S    
C122  H70   S    
C68   C69   A    
C57   C62   A    
C58   C59   A    
C85   C86   A    
C99   C110  A    
Cu4   O4    S    
Cu5   O14   S    
C15   C16   A    
C81   C82   A    
C67   C68   A    
C74   H27   S    
C60   C61   A    
C35   C36   A    
C32   C34   A    
C43   H8    S    
C37   C38   A    
C9    H57   S    
C37   H5    S    
C119  H50   S    
C20   H62   S    
C43   C45   A    
C100  O8    A    
C80   H32   S    
C83   C84   A    
C14   C15   A    
C107  C108  A    
C72   H25   S    
C8    C18   S    
C17   C18   A    
C50   C51   A    
C86   H35   S    
C85   C95   S    
C4    C5    A    
C102  O13   A    
Cu1   Cu2   S    
C59   C69   S    
C100  O7    A    
C26   C36   S    
C40   C41   A    
C39   C49   S    
C12   C14   A    
C28   C33   S    
C87   C89   A    
C73   H26   S    
C101  O10   A    
Cu5   Cu6   S    
C84   C104  S    
Cu2   O19   S    
Cu3   O3    S    
C111  H41   S    
C62   H15   S    
C12   C18   A    
C3    C4    A    
C35   O25   S    
C51   H11   S    
Cu1   O1    S    
C6    C11   A    
C41   O26   S    
C52   C53   A    
C113  C114  A    
C9    C10   A    
C40   H7    S    
C21   H64   S    
C3    C120  A    
C66   C77   A    
C46   C47   A    
C48   C49   A    
C7    H56   S    
C47   H9    S    
C86   C87   A    
C45   C102  S    
C31   C32   A    
C43   C49   A    
C24   C26   A    
C103  O14   A    
C80   C81   A    
C2    C66   A    
C90   C95   A    
C118  H49   S    
C119  C120  A    
C1    C48   S    
C53   C54   A    
C6    C7    A    
Cu6   O10   S    
C27   H63   S    
C105  C106  A    
C5    C118  A    
C76   H29   S    
C124  H72   S    
C65   C75   S    
C30   C36   A    
Cu4   O8    S    
C64   C65   A    
C32   H2    S    
C99   H31   S    
C1    O1    A    
C3    H51   S    
C63   C69   A    
C50   H10   S    
C123  H71   S    
C60   H18   S    
C33   O18   A    
C98   O6    A    
C90   C91   A    
C30   C31   A    
C121  C126  A    
Cu6   O13   S    
C12   H59   S    
Cu4   O2    S    
C61   H19   S    
C92   C93   A    
C124  C125  A    
Cu2   O23   S    
C112  H47   S    
C44   O20   A    
C23   C25   A    
Cu3   O24   S    
C94   C95   A    
C19   C25   A    
C50   C56   A    
C79   C89   S    
C88   C99   A    
C10   C11   A    
C79   C80   A    
C39   C40   A    
Cu2   O21   S    
C64   C100  S    
C71   C72   A    
C20   C21   A    
C13   C24   A    
C125  C126  A    
C108  H45   S    
C46   C56   S    
C67   H22   S    
C22   C23   A    
C96   C116  S    
C70   C75   A    
C16   H60   S    
C11   H54   S    
C4    H53   S    
C115  C116  A    
C22   H65   S    
C77   H20   S    
C107  C117  S    
C96   O24   A    
C38   H6    S    
C27   C28   A    
C2    C110  A    
