data_mof_unit_64433.cif
_audit_creation_date              2013-03-05T16:13:59-0500
_audit_creation_method            fapswitch 2.2
_symmetry_space_group_name_H-M    P1
_symmetry_Int_Tables_number       1
_space_group_crystal_system       triclinic
_cell_length_a                    30.370937
_cell_length_b                    30.370946
_cell_length_c                    51.470272
_cell_angle_alpha                 89.999773
_cell_angle_beta                  89.99983
_cell_angle_gamma                 90.00071
_cell_volume                      47475.8745756

loop_
_atom_site_label
_atom_site_type_symbol
_atom_site_description
_atom_site_fract_x
_atom_site_fract_y
_atom_site_fract_z
_atom_type_partial_charge
Zn1   Zn    Zn3+2 1.000000 0.551910 0.771800 1.077960
Zn2   Zn    Zn3+2 1.000000 0.448090 0.228200 1.077970
Zn3   Zn    Zn3+2 0.448090 1.000000 0.771800 1.077964
Zn4   Zn    Zn3+2 0.551910 1.000000 0.228200 1.077928
Zn5   Zn    Zn3+2 1.000000 0.448090 0.771800 1.077961
Zn6   Zn    Zn3+2 1.000000 0.551910 0.228200 1.077964
Zn7   Zn    Zn3+2 0.551910 1.000000 0.771800 1.077965
Zn8   Zn    Zn3+2 0.448090 1.000000 0.228200 1.077896
Zn9   Zn    Zn3+2 0.500000 0.051910 0.271800 1.077928
Zn10  Zn    Zn3+2 0.500000 0.948090 0.728200 1.077955
Zn11  Zn    Zn3+2 0.948090 0.500000 0.271800 1.077973
Zn12  Zn    Zn3+2 0.051910 0.500000 0.728200 1.077960
Zn13  Zn    Zn3+2 0.500000 0.948090 0.271800 1.077997
Zn14  Zn    Zn3+2 0.500000 0.051910 0.728200 1.077953
Zn15  Zn    Zn3+2 0.051910 0.500000 0.271800 1.077975
Zn16  Zn    Zn3+2 0.948090 0.500000 0.728200 1.077959
O1    O     O_3   1.000000 0.500000 0.750000 -0.539367
O2    O     O_3   0.000000 0.500000 0.250000 -0.539365
O3    O     O_3   0.500000 1.000000 0.750000 -0.539351
O4    O     O_3   0.500000 1.000000 0.250000 -0.539420
O5    O     O_R   0.036330 0.500000 0.692020 -0.625473
O6    O     O_R   0.963670 0.500000 0.307980 -0.625476
O7    O     O_R   0.500000 0.036330 0.692020 -0.625487
O8    O     O_R   0.500000 0.963670 0.307980 -0.625368
O9    O     O_R   0.963670 0.500000 0.692020 -0.625473
O10   O     O_R   0.036330 0.500000 0.307980 -0.625473
O11   O     O_R   0.500000 0.963670 0.692020 -0.625484
O12   O     O_R   0.500000 0.036330 0.307980 -0.625464
O13   O     O_R   0.536330 1.000000 0.192020 -0.625410
O14   O     O_R   0.463670 1.000000 0.807980 -0.625482
O15   O     O_R   1.000000 0.536330 0.192020 -0.625489
O16   O     O_R   0.000000 0.463670 0.807980 -0.625472
O17   O     O_R   0.463670 1.000000 0.192020 -0.625470
O18   O     O_R   0.536330 1.000000 0.807980 -0.625481
O19   O     O_R   1.000000 0.463670 0.192020 -0.625472
O20   O     O_R   1.000000 0.536330 0.807980 -0.625472
O21   O     O_R   0.912470 0.551140 0.734840 -0.607396
O22   O     O_R   0.087530 0.448860 0.265160 -0.589595
O23   O     O_R   0.448860 0.912470 0.734840 -0.607419
O24   O     O_R   0.551140 0.087530 0.265160 -0.589577
O25   O     O_R   0.087530 0.448860 0.734840 -0.607395
O26   O     O_R   0.912470 0.551140 0.265160 -0.589625
O27   O     O_R   0.551140 0.087530 0.734840 -0.607420
O28   O     O_R   0.448860 0.912470 0.265160 -0.589543
O29   O     O_R   0.912470 0.448860 0.265160 -0.607402
O30   O     O_R   0.087530 0.551140 0.734840 -0.589591
O31   O     O_R   0.448860 0.087530 0.265160 -0.607342
O32   O     O_R   0.551140 0.912470 0.734840 -0.589596
O33   O     O_R   0.087530 0.551140 0.265160 -0.607392
O34   O     O_R   0.912470 0.448860 0.734840 -0.589590
O35   O     O_R   0.551140 0.912470 0.265160 -0.607245
O36   O     O_R   0.448860 0.087530 0.734840 -0.589598
O37   O     O_R   0.412470 0.051140 0.234840 -0.607351
O38   O     O_R   0.587530 0.948860 0.765160 -0.589593
O39   O     O_R   0.948860 0.412470 0.234840 -0.607393
O40   O     O_R   0.051140 0.587530 0.765160 -0.589591
O41   O     O_R   0.587530 0.948860 0.234840 -0.607270
O42   O     O_R   0.412470 0.051140 0.765160 -0.589594
O43   O     O_R   0.051140 0.587530 0.234840 -0.607402
O44   O     O_R   0.948860 0.412470 0.765160 -0.589592
O45   O     O_R   0.412470 0.948860 0.765160 -0.607414
O46   O     O_R   0.587530 0.051140 0.234840 -0.589534
O47   O     O_R   0.948860 0.587530 0.765160 -0.607396
O48   O     O_R   0.051140 0.412470 0.234840 -0.589594
O49   O     O_R   0.587530 0.051140 0.765160 -0.607413
O50   O     O_R   0.412470 0.948860 0.234840 -0.589576
O51   O     O_R   0.051140 0.412470 0.765160 -0.607395
O52   O     O_R   0.948860 0.587530 0.234840 -0.589624
C1    C     C_R   1.000000 0.500000 0.679504 0.843318
C2    C     C_R   1.000000 0.500000 0.320496 0.843343
C3    C     C_R   0.500000 0.000000 0.679503 0.843347
C4    C     C_R   0.499999 0.000001 0.320495 0.843200
C5    C     C_R   0.500000 0.000000 0.179505 0.843230
C6    C     C_R   0.500000 1.000000 0.820496 0.843335
C7    C     C_R   1.000000 0.500000 0.179504 0.843329
C8    C     C_R   1.000000 0.500000 0.820496 0.843319
C9    C     C_R   0.915709 0.584291 0.750000 0.901831
C10   C     C_R   0.084299 0.415700 0.250000 0.941251
C11   C     C_R   0.415710 0.915709 0.750000 0.901872
C12   C     C_R   0.584299 0.084299 0.250000 0.941164
C13   C     C_R   0.084291 0.415709 0.750000 0.901826
C14   C     C_R   0.915702 0.584299 0.250000 0.941410
C15   C     C_R   0.584290 0.084290 0.750000 0.901878
C16   C     C_R   0.415700 0.915700 0.250000 0.941106
C17   C     C_R   0.915710 0.415709 0.250000 0.901828
C18   C     C_R   0.084300 0.584300 0.750000 0.941230
C19   C     C_R   0.415709 0.084291 0.250000 0.901767
C20   C     C_R   0.584300 0.915700 0.750000 0.941239
C21   C     C_R   0.084291 0.584291 0.250000 0.901832
C22   C     C_R   0.915700 0.415700 0.750000 0.941230
C23   C     C_R   0.584295 0.915711 0.250003 0.901006
C24   C     C_R   0.415700 0.084300 0.750000 0.941245
C25   C     C_R   0.140407 0.630328 0.726559 0.292098
C26   C     C_R   0.836560 0.392784 0.254052 0.245033
C27   C     C_R   0.369676 0.140412 0.726560 0.292107
C28   C     C_R   0.607264 0.836593 0.254188 0.245330
C29   C     C_R   0.859592 0.369672 0.726559 0.292098
C30   C     C_R   0.163440 0.607216 0.254051 0.245030
C31   C     C_R   0.630324 0.859588 0.726559 0.292109
C32   C     C_R   0.392779 0.163438 0.254065 0.245087
C33   C     C_R   0.140400 0.369667 0.273443 0.292090
C34   C     C_R   0.836559 0.607215 0.745950 0.245028
C35   C     C_R   0.369661 0.859605 0.273443 0.292089
C36   C     C_R   0.607212 0.163442 0.745959 0.244995
C37   C     C_R   0.859643 0.630361 0.273453 0.292050
C38   C     C_R   0.163440 0.392785 0.745949 0.245029
C39   C     C_R   0.630340 0.140394 0.273444 0.292062
C40   C     C_R   0.392788 0.836558 0.745958 0.244995
C41   C     C_R   0.640396 0.130338 0.226557 0.292093
C42   C     C_R   0.336559 0.892786 0.754043 0.245023
C43   C     C_R   0.869641 0.640373 0.226559 0.292044
C44   C     C_R   0.107216 0.336560 0.754052 0.245030
C45   C     C_R   0.359604 0.869662 0.226557 0.292060
C46   C     C_R   0.663441 0.107214 0.754043 0.245023
C47   C     C_R   0.130332 0.359597 0.226559 0.292091
C48   C     C_R   0.892785 0.663440 0.754050 0.245027
C49   C     C_R   0.640411 0.869675 0.773440 0.292104
C50   C     C_R   0.336561 0.107217 0.245936 0.245034
C51   C     C_R   0.869671 0.359594 0.773442 0.292099
C52   C     C_R   0.107216 0.663440 0.245949 0.245035
C53   C     C_R   0.359589 0.130325 0.773441 0.292101
C54   C     C_R   0.663436 0.892771 0.245860 0.245192
C55   C     C_R   0.130329 0.640406 0.773442 0.292097
C56   C     C_R   0.892785 0.336559 0.245949 0.245032
C57   C     C_R   0.173856 0.662018 0.727047 -0.193257
C58   C     C_R   0.804574 0.359651 0.254797 -0.226149
C59   C     C_R   0.337986 0.173859 0.727047 -0.193248
C60   C     C_R   0.640401 0.804616 0.254940 -0.226274
C61   C     C_R   0.826144 0.337982 0.727047 -0.193257
C62   C     C_R   0.195426 0.640348 0.254796 -0.226154
C63   C     C_R   0.662014 0.826140 0.727047 -0.193247
C64   C     C_R   0.359646 0.195422 0.254810 -0.226166
C65   C     C_R   0.173847 0.337976 0.272956 -0.193252
C66   C     C_R   0.804573 0.640347 0.745205 -0.226147
C67   C     C_R   0.337971 0.826157 0.272956 -0.193285
C68   C     C_R   0.640343 0.195429 0.745214 -0.226144
C69   C     C_R   0.826199 0.662053 0.272971 -0.193243
C70   C     C_R   0.195427 0.359653 0.745204 -0.226148
C71   C     C_R   0.662030 0.173842 0.272956 -0.193281
C72   C     C_R   0.359656 0.804571 0.745213 -0.226146
C73   C     C_R   0.673845 0.162028 0.227045 -0.193272
C74   C     C_R   0.304573 0.859654 0.754789 -0.226137
C75   C     C_R   0.837952 0.673822 0.227050 -0.193247
C76   C     C_R   0.140347 0.304574 0.754796 -0.226147
C77   C     C_R   0.326155 0.837973 0.227045 -0.193282
C78   C     C_R   0.695427 0.140346 0.754788 -0.226139
C79   C     C_R   0.162021 0.326149 0.227047 -0.193254
C80   C     C_R   0.859653 0.695427 0.754795 -0.226145
C81   C     C_R   0.673859 0.837985 0.772953 -0.193251
C82   C     C_R   0.304574 0.140349 0.245193 -0.226178
C83   C     C_R   0.837981 0.326146 0.772954 -0.193256
C84   C     C_R   0.140348 0.695427 0.245204 -0.226149
C85   C     C_R   0.326141 0.162014 0.772953 -0.193249
C86   C     C_R   0.695420 0.859637 0.245123 -0.226239
C87   C     C_R   0.162019 0.673853 0.772954 -0.193255
C88   C     C_R   0.859653 0.304573 0.245204 -0.226153
H1    H     H_    0.190398 0.670805 0.709127 0.196412
H2    H     H_    0.770425 0.368487 0.257960 0.201831
H3    H     H_    0.329203 0.190404 0.709128 0.196419
H4    H     H_    0.631586 0.770486 0.258197 0.201774
H5    H     H_    0.809602 0.329196 0.709127 0.196411
H6    H     H_    0.229575 0.631512 0.257960 0.201830
H7    H     H_    0.670796 0.809595 0.709128 0.196418
H8    H     H_    0.368481 0.229569 0.257985 0.201840
H9    H     H_    0.190384 0.329187 0.290876 0.196420
H10   H     H_    0.770424 0.631509 0.742042 0.201833
H11   H     H_    0.329176 0.809623 0.290876 0.196415
H12   H     H_    0.631505 0.229579 0.742057 0.201829
H13   H     H_    0.809693 0.670866 0.290898 0.196439
H14   H     H_    0.229575 0.368490 0.742040 0.201833
H15   H     H_    0.670825 0.190374 0.290878 0.196412
H16   H     H_    0.368494 0.770421 0.742056 0.201829
H17   H     H_    0.690378 0.170823 0.209124 0.196415
H18   H     H_    0.270423 0.868491 0.757946 0.201828
H19   H     H_    0.829136 0.690337 0.209127 0.196440
H20   H     H_    0.131511 0.270425 0.757960 0.201833
H21   H     H_    0.309622 0.829178 0.209123 0.196413
H22   H     H_    0.729577 0.131509 0.757946 0.201828
H23   H     H_    0.170810 0.309610 0.209126 0.196419
H24   H     H_    0.868490 0.729576 0.757958 0.201833
H25   H     H_    0.690404 0.829203 0.790872 0.196417
H26   H     H_    0.270428 0.131513 0.242018 0.201839
H27   H     H_    0.829194 0.309605 0.790874 0.196413
H28   H     H_    0.131511 0.729575 0.242040 0.201830
H29   H     H_    0.309597 0.170797 0.790873 0.196416
H30   H     H_    0.729554 0.868457 0.241874 0.201833
H31   H     H_    0.170806 0.690395 0.790874 0.196413
H32   H     H_    0.868490 0.270424 0.242040 0.201829
C89   C     C_R   0.184293 0.684291 0.750001 -0.039200
C90   C     C_R   0.815763 0.315761 0.250001 -0.034431
C91   C     C_R   0.315709 0.184292 0.750000 -0.039207
C92   C     C_R   0.684259 0.815774 0.250029 -0.034433
C93   C     C_R   0.815707 0.315709 0.750001 -0.039199
C94   C     C_R   0.184238 0.684238 0.250000 -0.034431
C95   C     C_R   0.684291 0.815708 0.750000 -0.039207
C96   C     C_R   0.315759 0.184236 0.250002 -0.034473
C97   C     C_R   0.184289 0.315707 0.250001 -0.039203
C98   C     C_R   0.815762 0.684238 0.750000 -0.034431
C99   C     C_R   0.315708 0.815710 0.250000 -0.039191
C100  C     C_R   0.684236 0.184239 0.750001 -0.034409
C101  C     C_R   0.815722 0.684294 0.250012 -0.039222
C102  C     C_R   0.184238 0.315762 0.750000 -0.034431
C103  C     C_R   0.684292 0.184290 0.250001 -0.039191
C104  C     C_R   0.315764 0.815761 0.750001 -0.034409
C105  C     C_R   0.118687 0.618686 0.750000 -0.252174
C106  C     C_R   0.881344 0.381343 0.250000 -0.283915
C107  C     C_R   0.381313 0.118686 0.750000 -0.252188
C108  C     C_R   0.618673 0.881353 0.250016 -0.283920
C109  C     C_R   0.881313 0.381314 0.750000 -0.252174
C110  C     C_R   0.118656 0.618656 0.250000 -0.283916
C111  C     C_R   0.618686 0.881313 0.750000 -0.252190
C112  C     C_R   0.381342 0.118656 0.250000 -0.283942
C113  C     C_R   0.118685 0.381313 0.250001 -0.252167
C114  C     C_R   0.881344 0.618656 0.750000 -0.283912
C115  C     C_R   0.381313 0.881315 0.250000 -0.252135
C116  C     C_R   0.618655 0.118656 0.750000 -0.283896
C117  C     C_R   0.881320 0.618686 0.250004 -0.252126
C118  C     C_R   0.118656 0.381344 0.750000 -0.283913
C119  C     C_R   0.618686 0.118686 0.250000 -0.252138
C120  C     C_R   0.381345 0.881344 0.750000 -0.283897
N1    N     N_R   0.215329 0.753752 0.766092 -0.148786
N2    N     N_R   0.784856 0.246187 0.234011 -0.153826
N3    N     N_R   0.246248 0.215330 0.766093 -0.148788
N4    N     N_R   0.753774 0.784809 0.233987 -0.153865
N5    N     N_R   0.784670 0.246247 0.766092 -0.148787
N6    N     N_R   0.215144 0.753813 0.234010 -0.153830
N7    N     N_R   0.753753 0.784670 0.766092 -0.148788
N8    N     N_R   0.246188 0.215146 0.234009 -0.153828
N9    N     N_R   0.215335 0.246254 0.233902 -0.148792
N10   N     N_R   0.784861 0.753817 0.765985 -0.153827
N11   N     N_R   0.246253 0.784666 0.233903 -0.148786
N12   N     N_R   0.753817 0.215138 0.765985 -0.153827
N13   N     N_R   0.784624 0.753697 0.233875 -0.148829
N14   N     N_R   0.215140 0.246183 0.765986 -0.153828
N15   N     N_R   0.753747 0.215334 0.233904 -0.148788
N16   N     N_R   0.246182 0.784861 0.765985 -0.153828
N17   N     N_R   0.715336 0.253744 0.266098 -0.148784
N18   N     N_R   0.284864 0.746180 0.734017 -0.153830
N19   N     N_R   0.746331 0.715398 0.266164 -0.148830
N20   N     N_R   0.253817 0.284861 0.734014 -0.153826
N21   N     N_R   0.284665 0.746254 0.266097 -0.148786
N22   N     N_R   0.715135 0.253821 0.734017 -0.153831
N23   N     N_R   0.253740 0.284659 0.266102 -0.148790
N24   N     N_R   0.746182 0.715138 0.734015 -0.153827
N25   N     N_R   0.715329 0.746247 0.733908 -0.148789
N26   N     N_R   0.284848 0.253806 0.265995 -0.153826
N27   N     N_R   0.746244 0.284674 0.733910 -0.148788
N28   N     N_R   0.253812 0.715145 0.265990 -0.153826
N29   N     N_R   0.284670 0.253753 0.733907 -0.148790
N30   N     N_R   0.715226 0.746254 0.266064 -0.153874
N31   N     N_R   0.253755 0.715327 0.733910 -0.148790
N32   N     N_R   0.746189 0.284853 0.265991 -0.153830
C121  C     C_R   0.281567 0.781564 0.750001 0.330235
C122  C     C_R   0.718496 0.218493 0.250001 0.335654
C123  C     C_R   0.218435 0.281565 0.750000 0.330249
C124  C     C_R   0.781522 0.718501 0.250017 0.335743
C125  C     C_R   0.718432 0.218436 0.750001 0.330234
C126  C     C_R   0.281505 0.781505 0.250000 0.335653
C127  C     C_R   0.781565 0.718434 0.750000 0.330249
C128  C     C_R   0.218492 0.281502 0.250002 0.335670
C129  C     C_R   0.281561 0.218433 0.250002 0.330265
C130  C     C_R   0.718495 0.781504 0.750000 0.335671
C131  C     C_R   0.218434 0.718435 0.250000 0.330238
C132  C     C_R   0.781503 0.281505 0.750001 0.335661
C133  C     C_R   0.718458 0.781578 0.250028 0.330330
C134  C     C_R   0.281505 0.218496 0.750000 0.335671
C135  C     C_R   0.781566 0.281564 0.250001 0.330239
C136  C     C_R   0.218497 0.718494 0.750001 0.335662
C137  C     C_R   0.461377 0.006474 0.554909 0.621504
C138  C     C_R   0.538578 0.006637 0.445084 0.621526
C139  C     C_R   0.993468 0.461395 0.554912 0.621516
C140  C     C_R   0.993464 0.538604 0.445088 0.621520
C141  C     C_R   0.538608 0.993545 0.554907 0.621503
C142  C     C_R   0.461398 0.993402 0.445085 0.621510
C143  C     C_R   0.006532 0.538605 0.554911 0.621518
C144  C     C_R   0.006536 0.461396 0.445088 0.621519
C145  C     C_R   0.961396 0.506536 0.054912 0.621520
C146  C     C_R   0.038605 0.506533 0.945088 0.621517
C147  C     C_R   0.493418 0.961405 0.054913 0.621525
C148  C     C_R   0.493493 0.038612 0.945090 0.621516
C149  C     C_R   0.038604 0.493464 0.054912 0.621520
C150  C     C_R   0.961395 0.493467 0.945089 0.621516
C151  C     C_R   0.506563 0.038601 0.054913 0.621509
C152  C     C_R   0.506498 0.961393 0.945091 0.621517
N33   N     N_R   0.499993 0.000008 0.567867 -0.314713
N34   N     N_R   0.499988 0.000017 0.432126 -0.314711
N35   N     N_R   1.000000 0.500000 0.567870 -0.314712
N36   N     N_R   1.000000 0.500000 0.432130 -0.314713
N37   N     N_R   0.000000 0.500000 0.067870 -0.314713
N38   N     N_R   1.000000 0.500000 0.932130 -0.314712
N39   N     N_R   0.499991 0.000003 0.067871 -0.314714
N40   N     N_R   0.499996 0.000002 0.932132 -0.314712
C153  C     C_R   0.540363 0.997787 0.527544 -0.069960
C154  C     C_R   0.459626 0.997627 0.472448 -0.069953
C155  C     C_R   0.002303 0.540369 0.527548 -0.069953
C156  C     C_R   0.002307 0.459632 0.472451 -0.069950
C157  C     C_R   0.459619 0.002239 0.527545 -0.069963
C158  C     C_R   0.540353 0.002410 0.472447 -0.069946
C159  C     C_R   0.997697 0.459632 0.527548 -0.069954
C160  C     C_R   0.997693 0.540368 0.472451 -0.069952
C161  C     C_R   0.040368 0.497694 0.027549 -0.069952
C162  C     C_R   0.959631 0.497697 0.972452 -0.069953
C163  C     C_R   0.502334 0.040369 0.027550 -0.069957
C164  C     C_R   0.502263 0.959632 0.972453 -0.069949
C165  C     C_R   0.959632 0.502307 0.027549 -0.069952
C166  C     C_R   0.040368 0.502303 0.972452 -0.069954
C167  C     C_R   0.497648 0.959637 0.027550 -0.069956
C168  C     C_R   0.497724 0.040373 0.972453 -0.069952
C169  C     C_R   0.499991 0.000014 0.513750 -0.024599
C170  C     C_R   0.499990 0.000017 0.486241 -0.024608
C171  C     C_R   1.000000 0.500000 0.513754 -0.024591
C172  C     C_R   1.000000 0.500000 0.486245 -0.024598
C173  C     C_R   1.000000 0.500000 0.013755 -0.024596
C174  C     C_R   0.000000 0.500000 0.986246 -0.024592
C175  C     C_R   0.499992 0.000003 0.013756 -0.024592
C176  C     C_R   0.499993 0.000002 0.986247 -0.024606
C177  C     C_R   0.580814 0.999065 0.513696 -0.051351
C178  C     C_R   0.419170 0.998729 0.486297 -0.051357
C179  C     C_R   0.001114 0.580822 0.513700 -0.051364
C180  C     C_R   0.001122 0.419178 0.486299 -0.051362
C181  C     C_R   0.419168 0.000967 0.513698 -0.051351
C182  C     C_R   0.580809 0.001308 0.486295 -0.051361
C183  C     C_R   0.998886 0.419178 0.513701 -0.051364
C184  C     C_R   0.998878 0.580821 0.486299 -0.051362
C185  C     C_R   0.080821 0.498879 0.013701 -0.051362
C186  C     C_R   0.919178 0.498885 0.986299 -0.051363
C187  C     C_R   0.501184 0.080823 0.013702 -0.051361
C188  C     C_R   0.501038 0.919180 0.986301 -0.051358
C189  C     C_R   0.919179 0.501121 0.013701 -0.051362
C190  C     C_R   0.080822 0.501115 0.986299 -0.051363
C191  C     C_R   0.498798 0.919182 0.013702 -0.051362
C192  C     C_R   0.498947 0.080825 0.986300 -0.051358
O53   O     O_2   0.425198 0.017402 0.568668 -0.519642
O54   O     O_2   0.574714 0.017705 0.431325 -0.519623
O55   O     O_2   0.982480 0.425235 0.568671 -0.519657
O56   O     O_2   0.982473 0.574763 0.431329 -0.519648
O57   O     O_2   0.574788 0.982612 0.568663 -0.519645
O58   O     O_2   0.425261 0.982336 0.431327 -0.519634
O59   O     O_2   0.017520 0.574765 0.568670 -0.519658
O60   O     O_2   0.017527 0.425237 0.431330 -0.519655
O61   O     O_2   0.925237 0.517527 0.068671 -0.519651
O62   O     O_2   0.074765 0.517521 0.931329 -0.519656
O63   O     O_2   0.482389 0.925256 0.068672 -0.519630
O64   O     O_2   0.482532 0.074780 0.931331 -0.519656
O65   O     O_2   0.074764 0.482474 0.068670 -0.519656
O66   O     O_2   0.925235 0.482479 0.931330 -0.519655
O67   O     O_2   0.517589 0.074750 0.068672 -0.519639
O68   O     O_2   0.517461 0.925224 0.931333 -0.519658
C193  C     C_R   0.977201 0.533219 0.890510 0.298830
C194  C     C_R   0.022802 0.533217 0.109490 0.298833
C195  C     C_R   0.466766 0.977220 0.890511 0.298830
C196  C     C_R   0.466801 0.022838 0.109493 0.298843
C197  C     C_R   0.022799 0.466781 0.890510 0.298830
C198  C     C_R   0.977198 0.466783 0.109490 0.298831
C199  C     C_R   0.533230 0.022782 0.890511 0.298831
C200  C     C_R   0.533186 0.977163 0.109491 0.298841
C201  C     C_R   0.477118 0.033179 0.390503 0.298838
C202  C     C_R   0.522755 0.033251 0.609488 0.298847
C203  C     C_R   0.966783 0.477197 0.390510 0.298834
C204  C     C_R   0.966781 0.522799 0.609490 0.298828
C205  C     C_R   0.522865 0.966843 0.390508 0.298840
C206  C     C_R   0.477237 0.966757 0.609487 0.298847
C207  C     C_R   0.033217 0.522803 0.390510 0.298832
C208  C     C_R   0.033219 0.477201 0.609490 0.298831
C209  C     C_R   0.976219 0.532690 0.863140 -0.159462
C210  C     C_R   0.023785 0.532689 0.136860 -0.159464
C211  C     C_R   0.467296 0.976235 0.863141 -0.159470
C212  C     C_R   0.467332 0.023818 0.136863 -0.159446
C213  C     C_R   0.023781 0.467309 0.863140 -0.159461
C214  C     C_R   0.976216 0.467311 0.136860 -0.159455
C215  C     C_R   0.532702 0.023765 0.863141 -0.159474
C216  C     C_R   0.532658 0.976180 0.136861 -0.159411
C217  C     C_R   0.476144 0.032646 0.363133 -0.159443
C218  C     C_R   0.523744 0.032719 0.636857 -0.159478
C219  C     C_R   0.967311 0.476215 0.363140 -0.159462
C220  C     C_R   0.967310 0.523781 0.636860 -0.159461
C221  C     C_R   0.523849 0.967370 0.363138 -0.159371
C222  C     C_R   0.476253 0.967285 0.636857 -0.159486
C223  C     C_R   0.032688 0.523785 0.363140 -0.159454
C224  C     C_R   0.032690 0.476219 0.636860 -0.159463
C225  C     C_R   1.000000 0.500000 0.849312 -0.155356
C226  C     C_R   0.000000 0.500000 0.150688 -0.155357
C227  C     C_R   0.499999 1.000000 0.849313 -0.155379
C228  C     C_R   0.499997 0.000000 0.150689 -0.155302
C229  C     C_R   0.499996 0.000004 0.349309 -0.155257
C230  C     C_R   0.499999 0.000001 0.650686 -0.155417
C231  C     C_R   1.000000 0.500000 0.349312 -0.155353
C232  C     C_R   0.000000 0.500000 0.650688 -0.155356
C233  C     C_R   1.000000 0.500000 0.904106 0.073688
C234  C     C_R   0.000000 0.500000 0.095894 0.073687
C235  C     C_R   0.499997 0.000002 0.904107 0.073683
C236  C     C_R   0.499993 0.000002 0.095896 0.073679
C237  C     C_R   0.499989 0.000012 0.404102 0.073694
C238  C     C_R   0.499995 0.000005 0.595891 0.073676
C239  C     C_R   1.000000 0.500000 0.404106 0.073689
C240  C     C_R   1.000000 0.500000 0.595894 0.073688
N41   N     N_R   0.127684 0.611928 0.701941 0.228993
O69   O     O_R   0.157503 0.603005 0.684565 -0.353365
O70   O     O_R   0.086390 0.611129 0.695191 -0.388945
N42   N     N_R   0.822655 0.437839 0.256436 0.228882
O71   O     O_R   0.835606 0.466979 0.239543 -0.388350
O72   O     O_R   0.791517 0.448241 0.272682 -0.368213
N43   N     N_R   0.388082 0.127694 0.701941 0.228982
O73   O     O_R   0.397012 0.157517 0.684570 -0.353424
O74   O     O_R   0.388878 0.086401 0.695188 -0.388893
N44   N     N_R   0.562229 0.822703 0.256703 0.229065
O75   O     O_R   0.533024 0.835382 0.239779 -0.387884
O76   O     O_R   0.551910 0.791794 0.273120 -0.368508
N45   N     N_R   0.872315 0.388071 0.701940 0.228992
O77   O     O_R   0.842496 0.396996 0.684565 -0.353368
O78   O     O_R   0.913610 0.388871 0.695191 -0.388950
N46   N     N_R   0.177345 0.562161 0.256435 0.228888
O79   O     O_R   0.164393 0.533020 0.239543 -0.388383
O80   O     O_R   0.208483 0.551758 0.272681 -0.368186
N47   N     N_R   0.611918 0.872305 0.701941 0.228982
O81   O     O_R   0.602987 0.842482 0.684570 -0.353424
O82   O     O_R   0.611121 0.913598 0.695188 -0.388893
N48   N     N_R   0.437832 0.177343 0.256464 0.228926
O83   O     O_R   0.466982 0.164414 0.239572 -0.388382
O84   O     O_R   0.448223 0.208463 0.272725 -0.368101
N49   N     N_R   0.127673 0.388064 0.298061 0.228992
O85   O     O_R   0.157488 0.396983 0.315439 -0.353353
O86   O     O_R   0.086376 0.388866 0.304807 -0.388957
N50   N     N_R   0.822654 0.562159 0.743567 0.228887
O87   O     O_R   0.835608 0.533020 0.760459 -0.388382
O88   O     O_R   0.791514 0.551756 0.727322 -0.368188
N51   N     N_R   0.388050 0.872340 0.298062 0.229060
O89   O     O_R   0.396958 0.842530 0.315446 -0.353092
O90   O     O_R   0.388855 0.913639 0.304802 -0.389018
N52   N     N_R   0.562155 0.177347 0.743584 0.228865
O91   O     O_R   0.533021 0.164379 0.760476 -0.388386
O92   O     O_R   0.551746 0.208499 0.727349 -0.368235
N53   N     N_R   0.872407 0.611992 0.298073 0.228964
O93   O     O_R   0.842618 0.603106 0.315473 -0.353386
O94   O     O_R   0.913715 0.611174 0.304792 -0.389009
N54   N     N_R   0.177346 0.437840 0.743565 0.228887
O95   O     O_R   0.164394 0.466980 0.760457 -0.388377
O96   O     O_R   0.208484 0.448243 0.727319 -0.368192
N55   N     N_R   0.611950 0.127658 0.298063 0.229019
O97   O     O_R   0.603042 0.157468 0.315446 -0.353234
O98   O     O_R   0.611145 0.086359 0.304803 -0.389190
N56   N     N_R   0.437844 0.822653 0.743583 0.228865
O99   O     O_R   0.466979 0.835620 0.760475 -0.388383
O100  O     O_R   0.448254 0.791502 0.727347 -0.368234
N57   N     N_R   0.627661 0.111949 0.201938 0.229033
O101  O     O_R   0.657472 0.103039 0.184555 -0.353197
O102  O     O_R   0.586363 0.111145 0.195197 -0.388994
N58   N     N_R   0.322654 0.937842 0.756418 0.228874
O103  O     O_R   0.335618 0.966975 0.739524 -0.388348
O104  O     O_R   0.291505 0.948252 0.772655 -0.368195
N59   N     N_R   0.888004 0.627618 0.201936 0.228969
O105  O     O_R   0.896883 0.657412 0.184538 -0.353374
O106  O     O_R   0.888816 0.586312 0.195212 -0.388988
N60   N     N_R   0.062160 0.322654 0.756436 0.228888
O107  O     O_R   0.033020 0.335605 0.739544 -0.388376
O108  O     O_R   0.051758 0.291517 0.772683 -0.368192
N61   N     N_R   0.372338 0.888052 0.201937 0.229010
O109  O     O_R   0.342527 0.896964 0.184555 -0.353283
O110  O     O_R   0.413636 0.888857 0.195197 -0.389187
N62   N     N_R   0.677347 0.062158 0.756417 0.228873
O111  O     O_R   0.664381 0.033025 0.739523 -0.388352
O112  O     O_R   0.708495 0.051748 0.772653 -0.368193
N63   N     N_R   0.111936 0.372324 0.201940 0.228992
O113  O     O_R   0.103017 0.342508 0.184562 -0.353357
O114  O     O_R   0.111136 0.413620 0.195194 -0.388955
N64   N     N_R   0.937840 0.677346 0.756433 0.228887
O115  O     O_R   0.966980 0.664393 0.739541 -0.388380
O116  O     O_R   0.948244 0.708486 0.772678 -0.368186
N65   N     N_R   0.627693 0.888081 0.798059 0.228988
O117  O     O_R   0.657516 0.897011 0.815430 -0.353393
O118  O     O_R   0.586400 0.888878 0.804811 -0.388912
N66   N     N_R   0.322657 0.062164 0.243535 0.228914
O119  O     O_R   0.335588 0.033012 0.260426 -0.388441
O120  O     O_R   0.291537 0.051774 0.227274 -0.368168
N67   N     N_R   0.888073 0.372317 0.798060 0.228994
O121  O     O_R   0.896996 0.342498 0.815435 -0.353362
O122  O     O_R   0.888872 0.413612 0.804809 -0.388946
N68   N     N_R   0.062160 0.677345 0.243565 0.228881
O123  O     O_R   0.033020 0.664393 0.260457 -0.388349
O124  O     O_R   0.051758 0.708483 0.227319 -0.368212
N69   N     N_R   0.372307 0.111921 0.798059 0.228987
O125  O     O_R   0.342484 0.102989 0.815431 -0.353394
O126  O     O_R   0.413600 0.111122 0.804811 -0.388912
N70   N     N_R   0.677335 0.937810 0.243369 0.229002
O127  O     O_R   0.664527 0.967024 0.260255 -0.388026
O128  O     O_R   0.708357 0.948128 0.227026 -0.368489
N71   N     N_R   0.111928 0.627682 0.798060 0.228994
O129  O     O_R   0.103004 0.657501 0.815435 -0.353366
O130  O     O_R   0.111128 0.586387 0.804809 -0.388950
N72   N     N_R   0.937840 0.322655 0.243565 0.228888
O131  O     O_R   0.966980 0.335607 0.260457 -0.388383
O132  O     O_R   0.948242 0.291517 0.227319 -0.368188
C241  C     C_R   0.623760 0.000948 0.527487 0.149138
C242  C     C_R   0.651014 0.963653 0.528609 -0.090209
C243  C     C_R   0.691640 0.965836 0.541313 -0.114004
C244  C     C_R   0.705207 0.005151 0.552960 -0.106089
C245  C     C_R   0.678191 0.042379 0.551898 -0.086188
C246  C     C_R   0.637587 0.040379 0.539164 -0.074368
H33   H     H_    0.640762 0.933066 0.519643 0.133396
H34   H     H_    0.712607 0.937056 0.542134 0.143695
H35   H     H_    0.736655 0.006769 0.562802 0.142476
H36   H     H_    0.688733 0.072791 0.560921 0.154161
H37   H     H_    0.616907 0.069403 0.538379 0.161240
C247  C     C_R   0.376215 0.000421 0.472508 0.149185
C248  C     C_R   0.349132 0.963003 0.471382 -0.090217
C249  C     C_R   0.308494 0.965004 0.458681 -0.113966
C250  C     C_R   0.294747 0.004261 0.447039 -0.106032
C251  C     C_R   0.321593 0.041612 0.448106 -0.086272
C252  C     C_R   0.362207 0.039793 0.460838 -0.074428
H38   H     H_    0.359524 0.932458 0.480343 0.133411
H39   H     H_    0.287660 0.936128 0.457856 0.143711
H40   H     H_    0.263290 0.005739 0.437199 0.142478
H41   H     H_    0.310910 0.071980 0.439088 0.154135
H42   H     H_    0.382754 0.068913 0.461626 0.161194
C253  C     C_R   0.999324 0.623773 0.527490 0.149181
C254  C     C_R   0.036680 0.650941 0.528617 -0.090212
C255  C     C_R   0.034585 0.691574 0.541320 -0.113989
C256  C     C_R   0.995296 0.705232 0.552960 -0.106055
C257  C     C_R   0.958007 0.678301 0.551892 -0.086256
C258  C     C_R   0.959919 0.637692 0.539159 -0.074413
H43   H     H_    0.067249 0.640617 0.519657 0.133401
H44   H     H_    0.063413 0.712474 0.542146 0.143696
H45   H     H_    0.993745 0.736685 0.562800 0.142477
H46   H     H_    0.927614 0.688914 0.560908 0.154146
H47   H     H_    0.930847 0.617078 0.538369 0.161205
C259  C     C_R   0.999335 0.376227 0.472509 0.149183
C260  C     C_R   0.036694 0.349063 0.471382 -0.090211
C261  C     C_R   0.034602 0.308430 0.458680 -0.113971
C262  C     C_R   0.995315 0.294768 0.447040 -0.106061
C263  C     C_R   0.958023 0.321694 0.448107 -0.086274
C264  C     C_R   0.959932 0.362304 0.460840 -0.074412
H48   H     H_    0.067261 0.359390 0.480342 0.133408
H49   H     H_    0.063432 0.287534 0.457854 0.143710
H50   H     H_    0.993767 0.263314 0.437199 0.142474
H51   H     H_    0.927631 0.311077 0.439091 0.154133
H52   H     H_    0.930858 0.382914 0.461630 0.161200
C265  C     C_R   0.376222 0.999084 0.527490 0.149141
C266  C     C_R   0.348972 0.036381 0.528616 -0.090210
C267  C     C_R   0.308346 0.034199 0.541320 -0.114004
C268  C     C_R   0.294776 0.994882 0.552965 -0.106084
C269  C     C_R   0.321789 0.957652 0.551900 -0.086197
C270  C     C_R   0.362392 0.959652 0.539164 -0.074373
H53   H     H_    0.359226 0.066970 0.519652 0.133397
H54   H     H_    0.287382 0.062980 0.542144 0.143696
H55   H     H_    0.263328 0.993265 0.562808 0.142477
H56   H     H_    0.311245 0.927239 0.560920 0.154159
H57   H     H_    0.383069 0.930625 0.538377 0.161236
C271  C     C_R   0.623764 0.999622 0.472505 0.149173
C272  C     C_R   0.650842 0.037044 0.471380 -0.090224
C273  C     C_R   0.691479 0.035048 0.458677 -0.113967
C274  C     C_R   0.705231 0.995794 0.447034 -0.106046
C275  C     C_R   0.678389 0.958439 0.448100 -0.086261
C276  C     C_R   0.637776 0.960252 0.460834 -0.074385
H58   H     H_    0.640447 0.067586 0.480341 0.133412
H59   H     H_    0.712311 0.063927 0.457852 0.143709
H60   H     H_    0.736687 0.994320 0.437193 0.142473
H61   H     H_    0.689075 0.928073 0.439082 0.154131
H62   H     H_    0.617232 0.931130 0.461622 0.161211
C277  C     C_R   0.000676 0.376227 0.527491 0.149182
C278  C     C_R   0.963320 0.349059 0.528618 -0.090215
C279  C     C_R   0.965415 0.308426 0.541320 -0.113989
C280  C     C_R   0.004704 0.294768 0.552960 -0.106056
C281  C     C_R   0.041993 0.321699 0.551893 -0.086259
C282  C     C_R   0.040081 0.362308 0.539160 -0.074411
H63   H     H_    0.932751 0.359383 0.519658 0.133400
H64   H     H_    0.936587 0.287526 0.542146 0.143694
H65   H     H_    0.006255 0.263315 0.562801 0.142477
H66   H     H_    0.072386 0.311085 0.560909 0.154145
H67   H     H_    0.069153 0.382922 0.538370 0.161205
C283  C     C_R   0.000664 0.623773 0.472509 0.149182
C284  C     C_R   0.963306 0.650936 0.471382 -0.090210
C285  C     C_R   0.965397 0.691570 0.458679 -0.113970
C286  C     C_R   0.004685 0.705232 0.447039 -0.106054
C287  C     C_R   0.041977 0.678306 0.448107 -0.086271
C288  C     C_R   0.040068 0.637696 0.460840 -0.074414
H68   H     H_    0.932738 0.640609 0.480342 0.133408
H69   H     H_    0.936567 0.712466 0.457854 0.143712
H70   H     H_    0.006232 0.736686 0.437198 0.142477
H71   H     H_    0.072368 0.688923 0.439091 0.154136
H72   H     H_    0.069142 0.617087 0.461630 0.161202
C289  C     C_R   0.123773 0.500666 0.027491 0.149183
C290  C     C_R   0.150937 0.463307 0.028618 -0.090213
C291  C     C_R   0.191570 0.465399 0.041320 -0.113975
C292  C     C_R   0.205232 0.504687 0.052960 -0.106059
C293  C     C_R   0.178305 0.541979 0.051892 -0.086268
C294  C     C_R   0.137696 0.540069 0.039159 -0.074413
H73   H     H_    0.140610 0.432740 0.019658 0.133406
H74   H     H_    0.212467 0.436569 0.042146 0.143706
H75   H     H_    0.236685 0.506235 0.062801 0.142474
H76   H     H_    0.188922 0.572370 0.060908 0.154136
H77   H     H_    0.117086 0.569143 0.038370 0.161202
C295  C     C_R   0.876228 0.500675 0.972510 0.149182
C296  C     C_R   0.849060 0.463319 0.971383 -0.090214
C297  C     C_R   0.808427 0.465413 0.958680 -0.113984
C298  C     C_R   0.794768 0.504702 0.947040 -0.106056
C299  C     C_R   0.821699 0.541992 0.948108 -0.086261
C300  C     C_R   0.862308 0.540080 0.960841 -0.074412
H78   H     H_    0.859383 0.432750 0.980342 0.133404
H79   H     H_    0.787527 0.436585 0.957854 0.143700
H80   H     H_    0.763315 0.506253 0.937199 0.142476
H81   H     H_    0.811085 0.572385 0.939092 0.154142
H82   H     H_    0.882921 0.569152 0.961631 0.161203
C301  C     C_R   0.499436 0.123776 0.027492 0.149171
C302  C     C_R   0.536817 0.150909 0.028618 -0.090210
C303  C     C_R   0.534762 0.191543 0.041321 -0.113973
C304  C     C_R   0.495487 0.205238 0.052962 -0.106052
C305  C     C_R   0.458172 0.178343 0.051896 -0.086252
C306  C     C_R   0.460045 0.137732 0.039163 -0.074409
H83   H     H_    0.567375 0.140556 0.019657 0.133406
H84   H     H_    0.563610 0.212416 0.042146 0.143707
H85   H     H_    0.493967 0.236693 0.062803 0.142477
H86   H     H_    0.427790 0.188984 0.060913 0.154141
H87   H     H_    0.430953 0.117146 0.038374 0.161204
C307  C     C_R   0.499211 0.876231 0.972511 0.149172
C308  C     C_R   0.536543 0.849030 0.971386 -0.090215
C309  C     C_R   0.534414 0.808399 0.958683 -0.113989
C310  C     C_R   0.495115 0.794776 0.947041 -0.106072
C311  C     C_R   0.457849 0.821740 0.948106 -0.086241
C312  C     C_R   0.459796 0.862347 0.960839 -0.074395
H88   H     H_    0.567119 0.859326 0.980348 0.133401
H89   H     H_    0.563223 0.787474 0.957859 0.143700
H90   H     H_    0.493537 0.763324 0.937200 0.142476
H91   H     H_    0.427449 0.811153 0.939088 0.154146
H92   H     H_    0.430743 0.882986 0.961627 0.161215
C313  C     C_R   0.876228 0.499335 0.027491 0.149182
C314  C     C_R   0.849064 0.536693 0.028618 -0.090213
C315  C     C_R   0.808431 0.534602 0.041321 -0.113972
C316  C     C_R   0.794768 0.495314 0.052961 -0.106054
C317  C     C_R   0.821695 0.458022 0.051893 -0.086267
C318  C     C_R   0.862304 0.459931 0.039160 -0.074413
H93   H     H_    0.859390 0.567261 0.019658 0.133407
H94   H     H_    0.787534 0.563431 0.042147 0.143708
H95   H     H_    0.763315 0.493766 0.062802 0.142477
H96   H     H_    0.811078 0.427630 0.060909 0.154139
H97   H     H_    0.882914 0.430857 0.038370 0.161202
C319  C     C_R   0.123773 0.499325 0.972509 0.149180
C320  C     C_R   0.150940 0.536681 0.971382 -0.090212
C321  C     C_R   0.191573 0.534587 0.958679 -0.113986
C322  C     C_R   0.205232 0.495298 0.947040 -0.106057
C323  C     C_R   0.178301 0.458008 0.948107 -0.086261
C324  C     C_R   0.137692 0.459920 0.960840 -0.074411
H98   H     H_    0.140617 0.567250 0.980342 0.133402
H99   H     H_    0.212473 0.563415 0.957853 0.143699
H100  H     H_    0.236685 0.493747 0.937199 0.142476
H101  H     H_    0.188915 0.427616 0.939091 0.154142
H102  H     H_    0.117079 0.430848 0.961630 0.161203
C325  C     C_R   0.500544 0.876230 0.027493 0.149167
C326  C     C_R   0.463161 0.849098 0.028618 -0.090214
C327  C     C_R   0.465215 0.808463 0.041321 -0.113977
C328  C     C_R   0.504488 0.794767 0.052963 -0.106065
C329  C     C_R   0.541805 0.821661 0.051897 -0.086241
C330  C     C_R   0.539934 0.862272 0.039164 -0.074388
H103  H     H_    0.432604 0.859451 0.019657 0.133406
H104  H     H_    0.436366 0.787592 0.042146 0.143705
H105  H     H_    0.506007 0.763312 0.062804 0.142471
H106  H     H_    0.572185 0.811018 0.060915 0.154138
H107  H     H_    0.569026 0.882857 0.038375 0.161213
C331  C     C_R   0.500774 0.123774 0.972510 0.149174
C332  C     C_R   0.463441 0.150974 0.971384 -0.090218
C333  C     C_R   0.465571 0.191605 0.958681 -0.113989
C334  C     C_R   0.504871 0.205229 0.947040 -0.106069
C335  C     C_R   0.542137 0.178267 0.948106 -0.086247
C336  C     C_R   0.540190 0.137659 0.960840 -0.074396
H108  H     H_    0.432864 0.140677 0.980345 0.133402
H109  H     H_    0.436761 0.212529 0.957856 0.143701
H110  H     H_    0.506448 0.236681 0.937199 0.142476
H111  H     H_    0.572538 0.188854 0.939089 0.154145
H112  H     H_    0.569244 0.117021 0.961629 0.161212
N73   N     N_R   0.954776 0.567330 0.904695 0.209008
O133  O     O_R   0.913308 0.575311 0.900418 -0.371938
O134  O     O_R   0.975236 0.589150 0.922793 -0.392482
N74   N     N_R   0.045232 0.567327 0.095305 0.209009
O135  O     O_R   0.086700 0.575304 0.099583 -0.371938
O136  O     O_R   0.024774 0.589148 0.077206 -0.392483
N75   N     N_R   0.432640 0.954816 0.904696 0.209007
O137  O     O_R   0.424635 0.913352 0.900420 -0.371959
O138  O     O_R   0.410830 0.975291 0.922792 -0.392491
N76   N     N_R   0.432714 0.045303 0.095309 0.209009
O139  O     O_R   0.424778 0.086778 0.099589 -0.371925
O140  O     O_R   0.410870 0.024869 0.077211 -0.392499
N77   N     N_R   0.045224 0.432670 0.904695 0.209008
O141  O     O_R   0.086692 0.424689 0.900418 -0.371939
O142  O     O_R   0.024764 0.410850 0.922794 -0.392482
N78   N     N_R   0.954769 0.432673 0.095305 0.209008
O143  O     O_R   0.913301 0.424695 0.099583 -0.371936
O144  O     O_R   0.975227 0.410852 0.077207 -0.392481
N79   N     N_R   0.567355 0.045187 0.904697 0.209010
O145  O     O_R   0.575361 0.086650 0.900420 -0.371953
O146  O     O_R   0.589163 0.024713 0.922794 -0.392487
N80   N     N_R   0.567267 0.954694 0.095305 0.208978
O147  O     O_R   0.575191 0.913215 0.099580 -0.371941
O148  O     O_R   0.589114 0.975128 0.077207 -0.392518
N81   N     N_R   0.454614 0.067242 0.404685 0.209016
O149  O     O_R   0.413132 0.075135 0.400402 -0.371891
O150  O     O_R   0.475021 0.089108 0.422785 -0.392498
N82   N     N_R   0.545133 0.067395 0.595303 0.209000
O151  O     O_R   0.586591 0.075429 0.599576 -0.371998
O152  O     O_R   0.524639 0.089193 0.577209 -0.392516
N83   N     N_R   0.932674 0.454768 0.404695 0.209008
O153  O     O_R   0.924696 0.413300 0.400417 -0.371940
O154  O     O_R   0.910852 0.475226 0.422793 -0.392482
N84   N     N_R   0.932670 0.545224 0.595305 0.209008
O155  O     O_R   0.924688 0.586691 0.599582 -0.371937
O156  O     O_R   0.910850 0.524764 0.577207 -0.392482
N85   N     N_R   0.545373 0.932790 0.404696 0.208963
O157  O     O_R   0.586863 0.924916 0.400424 -0.371931
O158  O     O_R   0.524964 0.910921 0.422794 -0.392523
N86   N     N_R   0.454858 0.932615 0.595302 0.209005
O159  O     O_R   0.413400 0.924581 0.599577 -0.371986
O160  O     O_R   0.475349 0.910821 0.577206 -0.392505
N87   N     N_R   0.067326 0.545232 0.404695 0.209007
O161  O     O_R   0.075304 0.586700 0.400417 -0.371936
O162  O     O_R   0.089148 0.524774 0.422793 -0.392481
N88   N     N_R   0.067330 0.454776 0.595305 0.209008
O163  O     O_R   0.075312 0.413308 0.599583 -0.371937
O164  O     O_R   0.089150 0.475236 0.577206 -0.392482
C337  C     C_R   0.949937 0.566393 0.849132 0.175999
C338  C     C_R   0.911628 0.554166 0.835626 -0.095600
C339  C     C_R   0.887371 0.585775 0.822007 -0.135530
C340  C     C_R   0.901118 0.629690 0.821836 -0.088820
C341  C     C_R   0.939226 0.642061 0.835203 -0.066031
C342  C     C_R   0.963600 0.610566 0.848848 -0.043134
H113  H     H_    0.900763 0.520197 0.835582 0.158808
H114  H     H_    0.857967 0.576234 0.811545 0.172229
H115  H     H_    0.882261 0.654123 0.811333 0.154153
H116  H     H_    0.949904 0.676056 0.834962 0.173376
H117  H     H_    0.993203 0.620449 0.859030 0.163054
C343  C     C_R   0.050070 0.566389 0.150868 0.176010
C344  C     C_R   0.088377 0.554159 0.164375 -0.095603
C345  C     C_R   0.112637 0.585765 0.177994 -0.135532
C346  C     C_R   0.098895 0.629682 0.178164 -0.088820
C347  C     C_R   0.060790 0.642056 0.164796 -0.066065
C348  C     C_R   0.036412 0.610564 0.151152 -0.043172
H118  H     H_    0.099237 0.520189 0.164420 0.158814
H119  H     H_    0.142039 0.576222 0.188456 0.172236
H120  H     H_    0.117755 0.654113 0.188667 0.154147
H121  H     H_    0.050116 0.676052 0.165037 0.173361
H122  H     H_    0.006811 0.620449 0.140969 0.163040
C349  C     C_R   0.433582 0.949968 0.849134 0.176014
C350  C     C_R   0.445790 0.911649 0.835632 -0.095567
C351  C     C_R   0.414170 0.887406 0.822013 -0.135531
C352  C     C_R   0.370263 0.901176 0.821838 -0.088788
C353  C     C_R   0.357910 0.939293 0.835201 -0.066034
C354  C     C_R   0.389416 0.963654 0.848846 -0.043123
H123  H     H_    0.479753 0.900767 0.835591 0.158778
H124  H     H_    0.423697 0.857994 0.811554 0.172192
H125  H     H_    0.345822 0.882329 0.811335 0.154171
H126  H     H_    0.323922 0.949990 0.834957 0.173376
H127  H     H_    0.379547 0.993264 0.859025 0.163067
C355  C     C_R   0.433659 0.050133 0.150873 0.175976
C356  C     C_R   0.445927 0.088422 0.164385 -0.095671
C357  C     C_R   0.414344 0.112711 0.178005 -0.135536
C358  C     C_R   0.370413 0.099016 0.178171 -0.088925
C359  C     C_R   0.358000 0.060927 0.164799 -0.066021
C360  C     C_R   0.389469 0.036521 0.151154 -0.043143
H128  H     H_    0.479909 0.099248 0.164433 0.158881
H129  H     H_    0.423917 0.142101 0.188471 0.172321
H130  H     H_    0.346000 0.117899 0.188675 0.154110
H131  H     H_    0.323993 0.050288 0.165037 0.173381
H132  H     H_    0.379553 0.006933 0.140967 0.163026
C361  C     C_R   0.050063 0.433607 0.849132 0.175998
C362  C     C_R   0.088372 0.445834 0.835626 -0.095598
C363  C     C_R   0.112629 0.414225 0.822007 -0.135537
C364  C     C_R   0.098883 0.370310 0.821837 -0.088818
C365  C     C_R   0.060775 0.357939 0.835204 -0.066025
C366  C     C_R   0.036400 0.389433 0.848848 -0.043137
H133  H     H_    0.099236 0.479803 0.835582 0.158808
H134  H     H_    0.142033 0.423766 0.811545 0.172227
H135  H     H_    0.117741 0.345877 0.811334 0.154154
H136  H     H_    0.050097 0.323944 0.834963 0.173379
H137  H     H_    0.006798 0.379550 0.859031 0.163054
C367  C     C_R   0.949931 0.433611 0.150868 0.175980
C368  C     C_R   0.911624 0.445840 0.164375 -0.095586
C369  C     C_R   0.887364 0.414233 0.177994 -0.135521
C370  C     C_R   0.901106 0.370317 0.178164 -0.088840
C371  C     C_R   0.939212 0.357943 0.164797 -0.066033
C372  C     C_R   0.963589 0.389436 0.151152 -0.043138
H138  H     H_    0.900763 0.479810 0.164419 0.158850
H139  H     H_    0.857961 0.423776 0.188456 0.172245
H140  H     H_    0.882246 0.345886 0.188668 0.154151
H141  H     H_    0.949887 0.323948 0.165037 0.173376
H142  H     H_    0.993191 0.379551 0.140969 0.163051
C373  C     C_R   0.566418 0.050032 0.849134 0.176012
C374  C     C_R   0.610583 0.036344 0.848847 -0.043129
C375  C     C_R   0.642090 0.060704 0.835202 -0.066034
C376  C     C_R   0.629739 0.098822 0.821839 -0.088784
C377  C     C_R   0.585832 0.112593 0.822013 -0.135530
C378  C     C_R   0.554211 0.088350 0.835632 -0.095561
H143  H     H_    0.620450 0.006734 0.859027 0.163066
H144  H     H_    0.676078 0.050007 0.834959 0.173374
H145  H     H_    0.654181 0.117667 0.811335 0.154173
H146  H     H_    0.576306 0.142004 0.811553 0.172190
H147  H     H_    0.520248 0.099233 0.835590 0.158778
C379  C     C_R   0.566323 0.949850 0.150869 0.176035
C380  C     C_R   0.610525 0.963423 0.151131 -0.043224
C381  C     C_R   0.641987 0.938992 0.164766 -0.065759
C382  C     C_R   0.629555 0.900919 0.178147 -0.088689
C383  C     C_R   0.585611 0.887266 0.178003 -0.135815
C384  C     C_R   0.554035 0.911577 0.164392 -0.095811
H148  H     H_    0.620456 0.992996 0.140935 0.163031
H149  H     H_    0.676004 0.949598 0.164987 0.173503
H150  H     H_    0.653964 0.882015 0.188641 0.154137
H151  H     H_    0.576022 0.857890 0.188479 0.172096
H152  H     H_    0.520044 0.900781 0.164454 0.158812
C385  C     C_R   0.449801 0.066295 0.349120 0.175939
C386  C     C_R   0.411530 0.053989 0.335602 -0.095735
C387  C     C_R   0.387214 0.085549 0.321981 -0.135493
C388  C     C_R   0.400865 0.129494 0.321818 -0.089065
C389  C     C_R   0.438936 0.141944 0.335196 -0.066064
C390  C     C_R   0.463369 0.110498 0.348843 -0.043129
H153  H     H_    0.400739 0.019996 0.335551 0.158943
H154  H     H_    0.357839 0.075948 0.311510 0.172434
H155  H     H_    0.381963 0.153889 0.311312 0.154057
H156  H     H_    0.449541 0.175962 0.334962 0.173359
H157  H     H_    0.492941 0.120443 0.359035 0.163000
C391  C     C_R   0.549996 0.066446 0.650864 0.176039
C392  C     C_R   0.588326 0.054258 0.664361 -0.095538
C393  C     C_R   0.612555 0.085889 0.677979 -0.135553
C394  C     C_R   0.598760 0.129788 0.678158 -0.088723
C395  C     C_R   0.560631 0.142121 0.664800 -0.066015
C396  C     C_R   0.536284 0.110604 0.651156 -0.043119
H158  H     H_    0.599227 0.020301 0.664400 0.158746
H159  H     H_    0.641974 0.076378 0.688436 0.172131
H160  H     H_    0.617595 0.154239 0.688661 0.154200
H161  H     H_    0.549915 0.176104 0.665047 0.173388
H162  H     H_    0.506665 0.120457 0.640981 0.163083
C397  C     C_R   0.933611 0.449930 0.349132 0.176005
C398  C     C_R   0.945841 0.411623 0.335625 -0.095607
C399  C     C_R   0.914235 0.387363 0.322006 -0.135532
C400  C     C_R   0.870318 0.401104 0.321836 -0.088821
C401  C     C_R   0.857944 0.439210 0.335204 -0.066067
C402  C     C_R   0.889436 0.463588 0.348848 -0.043163
H163  H     H_    0.979811 0.400763 0.335580 0.158817
H164  H     H_    0.923778 0.357961 0.311544 0.172236
H165  H     H_    0.845887 0.382244 0.311333 0.154146
H166  H     H_    0.823948 0.449884 0.334963 0.173361
H167  H     H_    0.879551 0.493189 0.359031 0.163045
C403  C     C_R   0.933607 0.550063 0.650868 0.176000
C404  C     C_R   0.945833 0.588372 0.664373 -0.095598
C405  C     C_R   0.914225 0.612629 0.677992 -0.135532
C406  C     C_R   0.870310 0.598881 0.678164 -0.088819
C407  C     C_R   0.857939 0.560773 0.664797 -0.066029
C408  C     C_R   0.889433 0.536399 0.651152 -0.043135
H168  H     H_    0.979802 0.599237 0.664418 0.158807
H169  H     H_    0.923765 0.642033 0.688454 0.172229
H170  H     H_    0.845877 0.617738 0.688667 0.154153
H171  H     H_    0.823944 0.550094 0.665038 0.173376
H172  H     H_    0.879551 0.506796 0.640970 0.163053
C409  C     C_R   0.550222 0.933737 0.349131 0.175955
C410  C     C_R   0.588473 0.946074 0.335603 -0.095878
C411  C     C_R   0.612834 0.914525 0.322001 -0.135791
C412  C     C_R   0.599251 0.870559 0.321870 -0.088806
C413  C     C_R   0.561199 0.858078 0.335257 -0.065621
C414  C     C_R   0.536718 0.889514 0.348882 -0.043249
H173  H     H_    0.599217 0.980081 0.335531 0.158894
H174  H     H_    0.642194 0.924150 0.311522 0.172271
H175  H     H_    0.618195 0.846171 0.311385 0.154136
H176  H     H_    0.550648 0.824043 0.335048 0.173553
H177  H     H_    0.507163 0.879543 0.359083 0.163012
C415  C     C_R   0.450003 0.933555 0.650863 0.176037
C416  C     C_R   0.411674 0.945741 0.664362 -0.095528
C417  C     C_R   0.387447 0.914107 0.677980 -0.135553
C418  C     C_R   0.401244 0.870208 0.678157 -0.088711
C419  C     C_R   0.439372 0.857878 0.664797 -0.066012
C420  C     C_R   0.463716 0.889397 0.651153 -0.043129
H178  H     H_    0.400772 0.979697 0.664403 0.158746
H179  H     H_    0.358029 0.923617 0.688438 0.172125
H180  H     H_    0.382410 0.845756 0.688660 0.154203
H181  H     H_    0.450089 0.823895 0.665042 0.173385
H182  H     H_    0.493335 0.879547 0.640976 0.163081
C421  C     C_R   0.066388 0.550070 0.349132 0.175974
C422  C     C_R   0.110563 0.536412 0.348848 -0.043138
C423  C     C_R   0.142056 0.560790 0.335203 -0.066032
C424  C     C_R   0.129681 0.598896 0.321836 -0.088846
C425  C     C_R   0.085765 0.612637 0.322006 -0.135521
C426  C     C_R   0.054158 0.588377 0.335625 -0.095581
H183  H     H_    0.120449 0.506811 0.359030 0.163052
H184  H     H_    0.176051 0.550115 0.334962 0.173376
H185  H     H_    0.154112 0.617756 0.311332 0.154151
H186  H     H_    0.076222 0.642040 0.311543 0.172248
H187  H     H_    0.020188 0.599237 0.335580 0.158865
C427  C     C_R   0.066393 0.449937 0.650868 0.175999
C428  C     C_R   0.110567 0.463600 0.651152 -0.043137
C429  C     C_R   0.142061 0.439226 0.664796 -0.066026
C430  C     C_R   0.129690 0.401118 0.678163 -0.088816
C431  C     C_R   0.085775 0.387371 0.677993 -0.135535
C432  C     C_R   0.054166 0.411628 0.664373 -0.095599
H188  H     H_    0.120449 0.493203 0.640970 0.163053
H189  H     H_    0.176056 0.449904 0.665037 0.173377
H190  H     H_    0.154123 0.382260 0.688666 0.154154
H191  H     H_    0.076234 0.357967 0.688455 0.172226
H192  H     H_    0.020197 0.400763 0.664418 0.158806

loop_
_geom_bond_atom_site_label_1
_geom_bond_atom_site_label_2
_geom_bond_distance
_ccdc_geom_bond_type
C148  C168  1.415238 A    
N51   O89   1.301320 A    
C321  C322  1.398150 A    
C141  N33   1.363414 A    
C19   C112  1.476057 S    
C6    C227  1.483203 S    
C200  C216  1.409149 A    
C75   H19   1.083636 S    
C422  H183  1.083079 S    
Zn5   O51   1.923406 S    
C143  N35   1.363399 A    
C23   C108  1.476149 S    
C53   N69   1.437782 S    
N65   O117  1.301316 A    
N8    C129  1.357117 A    
C209  C337  1.484810 S    
C196  C212  1.409143 A    
C257  C258  1.397867 A    
C379  C380  1.404382 A    
N73   O133  1.301287 A    
N88   O164  1.301154 A    
C400  H165  1.082090 S    
Zn8   O4    1.935081 S    
C281  H66   1.082256 S    
C381  C382  1.397852 A    
N43   O74   1.301604 A    
Zn1   O40   1.923383 S    
C77   C99   1.397794 A    
Zn2   O39   1.923385 S    
N41   O70   1.301605 A    
C67   C99   1.397799 A    
C291  H74   1.082245 S    
C219  C397  1.484815 S    
C316  H95   1.082270 S    
C206  C238  1.409626 A    
C213  C225  1.419145 A    
C311  C312  1.397866 A    
C46   N62   1.437309 S    
C428  C429  1.398623 A    
Zn7   O3    1.935075 S    
Zn16  O9    1.921374 S    
C223  C421  1.484809 S    
C429  C430  1.397856 A    
C55   C105  1.419829 A    
C263  C264  1.397865 A    
C293  C294  1.397862 A    
N63   O113  1.301311 A    
C2    C231  1.483173 S    
C290  H73   1.083009 S    
C87   C89   1.397792 A    
Zn13  O35   1.923406 S    
N37   C234  1.442434 S    
O34   C22   1.277771 A    
Zn14  O36   1.923408 S    
C243  C244  1.398172 A    
C33   C113  1.419813 A    
C340  C341  1.397857 A    
C415  C420  1.404382 A    
C48   N64   1.437310 S    
C389  H156  1.082269 S    
C89   C136  1.469083 S    
Zn3   O3    1.935072 S    
C290  C291  1.398005 A    
C90   C135  1.468778 S    
C257  H46   1.082252 S    
C296  H78   1.083007 S    
Zn13  O4    1.935072 S    
C138  C158  1.415224 A    
C26   C58   1.399183 A    
C298  H80   1.082269 S    
C54   N70   1.437255 S    
C248  H38   1.082998 S    
C147  O63   1.348704 S    
C306  H87   1.083132 S    
C271  C276  1.404167 A    
C373  C378  1.405276 A    
C188  C307  1.486050 S    
C138  N34   1.363418 A    
C350  C351  1.398457 A    
C251  H41   1.082258 S    
C164  C176  1.418487 A    
C424  H185  1.082084 S    
C52   C110  1.419218 A    
C260  H48   1.083011 S    
C137  O53   1.348705 S    
C281  C282  1.397864 A    
C166  C174  1.418485 A    
C180  C183  1.412001 A    
C46   C116  1.419216 A    
N17   C122  1.357161 A    
C100  C125  1.468778 S    
C199  N79   1.438833 S    
C299  C300  1.397866 A    
C36   C116  1.419215 A    
C267  C268  1.398174 A    
N79   O146  1.301159 A    
C253  C258  1.404160 A    
N21   C126  1.357148 A    
C256  H45   1.082270 S    
C208  C240  1.409614 A    
C305  H86   1.082254 S    
C292  C293  1.398063 A    
C157  C181  1.420843 A    
O22   C10   1.277774 A    
O28   C16   1.277776 A    
C249  C250  1.398169 A    
N81   O149  1.301284 A    
C31   C63   1.399599 A    
C194  C210  1.409138 A    
C398  C399  1.398454 A    
C356  C357  1.398456 A    
C47   N63   1.437784 S    
C33   N49   1.437783 S    
C334  H110  1.082267 S    
N53   O93   1.301313 A    
C295  C300  1.404159 A    
C218  C230  1.419162 A    
C196  C236  1.409619 A    
N67   O122  1.301605 A    
C160  C172  1.418489 A    
N32   C135  1.357109 A    
O40   C18   1.277771 A    
C411  C412  1.397567 A    
C300  H82   1.083132 S    
C393  H159  1.082324 S    
C419  C420  1.398616 A    
C186  C189  1.411997 A    
C359  C360  1.398624 A    
C205  C221  1.409138 A    
C4    C229  1.483070 S    
N71   O130  1.301601 A    
C187  C192  1.412003 A    
C333  C334  1.398156 A    
C148  O64   1.348690 S    
C277  C282  1.404159 A    
N26   C129  1.357122 A    
C39   C119  1.419828 A    
C383  H151  1.082322 S    
O17   C5    1.277643 A    
C278  C279  1.398003 A    
N62   O112  1.301290 A    
C268  H55   1.082255 S    
C37   C117  1.419801 A    
N12   C125  1.357129 A    
N1    N16   1.330677 A    
C320  C321  1.398002 A    
C191  C325  1.486057 S    
O9    C1    1.277666 A    
N72   O131  1.301506 A    
C197  C213  1.409143 A    
C322  C323  1.398065 A    
N4    C133  1.357124 A    
O11   C3    1.277692 A    
C247  C248  1.404056 A    
C331  C332  1.404047 A    
C265  C270  1.404169 A    
C355  C356  1.405279 A    
C96   C129  1.468796 S    
C65   C97   1.397799 A    
C178  C181  1.411989 A    
C267  H54   1.082254 S    
C76   C102  1.397599 A    
C30   N46   1.437310 S    
Zn14  O3    1.935072 S    
C63   C95   1.397798 A    
C341  H116  1.082259 S    
N30   C133  1.357118 A    
C41   N57   1.437785 S    
N86   O159  1.301284 A    
C153  C177  1.420838 A    
C329  C330  1.397867 A    
C32   C64   1.399184 A    
C256  C257  1.398062 A    
C33   C65   1.399602 A    
C155  C179  1.420833 A    
C310  C311  1.398062 A    
C198  C234  1.409613 A    
C149  O65   1.348692 S    
C375  H144  1.082258 S    
C156  C180  1.420832 A    
C84   C94   1.397594 A    
C414  H177  1.083076 S    
C201  C217  1.409125 A    
N58   O103  1.301512 A    
C377  H146  1.082317 S    
C265  C266  1.404056 A    
C192  C331  1.486047 S    
C273  H59   1.082260 S    
C87   H31   1.083669 S    
C334  C335  1.398063 A    
C158  C170  1.418491 A    
C99   C126  1.469087 S    
O38   C20   1.277781 A    
N79   O145  1.301288 A    
C70   C102  1.397601 A    
C363  H134  1.082313 S    
C386  C387  1.398451 A    
Zn12  O5    1.921377 S    
N46   O80   1.301290 A    
C415  C416  1.405282 A    
N82   O152  1.301168 A    
C401  H166  1.082256 S    
C141  O57   1.348703 S    
N23   C128  1.357154 A    
C138  O54   1.348690 S    
C78   C100  1.397598 A    
N57   O101  1.301318 A    
N60   O107  1.301511 A    
N52   O92   1.301288 A    
C68   C100  1.397599 A    
C28   C108  1.419209 A    
C282  H67   1.083133 S    
C150  C162  1.415251 A    
C186  C295  1.486052 S    
C324  H102  1.083132 S    
Zn4   O4    1.935073 S    
C79   H23   1.083661 S    
C404  C405  1.398458 A    
C203  N83   1.438832 S    
N10   C127  1.357126 A    
C152  N40   1.363406 A    
C297  C298  1.398153 A    
C216  C228  1.419119 A    
C43   N59   1.437803 S    
C421  C422  1.404375 A    
N87   O162  1.301157 A    
C44   C118  1.419221 A    
C49   C81   1.399603 A    
C367  C372  1.404378 A    
N6    C131  1.357114 A    
C222  C230  1.419163 A    
Zn13  O28   1.923388 S    
C64   C96   1.397594 A    
C373  C374  1.404376 A    
Zn9   O12   1.921374 S    
C74   C104  1.397601 A    
Zn14  O27   1.923386 S    
C78   H22   1.083598 S    
Zn10  O11   1.921374 S    
Zn14  O7    1.921377 S    
Zn15  O2    1.935075 S    
C51   N67   1.437780 S    
C327  H104  1.082245 S    
Zn11  O2    1.935072 S    
C303  C304  1.398153 A    
N2    C135  1.357122 A    
Zn4   O46   1.923386 S    
C428  H188  1.083081 S    
N43   O73   1.301317 A    
O27   C15   1.277571 A    
C425  H186  1.082319 S    
N75   O137  1.301290 A    
C26   C106  1.419218 A    
C323  C324  1.397863 A    
N4    N13   1.330680 A    
N80   O147  1.301287 A    
C173  C174  1.415901 A    
C215  C227  1.419154 A    
C31   C111  1.419828 A    
C432  H192  1.083155 S    
N24   N25   1.330683 A    
N51   O90   1.301602 A    
C224  C232  1.419145 A    
C284  H68   1.083012 S    
C269  C270  1.397858 A    
C29   C109  1.419837 A    
C270  H57   1.083135 S    
O13   C5    1.277664 A    
O46   C12   1.277772 A    
N46   O79   1.301511 A    
C167  C191  1.420832 A    
C212  C355  1.484813 S    
C72   C104  1.397598 A    
C273  C274  1.398171 A    
C144  C156  1.415245 A    
C198  C214  1.409143 A    
C145  N37   1.363404 A    
C378  H147  1.083153 S    
C342  H117  1.083082 S    
C308  H88   1.083013 S    
C272  H58   1.082997 S    
C316  C317  1.398064 A    
C47   C113  1.419825 A    
C77   H21   1.083671 S    
C358  C359  1.397852 A    
C202  C238  1.409627 A    
C284  C285  1.398001 A    
C385  C390  1.404387 A    
C58   C90   1.397598 A    
C322  H100  1.082271 S    
C346  H120  1.082085 S    
C286  H70   1.082269 S    
C150  N38   1.363401 A    
N47   O81   1.301313 A    
C371  C372  1.398622 A    
N85   O158  1.301165 A    
C194  N74   1.438832 S    
C293  H76   1.082256 S    
N47   O82   1.301602 A    
C243  H34   1.082259 S    
C142  N34   1.363420 A    
C420  H182  1.083075 S    
C202  C218  1.409128 A    
C43   C75   1.399588 A    
C318  H97   1.083131 S    
C62   H6    1.083595 S    
Zn15  O33   1.923383 S    
C349  C354  1.404379 A    
C182  C271  1.486040 S    
C379  C384  1.405288 A    
C159  C183  1.420835 A    
C179  C253  1.486055 S    
N76   O140  1.301154 A    
N77   O142  1.301152 A    
C417  C418  1.397586 A    
C208  C224  1.409143 A    
C1    C232  1.483178 S    
C252  H42   1.083135 S    
C18   C105  1.476940 S    
C42   N58   1.437311 S    
N70   O127  1.301519 A    
C302  H83   1.083011 S    
N69   O125  1.301313 A    
N48   O84   1.301286 A    
C311  H91   1.082255 S    
C388  H155  1.082079 S    
N5    N12   1.330677 A    
C429  H189  1.082258 S    
C263  H51   1.082255 S    
C55   N71   1.437786 S    
N66   O119  1.301509 A    
N36   C239  1.442429 S    
Zn12  O30   1.923386 S    
C328  C329  1.398063 A    
C261  C262  1.398154 A    
N38   C233  1.442439 S    
C205  C237  1.409642 A    
C382  H150  1.082080 S    
C59   C91   1.397802 A    
C204  C240  1.409615 A    
O5    C1    1.277667 A    
C60   C92   1.397496 A    
N74   O136  1.301154 A    
N68   O124  1.301288 A    
C317  H96   1.082255 S    
C385  C386  1.405276 A    
C203  C239  1.409616 A    
C216  C379  1.484820 S    
C298  C299  1.398066 A    
C361  C362  1.405279 A    
C406  H170  1.082086 S    
N23   N26   1.330679 A    
C76   H20   1.083595 S    
C351  C352  1.397580 A    
C195  C235  1.409618 A    
C341  C342  1.398622 A    
C61   H5    1.083671 S    
O37   C19   1.277582 A    
C141  C153  1.415260 A    
C413  H176  1.082256 S    
C71   H15   1.083667 S    
C163  C187  1.420832 A    
C350  H123  1.083153 S    
C353  H126  1.082257 S    
C143  C155  1.415256 A    
N67   O121  1.301319 A    
C209  C225  1.419145 A    
N50   O87   1.301508 A    
C75   C101  1.397807 A    
C326  H103  1.083010 S    
O51   C13   1.277574 A    
C211  C227  1.419153 A    
C354  H127  1.083082 S    
N16   C121  1.357113 A    
C165  C189  1.420836 A    
C160  C184  1.420834 A    
C167  C175  1.418483 A    
C299  H81   1.082251 S    
C193  C209  1.409144 A    
C253  C254  1.404052 A    
C42   C120  1.419212 A    
N19   C124  1.357155 A    
C197  N77   1.438829 S    
C395  C396  1.398621 A    
O8    C4    1.277660 A    
C85   C91   1.397796 A    
C249  H39   1.082257 S    
N61   O109  1.301312 A    
C86   C92   1.397610 A    
C288  H72   1.083128 S    
C391  C392  1.405285 A    
C208  N88   1.438824 S    
C36   C68   1.399182 A    
Zn5   O44   1.923388 S    
C220  C232  1.419148 A    
C59   H3    1.083644 S    
O48   C10   1.277771 A    
Zn6   O43   1.923386 S    
C152  O68   1.348684 S    
C203  C219  1.409138 A    
Zn4   O13   1.921377 S    
N42   O71   1.301508 A    
C287  C288  1.397865 A    
Zn8   O37   1.923406 S    
O16   C8    1.277668 A    
C22   C109  1.476940 S    
C181  C265  1.486060 S    
O12   C4    1.277622 A    
C83   H27   1.083648 S    
C101  C124  1.469092 S    
Zn1   O1    1.935077 S    
C246  H37   1.083136 S    
N54   O95   1.301508 A    
C335  H111  1.082259 S    
C198  N78   1.438834 S    
C7    C226  1.483173 S    
C254  C255  1.398004 A    
C332  H108  1.083011 S    
N45   O77   1.301309 A    
C202  N82   1.438828 S    
C255  H44   1.082245 S    
C24   C107  1.476957 S    
C195  C211  1.409141 A    
C317  C318  1.397865 A    
C81   C95   1.397799 A    
C401  C402  1.398626 A    
C250  H40   1.082257 S    
C289  C290  1.404049 A    
C14   C117  1.476858 S    
C69   C101  1.397804 A    
C337  C342  1.404382 A    
O45   C11   1.277576 A    
N31   C136  1.357147 A    
C194  C234  1.409615 A    
C426  H187  1.083153 S    
C347  H121  1.082254 S    
C217  C229  1.419116 A    
C390  H157  1.083076 S    
C39   C71   1.399596 A    
C399  C400  1.397580 A    
C344  H118  1.083155 S    
C162  C186  1.420830 A    
C175  C176  1.415891 A    
C163  C175  1.418486 A    
N59   O105  1.301310 A    
N9    C128  1.357162 A    
C397  C398  1.405281 A    
C29   N45   1.437780 S    
N7    C130  1.357154 A    
N73   O134  1.301152 A    
C279  C280  1.398155 A    
C353  C354  1.398623 A    
C158  C182  1.420859 A    
C67   H11   1.083642 S    
C41   C73   1.399600 A    
C43   C117  1.419799 A    
N56   O99   1.301510 A    
C241  C242  1.404055 A    
N84   O155  1.301284 A    
O42   C24   1.277773 A    
C303  H84   1.082245 S    
O6    C2    1.277664 A    
Zn1   O20   1.921374 S    
C217  C385  1.484818 S    
C251  C252  1.397860 A    
C154  C178  1.420857 A    
Zn2   O19   1.921374 S    
C81   H25   1.083651 S    
C310  H90   1.082269 S    
C258  H47   1.083132 S    
C367  C368  1.405278 A    
C221  C409  1.484831 S    
C312  H92   1.083132 S    
C147  C167  1.415262 A    
C210  C343  1.484813 S    
C377  C378  1.398459 A    
C197  C233  1.409613 A    
C423  H184  1.082258 S    
C204  N84   1.438827 S    
N78   O144  1.301155 A    
C12   C119  1.476930 S    
C145  C165  1.415242 A    
C314  C315  1.398001 A    
N71   O129  1.301311 A    
C363  C364  1.397579 A    
C82   H26   1.083595 S    
C55   C87   1.399590 A    
N78   O143  1.301286 A    
C49   N65   1.437778 S    
N33   C238  1.442429 S    
C161  C173  1.418487 A    
C266  C267  1.397992 A    
C261  H49   1.082245 S    
C53   C85   1.399599 A    
C274  C275  1.398077 A    
C268  C269  1.398074 A    
N75   O138  1.301156 A    
Zn16  O34   1.923385 S    
C328  H105  1.082269 S    
C188  C191  1.412002 A    
O47   C9    1.277579 A    
C255  C256  1.398152 A    
C214  C226  1.419142 A    
C57   H1    1.083649 S    
Zn2   O2    1.935082 S    
C201  N81   1.438828 S    
C392  H158  1.083152 S    
C47   C79   1.399600 A    
C362  H133  1.083155 S    
C165  C173  1.418486 A    
C28   C60   1.399114 A    
Zn11  O26   1.923405 S    
C370  C371  1.397857 A    
C376  C377  1.397581 A    
C406  C407  1.397855 A    
C45   C77   1.399591 A    
C351  H124  1.082318 S    
C50   C82   1.399187 A    
C343  C348  1.404378 A    
N8    N9    1.330681 A    
N3    C134  1.357162 A    
C34   N50   1.437310 S    
N13   C124  1.357128 A    
O35   C23   1.277588 A    
C301  C306  1.404163 A    
C34   C114  1.419221 A    
C427  C428  1.404378 A    
C139  O55   1.348701 S    
C305  C306  1.397864 A    
C66   H10   1.083596 S    
C374  C375  1.398624 A    
N53   O94   1.301603 A    
Zn12  O1    1.935073 S    
C9    C114  1.476037 S    
C347  C348  1.398627 A    
C425  C426  1.398458 A    
O32   C20   1.277775 A    
N17   N32   1.330677 A    
C403  C404  1.405279 A    
C362  C363  1.398463 A    
C140  C160  1.415242 A    
C427  C432  1.405280 A    
C16   C115  1.476927 S    
Zn16  O21   1.923406 S    
Zn5   O16   1.921377 S    
C211  C349  1.484811 S    
C275  H61   1.082262 S    
N81   O150  1.301170 A    
Zn6   O15   1.921377 S    
C28   N44   1.437166 S    
N87   O161  1.301291 A    
C80   H24   1.083598 S    
C413  C414  1.398618 A    
C309  H89   1.082244 S    
C162  C174  1.418486 A    
N19   N30   1.330683 A    
C207  N87   1.438830 S    
N61   O110  1.301602 A    
C338  H113  1.083152 S    
N72   O132  1.301291 A    
C164  C188  1.420829 A    
C97   C128  1.469101 S    
C10   C113  1.476944 S    
N70   O128  1.301303 A    
C98   C127  1.468796 S    
N54   O96   1.301289 A    
C15   C116  1.476013 S    
C223  C231  1.419142 A    
N65   O118  1.301602 A    
C27   C107  1.419816 A    
C391  C396  1.404383 A    
C146  N38   1.363400 A    
N2    N15   1.330679 A    
C51   C109  1.419809 A    
C332  C333  1.398002 A    
N88   O163  1.301287 A    
N18   C121  1.357120 A    
C161  C185  1.420832 A    
C394  C395  1.397869 A    
C93   C132  1.469089 S    
O7    C3    1.277688 A    
C49   C111  1.419821 A    
C95   C130  1.469103 S    
N84   O156  1.301155 A    
C412  C413  1.397866 A    
N86   O160  1.301168 A    
O44   C22   1.277778 A    
C221  C229  1.419092 A    
C387  C388  1.397583 A    
C48   C80   1.399187 A    
C201  C237  1.409643 A    
C418  H180  1.082077 S    
C295  C296  1.404052 A    
C323  H101  1.082256 S    
C151  N39   1.363402 A    
C283  C284  1.404050 A    
C337  C338  1.405280 A    
C214  C367  1.484809 S    
C242  H33   1.082995 S    
Zn9   O24   1.923383 S    
C94   C131  1.468778 S    
Zn10  O23   1.923385 S    
C140  O56   1.348693 S    
O23   C11   1.277574 A    
O39   C17   1.277575 A    
C220  C403  1.484812 S    
C372  H142  1.083081 S    
C64   H8    1.083594 S    
C272  C273  1.397990 A    
C41   C119  1.419802 A    
N3    N14   1.330681 A    
C65   H9    1.083649 S    
O52   C14   1.277746 A    
Zn7   O49   1.923383 S    
C86   H30   1.083701 S    
Zn9   O4    1.935077 S    
O15   C7    1.277665 A    
C102  C123  1.468798 S    
C63   H7    1.083659 S    
Zn10  O3    1.935082 S    
O25   C13   1.277577 A    
C206  C222  1.409129 A    
C393  C394  1.397582 A    
C397  C402  1.404376 A    
C352  H125  1.082086 S    
C416  C417  1.398457 A    
C409  C410  1.405290 A    
C336  H112  1.083130 S    
C157  C169  1.418478 A    
C274  H60   1.082254 S    
C25   N41   1.437781 S    
C180  C259  1.486053 S    
C148  N40   1.363407 A    
C287  H71   1.082257 S    
C40   N56   1.437310 S    
C388  C389  1.397868 A    
C38   C118  1.419219 A    
C398  H163  1.083152 S    
Zn9   O31   1.923408 S    
C361  C366  1.404381 A    
C358  H130  1.082089 S    
C144  O60   1.348692 S    
Zn10  O32   1.923406 S    
C357  H129  1.082316 S    
O10   C2    1.277664 A    
N22   C125  1.357109 A    
C215  C373  1.484808 S    
Zn11  O29   1.923388 S    
C279  H64   1.082247 S    
C53   C107  1.419830 A    
N40   C235  1.442439 S    
C35   C115  1.419803 A    
C346  C347  1.397853 A    
C189  C313  1.486051 S    
Zn12  O25   1.923408 S    
C313  C314  1.404050 A    
C144  N36   1.363402 A    
C327  C328  1.398154 A    
C179  C184  1.411997 A    
C339  H114  1.082320 S    
O41   C23   1.277626 A    
C241  C246  1.404169 A    
C380  H148  1.083077 S    
C338  C339  1.398454 A    
C259  C264  1.404161 A    
C369  H139  1.082319 S    
C280  H65   1.082266 S    
C26   N42   1.437311 S    
C62   C94   1.397596 A    
C330  H107  1.083130 S    
N80   O148  1.301154 A    
C396  H162  1.083076 S    
C374  H143  1.083074 S    
C139  N35   1.363400 A    
C387  H154  1.082318 S    
C45   N61   1.437783 S    
C150  O66   1.348704 S    
C262  H50   1.082268 S    
C56   N72   1.437309 S    
C83   C93   1.397794 A    
N55   O98   1.301604 A    
C264  H52   1.083131 S    
C142  C154  1.415235 A    
N39   C236  1.442449 S    
C139  C159  1.415255 A    
N83   O153  1.301288 A    
C71   C103  1.397796 A    
C35   N51   1.437788 S    
C104  C121  1.468775 S    
C44   C76   1.399185 A    
C11   C120  1.476010 S    
C383  C384  1.398456 A    
O21   C9    1.277580 A    
C366  H137  1.083082 S    
O14   C6    1.277672 A    
C348  H122  1.083081 S    
C44   N60   1.437306 S    
C302  C303  1.398003 A    
C142  O58   1.348687 S    
C319  C324  1.404160 A    
C431  H191  1.082316 S    
C269  H56   1.082257 S    
N49   O85   1.301316 A    
C207  C239  1.409619 A    
C352  C353  1.397858 A    
C286  C287  1.398065 A    
C25   C57   1.399598 A    
C38   C70   1.399190 A    
C395  H161  1.082265 S    
C224  C427  1.484806 S    
C40   C120  1.419219 A    
Zn3   O42   1.923405 S    
C27   C59   1.399601 A    
C291  C292  1.398152 A    
C27   N43   1.437782 S    
N62   O111  1.301509 A    
Zn11  O6    1.921377 S    
N85   O157  1.301289 A    
C308  C309  1.398004 A    
N44   O75   1.301480 A    
C285  C286  1.398155 A    
N60   O108  1.301287 A    
Zn7   O38   1.923409 S    
N35   C240  1.442434 S    
N41   O69   1.301317 A    
N14   C123  1.357114 A    
C410  H173  1.083153 S    
C359  H131  1.082259 S    
N58   O104  1.301288 A    
C364  C365  1.397853 A    
N59   O106  1.301603 A    
O31   C19   1.277588 A    
C171  C172  1.415896 A    
Zn8   O50   1.923385 S    
C340  H115  1.082088 S    
C8    C225  1.483178 S    
C195  N75   1.438832 S    
C407  C408  1.398623 A    
C70   H14   1.083596 S    
N21   N28   1.330677 A    
N77   O141  1.301288 A    
C314  H93   1.083008 S    
C190  C319  1.486051 S    
C418  C419  1.397875 A    
O26   C14   1.277741 A    
C207  C223  1.409138 A    
N55   O97   1.301310 A    
C25   C105  1.419811 A    
C137  C157  1.415264 A    
C296  C297  1.398005 A    
C345  C346  1.397579 A    
C218  C391  1.484807 S    
C250  C251  1.398078 A    
C74   H18   1.083594 S    
C169  C170  1.415896 A    
C185  C289  1.486052 S    
C30   C110  1.419222 A    
O19   C7    1.277663 A    
C248  C249  1.397993 A    
C382  C383  1.397572 A    
C222  C415  1.484803 S    
C371  H141  1.082257 S    
C417  H179  1.082326 S    
C137  N33   1.363414 A    
C271  C272  1.404056 A    
N66   O120  1.301289 A    
C394  H160  1.082080 S    
C193  C233  1.409610 A    
C166  C190  1.420831 A    
N20   N29   1.330681 A    
C199  C215  1.409144 A    
C404  H168  1.083152 S    
C326  C327  1.398001 A    
C364  H135  1.082086 S    
O49   C15   1.277575 A    
Zn16  O1    1.935081 S    
C424  C425  1.397578 A    
N6    N11   1.330675 A    
C325  C330  1.404159 A    
C153  C169  1.418478 A    
N82   O151  1.301285 A    
N15   C122  1.357149 A    
N18   N31   1.330679 A    
C50   C112  1.419228 A    
C245  C246  1.397857 A    
C88   H32   1.083599 S    
C38   N54   1.437308 S    
Zn3   O45   1.923388 S    
C42   C74   1.399186 A    
C35   C67   1.399597 A    
N52   O91   1.301509 A    
C357  C358  1.397579 A    
C320  H98   1.083011 S    
C168  C176  1.418482 A    
N69   O126  1.301604 A    
C431  C432  1.398462 A    
C178  C247  1.486044 S    
C399  H164  1.082317 S    
C155  C171  1.418489 A    
C349  C350  1.405275 A    
C193  N73   1.438827 S    
C156  C172  1.418488 A    
C20   C111  1.476959 S    
Zn4   O41   1.923408 S    
C219  C231  1.419142 A    
O24   C12   1.277770 A    
C151  O67   1.348702 S    
C356  H128  1.083153 S    
C84   H28   1.083599 S    
C5    C228  1.483131 S    
O20   C8    1.277666 A    
C408  H172  1.083084 S    
C69   H13   1.083666 S    
N27   C132  1.357166 A    
C392  C393  1.398459 A    
C389  C390  1.398617 A    
C92   C133  1.468832 S    
C103  C122  1.469083 S    
C405  H169  1.082316 S    
N50   O88   1.301287 A    
C411  H174  1.082335 S    
C266  H53   1.082998 S    
N49   O86   1.301601 A    
N34   C237  1.442387 S    
C419  H181  1.082269 S    
C3    C230  1.483229 S    
C73   H17   1.083648 S    
C54   C86   1.399180 A    
C345  H119  1.082317 S    
N68   O123  1.301511 A    
N24   C127  1.357116 A    
C360  H132  1.083082 S    
C143  O59   1.348698 S    
N25   C130  1.357161 A    
Zn1   O47   1.923408 S    
C52   N68   1.437305 S    
Zn2   O48   1.923406 S    
C17   C106  1.476028 S    
C280  C281  1.398066 A    
C58   H2    1.083594 S    
C51   C83   1.399594 A    
C278  H63   1.083009 S    
Zn6   O2    1.935072 S    
N11   C126  1.357167 A    
C145  O61   1.348692 S    
C177  C241  1.486064 S    
C52   C84   1.399181 A    
N83   O154  1.301156 A    
C184  C283  1.486053 S    
C376  H145  1.082084 S    
C54   C108  1.419225 A    
C185  C190  1.412001 A    
C187  C301  1.486057 S    
C343  C344  1.405280 A    
C46   C78   1.399182 A    
C48   C114  1.419223 A    
C37   N53   1.437789 S    
C301  C302  1.404052 A    
C40   C72   1.399187 A    
C247  C252  1.404166 A    
Zn15  O10   1.921374 S    
C50   N66   1.437305 S    
C68   H12   1.083597 S    
C344  C345  1.398460 A    
C402  H167  1.083079 S    
C369  C370  1.397580 A    
C37   C69   1.399567 A    
C355  C360  1.404380 A    
C32   C112  1.419228 A    
C331  C336  1.404161 A    
Zn13  O8    1.921377 S    
C183  C277  1.486056 S    
O43   C21   1.277578 A    
C36   N52   1.437312 S    
N29   C134  1.357155 A    
Zn3   O14   1.921377 S    
O29   C17   1.277581 A    
C430  H190  1.082088 S    
C34   C66   1.399189 A    
Zn15  O22   1.923409 S    
C32   N48   1.437298 S    
C292  H75   1.082270 S    
C31   N47   1.437777 S    
C329  H106  1.082253 S    
C277  C278  1.404052 A    
C154  C170  1.418490 A    
C88   C90   1.397598 A    
C276  H62   1.083137 S    
C200  N80   1.438824 S    
C262  C263  1.398065 A    
C375  C376  1.397857 A    
C199  C235  1.409618 A    
C307  C312  1.404159 A    
C304  C305  1.398063 A    
Zn5   O1    1.935072 S    
C205  N85   1.438828 S    
C82   C96   1.397597 A    
C421  C426  1.405280 A    
C321  H99   1.082245 S    
C210  C226  1.419145 A    
C245  H36   1.082261 S    
C159  C171  1.418487 A    
C275  C276  1.397858 A    
O18   C6    1.277671 A    
C365  C366  1.398624 A    
C315  H94   1.082243 S    
C147  N39   1.363403 A    
C407  H171  1.082258 S    
C56   C88   1.399183 A    
N76   O139  1.301285 A    
C91   C134  1.469105 S    
C368  H138  1.083152 S    
N45   O78   1.301605 A    
C412  H175  1.082077 S    
C45   C115  1.419832 A    
C409  C414  1.404379 A    
N56   O100  1.301289 A    
C149  C161  1.415245 A    
C403  C408  1.404379 A    
C213  C361  1.484810 S    
C60   H4    1.083601 S    
C325  C326  1.404052 A    
N48   O83   1.301512 A    
C365  H136  1.082254 S    
C151  C163  1.415265 A    
C283  C288  1.404158 A    
C66   C98   1.397604 A    
C309  C310  1.398153 A    
C242  C243  1.397991 A    
C152  C164  1.415236 A    
N20   C123  1.357128 A    
C56   C106  1.419223 A    
C259  C260  1.404048 A    
C73   C103  1.397797 A    
O33   C21   1.277577 A    
C405  C406  1.397581 A    
C168  C192  1.420832 A    
C297  H79   1.082245 S    
C381  H149  1.082257 S    
C61   C93   1.397794 A    
C339  C340  1.397581 A    
C289  C294  1.404158 A    
C21   C110  1.476026 S    
C140  N36   1.363401 A    
N57   O102  1.301602 A    
C423  C424  1.397858 A    
C196  N76   1.438823 S    
N64   O116  1.301285 A    
N22   N27   1.330677 A    
N64   O115  1.301509 A    
C146  C166  1.415255 A    
C294  H77   1.083130 S    
N74   O135  1.301289 A    
N28   C131  1.357126 A    
C260  C261  1.398003 A    
C254  H43   1.083011 S    
C29   C61   1.399591 A    
C386  H153  1.083154 S    
N1    C136  1.357164 A    
C430  C431  1.397579 A    
C400  C401  1.397854 A    
C80   C98   1.397601 A    
C244  H35   1.082255 S    
C85   H29   1.083662 S    
C304  H85   1.082270 S    
C13   C118  1.476035 S    
Zn6   O52   1.923408 S    
C244  C245  1.398074 A    
Zn7   O18   1.921374 S    
N44   O76   1.301327 A    
Zn8   O17   1.921374 S    
C146  O62   1.348702 S    
C307  C308  1.404048 A    
C368  C369  1.398457 A    
C212  C228  1.419133 A    
C79   C97   1.397798 A    
C285  H69   1.082242 S    
C422  C423  1.398622 A    
O50   C16   1.277766 A    
C313  C318  1.404157 A    
C315  C316  1.398156 A    
N7    N10   1.330679 A    
C72   H16   1.083597 S    
C410  C411  1.398449 A    
C333  H109  1.082243 S    
C30   C62   1.399183 A    
C39   N55   1.437786 S    
C380  C381  1.398621 A    
N63   O114  1.301602 A    
C384  H152  1.083156 S    
C319  C320  1.404050 A    
C57   C89   1.397797 A    
N5    C132  1.357147 A    
O30   C18   1.277778 A    
C177  C182  1.411987 A    
C416  H178  1.083148 S    
C335  C336  1.397865 A    
O36   C24   1.277774 A    
C370  H140  1.082088 S    
C200  C236  1.409617 A    
C149  N37   1.363404 A    
N42   O72   1.301288 A    
C204  C220  1.409139 A    
C206  N86   1.438825 S    
