data_mof_unit_31225.cif
_audit_creation_date              2012-12-10T16:59:15-0500
_audit_creation_method            fapswitch 2.2
_symmetry_space_group_name_H-M    P1
_symmetry_Int_Tables_number       1
_space_group_crystal_system       triclinic
_cell_length_a                    7.69691
_cell_length_b                    8.608039
_cell_length_c                    27.641403
_cell_angle_alpha                 90.635335
_cell_angle_beta                  87.602265
_cell_angle_gamma                 93.490537
_cell_volume                      1826.32459588

loop_
_atom_site_label
_atom_site_type_symbol
_atom_type_description
_atom_site_fract_x
_atom_site_fract_y
_atom_site_fract_z
_atom_type_partial_charge
C1    C     C_R   0.545281 0.794611 0.498657 0.981519
C2    C     C_R   0.454719 0.205389 0.501356 0.982251
C3    C     C_R   0.559999 0.475118 0.899185 -0.095317
C4    C     C_R   0.436540 0.521343 0.100862 -0.120650
C5    C     C_R   0.623974 0.608104 0.873273 -0.133046
C6    C     C_R   0.372683 0.388804 0.126946 -0.066624
C7    C     C_R   0.707196 0.734507 0.898215 -0.092602
C8    C     C_R   0.289808 0.262088 0.102089 -0.089499
C9    C     C_R   0.516724 0.334197 0.874262 -0.115081
C10   C     C_R   0.479399 0.662679 0.125630 -0.116992
C11   C     C_R   0.519957 0.492525 0.647060 -0.131000
C12   C     C_R   0.479682 0.506623 0.352933 -0.129460
C13   C     C_R   0.539320 0.639712 0.024305 0.030616
C14   C     C_R   0.458379 0.355526 0.975737 0.023398
C15   C     C_R   0.410535 0.371222 0.025550 0.032606
C16   C     C_R   0.587420 0.623698 0.974592 -0.011539
C17   C     C_R   0.462378 0.510568 0.050106 0.059189
C18   C     C_R   0.534654 0.485032 0.949956 0.050211
C19   C     C_R   0.554095 0.784489 0.048319 -0.160970
C20   C     C_R   0.444138 0.211107 0.951505 -0.138128
C21   C     C_R   0.531770 0.796668 0.098316 0.410263
C22   C     C_R   0.464278 0.199909 0.901433 0.472701
C23   C     C_R   0.505225 0.498796 0.594121 1.002049
C24   C     C_R   0.494732 0.501071 0.405877 1.002356
C25   C     C_R   0.698809 0.735360 0.949189 0.348089
C26   C     C_R   0.300624 0.258786 0.051213 0.251443
C27   C     C_2   0.565273 0.955921 0.506753 -0.253031
C28   C     C_2   0.434707 0.044072 0.493287 -0.253580
C29   C     C_R   0.603744 0.607727 0.823122 0.615572
C30   C     C_R   0.394207 0.389435 0.177018 0.679282
C31   C     C_R   0.530336 0.334422 0.823297 0.597084
C32   C     C_R   0.466280 0.662910 0.176608 0.581791
C33   C     C_R   0.397022 0.426043 0.726894 -0.180239
C34   C     C_R   0.601755 0.572175 0.272929 -0.165961
C35   C     C_R   0.381337 0.424992 0.676920 -0.062991
C36   C     C_R   0.617981 0.573857 0.322898 -0.065362
C37   C     C_R   0.678117 0.547497 0.668385 -0.125692
C38   C     C_R   0.321335 0.451286 0.331780 -0.132786
C39   C     C_R   0.698367 0.525882 0.717996 0.359024
C40   C     C_R   0.300534 0.472351 0.282179 0.360082
C41   C     C_R   0.554436 0.473149 0.747469 0.224634
C42   C     C_R   0.444100 0.524709 0.252536 0.208762
H1    H     H_    0.013838 0.382517 0.464188 0.207289
H2    H     H_    0.986158 0.617469 0.535817 0.207441
H3    H     H_    0.710069 0.615385 0.249467 0.193213
H4    H     H_    0.288394 0.382685 0.750220 0.191399
H5    H     H_    0.582411 0.890920 0.028370 0.210831
H6    H     H_    0.418486 0.104086 0.971268 0.208204
N1    N     N_R   0.564941 0.471241 0.799127 -0.340406
N2    N     N_R   0.432774 0.526181 0.200901 -0.353576
N3    N     N_2   0.950320 0.457960 0.486880 -0.166204
N4    N     N_2   0.049680 0.542040 0.513120 -0.166202
O1    O     O_R   0.389250 0.738570 0.503220 -0.606503
O2    O     O_R   0.610750 0.261430 0.496780 -0.606206
O3    O     O_R   0.678390 0.711630 0.494810 -0.621567
O4    O     O_R   0.321610 0.288370 0.505190 -0.621363
O5    O     O_R   0.355440 0.513440 0.575450 -0.604842
O6    O     O_R   0.644560 0.486560 0.424550 -0.604598
O7    O     O_R   0.644590 0.486500 0.567040 -0.607564
O8    O     O_R   0.355410 0.513500 0.432960 -0.608188
O9    O     O_2   0.616206 0.742892 0.798564 -0.477617
O10   O     O_2   0.383637 0.254265 0.201557 -0.431307
O11   O     O_2   0.489118 0.796472 0.202079 -0.438082
O12   O     O_2   0.507369 0.201101 0.797711 -0.442819
Zn1   Zn    Zn3+2 0.306940 0.517990 0.505620 1.029313
Zn2   Zn    Zn3+2 0.693060 0.482010 0.494380 1.029656
C43   C     C_2   0.820911 0.634818 0.640530 0.514391
H7    H     H_    0.955874 0.612220 0.645881 0.090940
O13   O     O_2   0.789011 0.738210 0.612982 -0.586516
C44   C     C_2   0.178851 0.364175 0.359812 0.519775
H8    H     H_    0.043806 0.386797 0.354590 0.088381
O14   O     O_2   0.211095 0.260936 0.387372 -0.585353
Cl1   Cl    Cl    0.903068 0.567692 0.743934 -0.646100
Cl2   Cl    Cl    0.095437 0.430714 0.256496 -0.576464
C45   C     C_2   0.820857 0.854040 0.871556 0.684312
H9    H     H_    0.890945 0.822946 0.838321 0.114613
O15   O     O_2   0.835683 0.988522 0.886060 -0.478770
C46   C     C_2   0.175205 0.141122 0.127674 0.690280
H10   H     H_    0.170032 0.021735 0.114493 0.093947
O16   O     O_2   0.079242 0.175085 0.161962 -0.449265
C47   C     C_2   0.777930 0.655145 0.341292 0.482566
H11   H     H_    0.899755 0.652623 0.320158 0.100224
O17   O     O_2   0.773299 0.734888 0.378070 -0.528441
C48   C     C_2   0.221501 0.344073 0.658330 0.479000
H12   H     H_    0.099402 0.346803 0.679331 0.101922
O18   O     O_2   0.226493 0.264403 0.621541 -0.529572
Cl3   Cl    Cl    0.582423 0.982435 0.123521 -0.494663
Cl4   Cl    Cl    0.410623 0.014983 0.875996 -0.463375
Cl5   Cl    Cl    0.865645 0.843337 0.979763 -0.483519
Cl6   Cl    Cl    0.139215 0.142077 0.021176 -0.526440
C49   C     C_2   0.706781 0.006650 0.540044 0.513147
H13   H     H_    0.832764 0.956653 0.536011 0.086569
O19   O     O_2   0.680644 0.096603 0.573702 -0.513347
C50   C     C_2   0.293131 0.993303 0.460024 0.514583
H14   H     H_    0.167057 0.043103 0.464126 0.086512
O20   O     O_2   0.319291 0.903522 0.426322 -0.512008

loop_
_geom_bond_atom_site_label_1
_geom_bond_atom_site_label_2
_ccdc_geom_bond_type
C38   C44   S    
C8    C26   A    
C14   C18   A    
C34   C42   A    
C21   Cl3   S    
C47   H11   S    
C39   C41   A    
C29   N1    A    
C23   O7    A    
C19   C21   A    
C48   O18   D    
O7    Zn2   S    
C46   O16   D    
C9    C22   A    
O4    Zn1   S    
C3    C18   A    
C28   C50   S    
C11   C37   A    
C1    O1    A    
O6    Zn2   S    
C27   C49   S    
C44   H8    S    
C22   Cl4   S    
C12   C36   A    
O1    Zn1   S    
H2    N4    S    
C40   C42   A    
C30   N2    A    
C8    C46   S    
C33   H4    S    
C31   N1    A    
C41   N1    S    
C47   O17   D    
C5    C29   A    
C10   C21   A    
C29   O9    S    
C13   C19   A    
C43   H7    S    
C14   C20   A    
C48   H12   S    
C4    C6    A    
C2    O2    A    
C49   H13   S    
C5    C7    A    
C46   H10   S    
C15   C26   A    
C7    C45   S    
N3    N4    D    
C43   O13   D    
N3    Zn2   S    
C45   H9    S    
C3    C9    A    
C49   O19   D    
C36   C47   S    
C24   O8    A    
C34   H3    S    
C50   O20   D    
C45   O15   D    
C32   N2    A    
C20   H6    S    
C42   N2    S    
C4    C17   A    
C24   O6    A    
C6    C30   A    
C20   C22   A    
O8    Zn1   S    
C30   O10   S    
C13   C16   A    
C4    C10   A    
O3    Zn2   S    
C16   C25   A    
C23   O5    A    
C31   O12   S    
C32   O11   S    
O5    Zn1   S    
C3    C5    A    
C6    C8    A    
C35   C48   S    
C15   C17   A    
O2    Zn2   S    
C26   Cl6   S    
C12   C24   S    
C25   Cl5   S    
C7    C25   A    
C13   C17   A    
C33   C41   A    
C11   C35   A    
C1    O3    A    
C37   C39   A    
C2    O4    A    
C38   C40   A    
H1    N3    S    
C37   C43   S    
C11   C23   S    
C33   C35   A    
C40   Cl2   S    
C34   C36   A    
C39   Cl1   S    
C12   C38   A    
C50   H14   S    
C2    C28   S    
C9    C31   A    
C10   C32   A    
C16   C18   A    
C19   H5    S    
C27   C28   D    
C1    C27   S    
C14   C15   A    
C44   O14   D    
N4    Zn1   S    
