data_mof_unit_38465.cif
_audit_creation_date              2012-12-10T20:25:43-0500
_audit_creation_method            fapswitch 2.2
_symmetry_space_group_name_H-M    P1
_symmetry_Int_Tables_number       1
_space_group_crystal_system       triclinic
_cell_length_a                    8.591458
_cell_length_b                    10.682469
_cell_length_c                    9.880141
_cell_angle_alpha                 89.922144
_cell_angle_beta                  98.462211
_cell_angle_gamma                 90.225065
_cell_volume                      896.900235702

loop_
_atom_site_label
_atom_site_type_symbol
_atom_type_description
_atom_site_fract_x
_atom_site_fract_y
_atom_site_fract_z
_atom_type_partial_charge
C1    C     C_R   0.504679 0.260003 0.500690 0.878942
C2    C     C_R   0.431347 0.403960 0.920181 0.108469
C3    C     C_3   0.262645 0.365503 0.893051 -0.533457
C4    C     C_R   0.201258 0.500323 0.464195 0.968946
C5    C     C_3   0.262615 0.365181 0.046496 0.463186
C6    C     C_R   0.504888 0.739995 0.500568 0.868572
C7    C     C_R   0.798633 0.501345 0.535613 0.964338
C8    C     C_2   0.036113 0.499422 0.444686 -0.360362
C9    C     C_2   0.963485 0.505662 0.554283 -0.393891
C10   C     C_R   0.524347 0.063690 0.626086 0.054580
C11   C     C_R   0.529200 0.128621 0.504598 -0.093990
C12   C     C_R   0.563549 0.935581 0.388345 -0.182361
C13   C     C_R   0.563434 0.065101 0.388401 -0.214227
C14   C     C_R   0.529506 0.871471 0.504512 -0.173957
C15   C     C_R   0.524937 0.935914 0.626192 0.091918
C16   C     C_3   0.407703 0.928593 0.723784 0.487609
C17   C     C_3   0.407142 0.070365 0.723619 -0.544414
C18   C     C_R   0.431204 0.404070 0.062586 0.087055
C19   C     C_R   0.580714 0.588232 0.082131 -0.055953
C20   C     C_R   0.580877 0.588142 0.938265 -0.015953
F1    F     F_    0.166667 0.457717 0.086555 -0.633230
F2    F     F_    0.473614 0.879751 0.848879 -0.658297
H1    H     H_    0.974732 0.492004 0.340502 0.211976
H2    H     H_    0.292867 0.110675 0.676104 0.157575
H3    H     H_    0.458457 0.112240 0.823303 0.232458
H4    H     H_    0.643486 0.660881 0.144210 0.143400
H5    H     H_    0.644088 0.660505 0.892078 0.181473
H6    H     H_    0.186833 0.439240 0.839455 0.239413
H7    H     H_    0.246041 0.270914 0.846937 0.156633
H8    H     H_    0.244529 0.271340 0.090461 0.068181
H9    H     H_    0.024494 0.514868 0.657916 0.183421
H10   H     H_    0.579361 0.114355 0.295472 0.174401
H11   H     H_    0.579517 0.886714 0.295397 0.184935
H12   H     H_    0.293810 0.884691 0.680005 0.072453
N1    N     N_R   0.498950 0.499140 0.142680 -0.090968
N2    N     N_R   0.498950 0.499180 0.857030 -0.100654
O1    O     O_R   0.500020 0.316790 0.614690 -0.610235
O2    O     O_R   0.500000 0.316760 0.385350 -0.640423
O3    O     O_R   0.271760 0.500010 0.587850 -0.624393
O4    O     O_R   0.271740 0.499970 0.358500 -0.550789
O5    O     O_R   0.500000 0.683240 0.614650 -0.605863
O6    O     O_R   0.499980 0.683210 0.385310 -0.619473
O7    O     O_R   0.728260 0.500030 0.641500 -0.620862
O8    O     O_R   0.728240 0.499990 0.412150 -0.624271
Zn1   Zn    Zn3+2 0.500010 0.500020 0.653130 0.975089
Zn2   Zn    Zn3+2 0.499990 0.499980 0.346870 0.993002

loop_
_geom_bond_atom_site_label_1
_geom_bond_atom_site_label_2
_ccdc_geom_bond_type
C20   H5    S    
C7    O7    A    
C2    C18   A    
C11   C13   A    
C18   N1    A    
C13   H10   S    
C19   C20   A    
C1    C11   S    
C4    O3    A    
C1    O1    A    
O3    Zn1   S    
C17   H3    S    
C2    C3    S    
N2    Zn1   S    
C19   N1    A    
C7    O8    A    
O4    Zn2   S    
O7    Zn1   S    
C1    O2    A    
C3    H6    S    
C12   C14   A    
C10   C15   A    
C6    O6    A    
O2    Zn2   S    
C17   H2    S    
C6    C14   S    
C10   C11   A    
C9    H9    S    
C10   C17   S    
O1    Zn1   S    
C15   C16   S    
C20   N2    A    
C8    H1    S    
C5    F1    S    
C12   C13   A    
C7    C9    S    
C5    H8    S    
O6    Zn2   S    
C2    N2    A    
C4    C8    S    
C3    H7    S    
C19   H4    S    
O5    Zn1   S    
C14   C15   A    
C8    C9    D    
C16   F2    S    
C5    C18   S    
C16   H12   S    
C12   H11   S    
N1    Zn2   S    
C4    O4    A    
O8    Zn2   S    
C16   C17   S    
C3    C5    S    
C6    O5    A    
