data_mof_unit_65101.cif
_audit_creation_date              2012-12-10T17:58:28-0500
_audit_creation_method            fapswitch 2.2
_symmetry_space_group_name_H-M    P1
_symmetry_Int_Tables_number       1
_space_group_crystal_system       triclinic
_cell_length_a                    38.461794
_cell_length_b                    21.595896
_cell_length_c                    21.596612
_cell_angle_alpha                 89.999952
_cell_angle_beta                  123.975911
_cell_angle_gamma                 89.999827
_cell_volume                      14875.9156767

loop_
_atom_site_label
_atom_site_type_symbol
_atom_type_description
_atom_site_fract_x
_atom_site_fract_y
_atom_site_fract_z
_atom_type_partial_charge
C1    C     C_R   0.000054 0.999995 0.120287 0.859425
C2    C     C_3   0.774312 0.029499 0.833379 -0.483841
C3    C     C_3   0.274059 0.540693 0.717574 0.312615
C4    C     C_3   0.274943 0.035657 0.335420 0.305760
C5    C     C_3   0.725054 0.038302 0.666213 0.305723
C6    C     C_3   0.774946 0.538894 0.333397 0.305713
C7    C     C_3   0.225054 0.538610 0.666412 0.305699
C8    C     C_1   0.374433 0.000168 0.374900 -0.190191
C9    C     C_1   0.625567 0.000192 0.625101 -0.190169
C10   C     C_1   0.874433 0.500198 0.374898 -0.190159
C11   C     C_1   0.125567 0.500197 0.625102 -0.190163
C12   C     C_3   0.208720 0.999919 0.210396 0.184748
C13   C     C_3   0.725689 0.528903 0.166328 -0.483873
C14   C     C_3   0.791279 0.999984 0.789597 0.184766
C15   C     C_3   0.708721 0.499998 0.210403 0.184765
C16   C     C_3   0.291279 0.499995 0.789597 0.184763
C17   C     C_3   0.274461 0.933016 0.277710 -0.381884
C18   C     C_3   0.725542 0.933225 0.719326 -0.382012
C19   C     C_3   0.774457 0.433291 0.281347 -0.382039
C20   C     C_3   0.225543 0.433262 0.718981 -0.382031
C21   C     C_3   0.291185 0.000434 0.293373 0.232701
C22   C     C_3   0.708815 0.000532 0.706645 0.232677
C23   C     C_3   0.791185 0.500554 0.293350 0.232674
C24   C     C_3   0.274311 0.529197 0.833530 -0.483853
C25   C     C_3   0.208815 0.500547 0.706647 0.232679
C26   C     C_3   0.200695 0.968769 0.337657 0.173506
C27   C     C_3   0.189458 0.968871 0.394909 -0.847499
C28   C     C_3   0.799280 0.974798 0.661073 0.173385
C29   C     C_3   0.810494 0.977895 0.603860 -0.846796
C30   C     C_3   0.700726 0.476176 0.339178 0.173357
C31   C     C_3   0.689517 0.479955 0.396363 -0.846623
C32   C     C_3   0.299277 0.475507 0.660944 0.173352
C33   C     C_3   0.310489 0.478954 0.603744 -0.846682
C34   C     C_3   0.301809 0.049630 0.461789 0.134907
C35   C     C_1   0.336926 0.000232 0.337999 -0.045110
C36   C     C_3   0.316784 0.015617 0.534231 -0.833191
C37   C     C_3   0.698171 0.056706 0.540560 0.134996
C38   C     C_3   0.683175 0.025296 0.466647 -0.833127
C39   C     C_3   0.801832 0.558300 0.458859 0.135023
C40   C     C_3   0.816833 0.527492 0.533090 -0.833136
C41   C     C_3   0.198172 0.557529 0.540857 0.135051
C42   C     C_3   0.183173 0.526428 0.466779 -0.833214
C43   C     C_1   0.663075 0.000285 0.662008 -0.045058
C44   C     C_1   0.836926 0.500296 0.337990 -0.045046
C45   C     C_1   0.163074 0.500294 0.662009 -0.045051
C46   C     C_1   0.163031 0.999974 0.163673 -0.056292
C47   C     C_1   0.836969 0.999991 0.836321 -0.056247
C48   C     C_1   0.663031 0.499994 0.163680 -0.056236
C49   C     C_R   0.999947 0.999995 0.879714 0.859255
C50   C     C_1   0.336969 0.499994 0.836321 -0.056238
C51   C     C_1   0.125534 0.000000 0.125700 -0.184613
C52   C     C_1   0.874466 0.000001 0.874296 -0.184600
C53   C     C_1   0.625534 0.500000 0.125704 -0.184591
C54   C     C_1   0.374466 0.500001 0.874296 -0.184591
C55   C     C_R   0.972368 0.038731 0.190387 -0.186892
C56   C     C_R   0.027625 0.038744 0.809605 -0.186861
C57   C     C_R   0.472377 0.538749 0.190397 -0.186815
C58   C     C_R   0.527625 0.538745 0.809605 -0.186821
C59   C     C_R   0.971949 0.038045 0.253911 -0.186714
C60   C     C_R   0.500053 0.499995 0.120286 0.859216
C61   C     C_R   0.028044 0.038059 0.746081 -0.186755
C62   C     C_R   0.471958 0.538064 0.253921 -0.186749
C63   C     C_R   0.528044 0.538060 0.746081 -0.186747
C64   C     C_R   0.000199 0.000058 0.313663 -0.011707
C65   C     C_R   0.999801 0.000061 0.686337 -0.011694
C66   C     C_R   0.500199 0.500062 0.313663 -0.011702
C67   C     C_R   0.499801 0.500062 0.686337 -0.011708
C68   C     C_R   0.028498 0.962151 0.310170 -0.187976
C69   C     C_R   0.971509 0.962143 0.689837 -0.188065
C70   C     C_R   0.528488 0.462139 0.310161 -0.188075
C71   C     C_R   0.499947 0.499995 0.879714 0.859235
C72   C     C_R   0.471509 0.462144 0.689837 -0.188056
C73   C     C_R   0.028027 0.961430 0.245741 -0.185209
C74   C     C_R   0.971981 0.961421 0.754266 -0.185483
C75   C     C_R   0.528016 0.461417 0.245731 -0.185535
C76   C     C_R   0.471981 0.461421 0.754266 -0.185512
C77   C     C_R   0.081086 0.000000 0.081022 0.905634
C78   C     C_R   0.918914 0.000000 0.918977 0.905448
C79   C     C_R   0.581086 0.500000 0.081023 0.905395
C80   C     C_R   0.418914 0.500000 0.918977 0.905418
C81   C     C_R   0.000144 0.000021 0.186421 -0.001771
C82   C     C_3   0.274308 0.032958 0.217376 -0.509006
C83   C     C_R   0.999857 0.000022 0.813580 -0.001784
C84   C     C_R   0.500143 0.500022 0.186420 -0.001799
C85   C     C_R   0.499857 0.500022 0.813580 -0.001793
C86   C     C_R   0.500001 0.186415 0.500000 -0.003609
C87   C     C_R   0.000000 0.686415 0.500000 -0.003584
C88   C     C_R   0.500000 0.879898 0.500000 0.859841
C89   C     C_R   1.000000 0.379898 0.500000 0.859729
C90   C     C_R   0.418899 0.000155 0.419033 0.903640
C91   C     C_R   0.581101 0.000156 0.580967 0.903545
C92   C     C_R   0.918899 0.500156 0.419033 0.903513
C93   C     C_3   0.725691 0.030403 0.784022 -0.508811
C94   C     C_R   0.081101 0.500157 0.580967 0.903526
C95   C     C_R   0.500000 0.120425 0.500000 0.856803
C96   C     C_R   0.000000 0.620425 0.500000 0.856787
C97   C     C_R   0.000000 0.879466 0.500000 0.866002
C98   C     C_R   0.500000 0.379466 0.500000 0.866016
C99   C     C_R   0.000072 0.999922 0.379657 0.865717
C100  C     C_R   0.999928 0.999924 0.620343 0.865694
C101  C     C_R   0.500072 0.499925 0.379657 0.865705
C102  C     C_R   0.499928 0.499924 0.620343 0.865710
C103  C     C_R   1.000000 0.120374 0.500000 0.865796
C104  C     C_3   0.774310 0.529812 0.215674 -0.508767
C105  C     C_R   0.500000 0.620374 0.500000 0.865797
C106  C     C_R   0.526969 0.782123 0.486894 -0.185043
C107  C     C_R   0.473030 0.782124 0.513105 -0.184950
C108  C     C_R   0.026968 0.282123 0.486890 -0.185056
C109  C     C_R   0.973032 0.282123 0.513110 -0.185057
C110  C     C_R   0.027435 0.218152 0.488053 -0.186866
C111  C     C_R   0.972565 0.218152 0.511946 -0.186877
C112  C     C_R   0.527436 0.718152 0.488058 -0.186858
C113  C     C_R   0.472563 0.718152 0.511942 -0.186842
C114  C     C_3   0.226068 0.932603 0.225977 -0.438753
C115  C     C_3   0.225690 0.530105 0.784178 -0.508787
C116  C     C_3   0.773935 0.932658 0.771057 -0.438754
C117  C     C_3   0.726066 0.432688 0.229617 -0.438756
C118  C     C_3   0.273934 0.432676 0.770712 -0.438755
C119  C     C_R   1.000000 0.186505 0.500000 -0.012096
C120  C     C_R   0.500000 0.686506 0.500000 -0.012123
C121  C     C_R   0.500000 0.813768 0.500000 -0.007171
C122  C     C_R   1.000000 0.313768 0.500000 -0.007107
C123  C     C_R   0.473033 0.217983 0.433181 -0.189156
C124  C     C_R   0.526968 0.217983 0.566819 -0.189242
C125  C     C_R   0.973028 0.717983 0.433183 -0.189243
C126  C     C_3   0.225687 0.032078 0.167972 -0.483682
C127  C     C_R   0.026972 0.717983 0.566817 -0.189230
C128  C     C_R   0.972572 0.781898 0.433411 -0.189908
C129  C     C_R   0.027428 0.781898 0.566589 -0.189893
C130  C     C_R   0.472577 0.281899 0.433409 -0.189861
C131  C     C_R   0.527425 0.281898 0.566591 -0.189906
C132  C     C_R   0.000000 0.813471 0.500000 -0.009334
C133  C     C_R   0.500000 0.313471 0.500000 -0.009353
C134  C     C_3   0.225940 0.037871 0.284352 0.312481
C135  C     C_3   0.774059 0.040400 0.717365 0.312599
C136  C     C_3   0.725941 0.540964 0.282227 0.312626
H1    H     H_    0.284854 0.908835 0.330868 0.201072
H2    H     H_    0.712540 0.905095 0.745086 0.170567
H3    H     H_    0.655445 0.995879 0.449178 0.259398
H4    H     H_    0.674267 0.060833 0.423028 0.202944
H5    H     H_    0.708457 0.995856 0.472305 0.252779
H6    H     H_    0.774856 0.589027 0.443246 0.166760
H7    H     H_    0.828168 0.586487 0.466297 0.130409
H8    H     H_    0.844565 0.497976 0.550855 0.259409
H9    H     H_    0.825743 0.563379 0.576346 0.202938
H10   H     H_    0.791555 0.498248 0.527737 0.252767
H11   H     H_    0.225149 0.588199 0.556321 0.166781
H12   H     H_    0.171835 0.585809 0.533276 0.130434
H13   H     H_    0.787462 0.404770 0.255877 0.170553
H14   H     H_    0.155441 0.496962 0.449157 0.259391
H15   H     H_    0.174267 0.562144 0.423347 0.202947
H16   H     H_    0.208452 0.497084 0.472282 0.252766
H17   H     H_    0.212539 0.404931 0.744592 0.170561
H18   H     H_    0.285566 0.081712 0.226879 0.173866
H19   H     H_    0.714424 0.079030 0.776676 0.173899
H20   H     H_    0.785578 0.578396 0.222531 0.173908
H21   H     H_    0.214423 0.578711 0.777083 0.173907
H22   H     H_    0.950726 0.068441 0.144064 0.140348
H23   H     H_    0.049262 0.068463 0.855923 0.140343
H24   H     H_    0.450742 0.568471 0.144081 0.140372
H25   H     H_    0.715159 0.910969 0.665141 0.201099
H26   H     H_    0.549262 0.568463 0.855923 0.140367
H27   H     H_    0.950201 0.067610 0.257015 0.144000
H28   H     H_    0.049787 0.067633 0.742971 0.143987
H29   H     H_    0.450217 0.567641 0.257034 0.143997
H30   H     H_    0.549787 0.567634 0.742971 0.143994
H31   H     H_    0.050261 0.932598 0.356567 0.143472
H32   H     H_    0.949752 0.932582 0.643445 0.143405
H33   H     H_    0.550243 0.432575 0.356550 0.143390
H34   H     H_    0.449753 0.432582 0.643446 0.143415
H35   H     H_    0.049670 0.931749 0.242459 0.139987
H36   H     H_    0.784839 0.411479 0.335754 0.201104
H37   H     H_    0.950345 0.931730 0.757554 0.139864
H38   H     H_    0.549650 0.431722 0.242441 0.139834
H39   H     H_    0.450346 0.431730 0.757555 0.139849
H40   H     H_    0.547958 0.806896 0.477061 0.143580
H41   H     H_    0.452041 0.806897 0.522938 0.143662
H42   H     H_    0.047955 0.306896 0.477053 0.143560
H43   H     H_    0.952045 0.306897 0.522946 0.143559
H44   H     H_    0.048536 0.193381 0.478500 0.144288
H45   H     H_    0.951464 0.193381 0.521500 0.144258
H46   H     H_    0.548539 0.693381 0.478508 0.144262
H47   H     H_    0.215160 0.411233 0.664682 0.201091
H48   H     H_    0.451461 0.693381 0.521492 0.144293
H49   H     H_    0.452055 0.193198 0.381573 0.141138
H50   H     H_    0.547947 0.193197 0.618427 0.141109
H51   H     H_    0.952047 0.693197 0.381577 0.141098
H52   H     H_    0.047953 0.693196 0.618423 0.141102
H53   H     H_    0.212883 0.902614 0.249509 0.145399
H54   H     H_    0.787129 0.904304 0.746262 0.145314
H55   H     H_    0.712869 0.404713 0.254689 0.145291
H56   H     H_    0.287130 0.404515 0.745774 0.145295
H57   H     H_    0.951488 0.806679 0.381852 0.142927
H58   H     H_    0.216424 0.910120 0.172212 0.189507
H59   H     H_    0.048513 0.806678 0.618148 0.142929
H60   H     H_    0.451496 0.306679 0.381848 0.142941
H61   H     H_    0.548506 0.306679 0.618152 0.142928
H62   H     H_    0.218619 0.086957 0.265397 0.069150
H63   H     H_    0.781387 0.088925 0.738470 0.069109
H64   H     H_    0.718611 0.589348 0.260635 0.069102
H65   H     H_    0.281388 0.589146 0.738928 0.069115
H66   H     H_    0.286951 0.084262 0.343354 -0.007428
H67   H     H_    0.713054 0.086685 0.660449 -0.007552
H68   H     H_    0.786944 0.587211 0.338668 -0.007575
H69   H     H_    0.783571 0.908260 0.823790 0.189575
H70   H     H_    0.213055 0.586960 0.660901 -0.007544
H71   H     H_    0.214633 0.007271 0.114819 0.202892
H72   H     H_    0.785374 0.002869 0.885409 0.202953
H73   H     H_    0.714625 0.501865 0.114566 0.202971
H74   H     H_    0.285374 0.502358 0.885423 0.202966
H75   H     H_    0.213626 0.080335 0.152570 0.175020
H76   H     H_    0.786364 0.077565 0.850888 0.174920
H77   H     H_    0.713638 0.576912 0.148341 0.174899
H78   H     H_    0.286363 0.577235 0.851283 0.174912
H79   H     H_    0.286456 0.009155 0.187410 0.205976
H80   H     H_    0.716431 0.407860 0.177131 0.189591
H81   H     H_    0.713551 0.004751 0.812900 0.205987
H82   H     H_    0.786448 0.503746 0.187056 0.205989
H83   H     H_    0.213551 0.504240 0.812923 0.205990
H84   H     H_    0.229650 0.940929 0.360817 0.183438
H85   H     H_    0.174174 0.946736 0.286373 0.131208
H86   H     H_    0.159436 0.993909 0.372340 0.259404
H87   H     H_    0.185914 0.920536 0.408135 0.199876
H88   H     H_    0.214485 0.992072 0.446957 0.259512
H89   H     H_    0.770323 0.946745 0.636705 0.183391
H90   H     H_    0.825807 0.951689 0.711355 0.130951
H91   H     H_    0.283570 0.408057 0.823319 0.189585
H92   H     H_    0.840515 0.003227 0.627510 0.259721
H93   H     H_    0.814030 0.930340 0.588523 0.199841
H94   H     H_    0.785459 0.002266 0.552865 0.259375
H95   H     H_    0.729683 0.448082 0.363821 0.183376
H96   H     H_    0.674197 0.452829 0.289131 0.130897
H97   H     H_    0.659497 0.505346 0.372467 0.259788
H98   H     H_    0.685983 0.432590 0.412176 0.199837
H99   H     H_    0.714554 0.504584 0.447112 0.259341
H100  H     H_    0.270320 0.447433 0.636434 0.183375
H101  H     H_    0.325805 0.452275 0.711105 0.130924
H102  H     H_    0.287458 0.906634 0.250728 0.170626
H103  H     H_    0.340510 0.504316 0.627521 0.259765
H104  H     H_    0.314024 0.431495 0.588163 0.199841
H105  H     H_    0.285453 0.503457 0.552875 0.259357
H106  H     H_    0.274835 0.079708 0.447823 0.166807
H107  H     H_    0.328157 0.078789 0.470825 0.130611
H108  H     H_    0.344515 0.986674 0.550416 0.259334
H109  H     H_    0.325686 0.049566 0.579399 0.202981
H110  H     H_    0.291494 0.985342 0.527215 0.252831
H111  H     H_    0.725147 0.087320 0.555865 0.166763
H112  H     H_    0.671832 0.085078 0.532829 0.130446
O1    O     O_R   0.999990 0.948250 0.091620 -0.624264
O2    O     O_R   0.965310 0.999930 0.556910 -0.623514
O3    O     O_R   0.534690 0.499930 0.443090 -0.623530
O4    O     O_R   0.465310 0.499930 0.556910 -0.623508
O5    O     O_R   0.965300 0.091560 0.465360 -0.623437
O6    O     O_R   0.034700 0.091560 0.534640 -0.623420
O7    O     O_R   0.465300 0.591560 0.465360 -0.623420
O8    O     O_R   0.534700 0.591560 0.534640 -0.623439
O9    O     O_R   0.999990 0.051750 0.091660 -0.621253
O10   O     O_R   0.000010 0.051750 0.908340 -0.621244
O11   O     O_R   0.499990 0.551750 0.091660 -0.621243
O12   O     O_R   0.000010 0.948250 0.908380 -0.624278
O13   O     O_R   0.500010 0.551750 0.908340 -0.621239
O14   O     O_R   0.061430 0.948250 0.061430 -0.621413
O15   O     O_R   0.938570 0.948250 0.938570 -0.621430
O16   O     O_R   0.561430 0.448250 0.061430 -0.621432
O17   O     O_R   0.438570 0.448250 0.938570 -0.621432
O18   O     O_R   0.061430 0.051750 0.061470 -0.613702
O19   O     O_R   0.938570 0.051750 0.938530 -0.613437
O20   O     O_R   0.561430 0.551750 0.061470 -0.613381
O21   O     O_R   0.438570 0.551750 0.938530 -0.613407
O22   O     O_R   0.500000 0.908530 0.551740 -0.622473
O23   O     O_R   0.499990 0.448250 0.091620 -0.624265
O24   O     O_R   0.500000 0.908530 0.448260 -0.622465
O25   O     O_R   0.000000 0.408530 0.551740 -0.622481
O26   O     O_R   0.000000 0.408530 0.448260 -0.622485
O27   O     O_R   0.438570 0.000200 0.490320 -0.613634
O28   O     O_R   0.561430 0.000200 0.509680 -0.613434
O29   O     O_R   0.938570 0.500200 0.490320 -0.613391
O30   O     O_R   0.061430 0.500200 0.509680 -0.613414
O31   O     O_R   0.438570 0.000170 0.386880 -0.619635
O32   O     O_R   0.561430 0.000170 0.613120 -0.619692
O33   O     O_R   0.938570 0.500170 0.386880 -0.619708
O34   O     O_R   0.500010 0.448250 0.908380 -0.624267
O35   O     O_R   0.061430 0.500170 0.613120 -0.619701
O36   O     O_R   0.500000 0.091870 0.551750 -0.624396
O37   O     O_R   0.500000 0.091870 0.448250 -0.624362
O38   O     O_R   0.000000 0.591870 0.551750 -0.624355
O39   O     O_R   0.000000 0.591870 0.448250 -0.624354
O40   O     O_R   0.965340 0.908230 0.465340 -0.624677
O41   O     O_R   0.034660 0.908230 0.534660 -0.624641
O42   O     O_R   0.465340 0.408230 0.465340 -0.624640
O43   O     O_R   0.534660 0.408230 0.534660 -0.624672
O44   O     O_3   0.205732 0.030567 0.322774 -0.606959
O45   O     O_R   0.965330 0.999890 0.373740 -0.624710
O46   O     O_3   0.794258 0.035665 0.678665 -0.606853
O47   O     O_3   0.705744 0.536815 0.320974 -0.606827
O48   O     O_3   0.294258 0.536258 0.678849 -0.606830
O49   O     O_3   0.289828 0.005875 0.404623 -0.609247
O50   O     O_3   0.710160 0.010975 0.595731 -0.609168
O51   O     O_3   0.789843 0.512133 0.404154 -0.609154
O52   O     O_3   0.210158 0.511573 0.595789 -0.609170
O53   O     O_R   0.034670 0.999890 0.626260 -0.624693
O54   O     O_R   0.465330 0.499890 0.373740 -0.624672
O55   O     O_R   0.534670 0.499890 0.626260 -0.624684
O56   O     O_R   0.034690 0.999930 0.443090 -0.623432
Zn1   Zn    Zn3+2 0.000000 0.930890 0.000000 0.948638
Zn2   Zn    Zn3+2 0.046310 0.999890 0.546280 0.948062
Zn3   Zn    Zn3+2 0.453690 0.499890 0.453720 0.947993
Zn4   Zn    Zn3+2 0.546310 0.499890 0.546280 0.947917
Zn5   Zn    Zn3+2 0.500000 0.430890 0.000000 0.948622
Zn6   Zn    Zn3+2 0.000000 0.069110 0.000000 0.961843
Zn7   Zn    Zn3+2 0.500000 0.569110 0.000000 0.962096
Zn8   Zn    Zn3+2 0.499990 0.000210 0.569090 0.953019
Zn9   Zn    Zn3+2 0.500010 0.000210 0.430910 0.953218
Zn10  Zn    Zn3+2 0.999990 0.500210 0.569090 0.953211
Zn11  Zn    Zn3+2 0.000010 0.500210 0.430910 0.953181
Zn12  Zn    Zn3+2 0.953690 0.999890 0.453720 0.947928

loop_
_geom_bond_atom_site_label_1
_geom_bond_atom_site_label_2
_ccdc_geom_bond_type
O22   Zn8   S    
C55   C59   A    
C74   C83   A    
C20   C118  S    
C40   H9    S    
C26   O44   S    
C131  H61   S    
C135  O46   S    
C29   H94   S    
C135  H63   S    
C49   O12   A    
C113  H48   S    
C12   C126  S    
C13   H77   S    
C107  C113  A    
C63   H30   S    
O7    Zn3   S    
C89   O25   A    
C79   O16   A    
C7    H70   S    
C73   C81   A    
C129  H59   S    
C30   O47   S    
C31   H98   S    
O15   Zn1   S    
O10   Zn6   S    
C112  C120  A    
C17   C21   S    
C90   O31   A    
C8    C35   T    
C123  H49   S    
C19   C23   S    
C5    O50   S    
C37   C38   S    
C16   C118  S    
C113  C120  A    
O2    Zn12  S    
C126  H71   S    
C69   C74   A    
C128  H57   S    
C2    H72   S    
C105  O7    A    
C58   H26   S    
C56   C83   A    
C32   H100  S    
C114  H58   S    
C34   H107  S    
C71   O34   A    
C27   H87   S    
O13   Zn7   S    
C76   H39   S    
C16   C50   S    
C65   C100  S    
O35   Zn10  S    
C3    O48   S    
C47   C52   T    
C21   C35   S    
C3    C7    S    
C37   H111  S    
C69   H32   S    
C124  H50   S    
C66   C70   A    
O38   Zn10  S    
C97   O41   A    
O24   Zn9   S    
O14   Zn1   S    
C2    C14   S    
C136  H64   S    
O45   Zn12  S    
C86   C95   S    
C82   H79   S    
C61   C65   A    
O43   Zn4   S    
C103  O6    A    
C17   H1    S    
O28   Zn9   S    
C76   C85   A    
C33   H105  S    
C28   O46   S    
O5    Zn12  S    
C64   C68   A    
C91   O28   A    
C70   H33   S    
C6    O51   S    
C109  C111  A    
C41   O52   S    
C1    O1    A    
C75   C84   A    
C14   C135  S    
C96   O39   A    
C77   O18   A    
C111  C119  A    
C67   C72   A    
O39   Zn11  S    
C24   H78   S    
C55   H22   S    
C105  C120  S    
C55   C81   A    
O56   Zn2   S    
C12   C134  S    
C107  H41   S    
C75   H38   S    
C36   H109  S    
C66   C101  S    
C15   C48   S    
C12   C114  S    
C48   C53   T    
C9    C43   T    
C20   H17   S    
C62   C66   A    
C10   C44   T    
C13   H73   S    
C93   H19   S    
C19   H36   S    
C12   C46   S    
C39   C40   S    
O1    Zn1   S    
C15   C136  S    
C31   H99   S    
C46   C51   T    
C30   H95   S    
O9    Zn6   S    
C127  C129  A    
C94   O30   A    
C22   C43   S    
C79   O20   A    
C42   H15   S    
C101  O54   A    
C123  C130  A    
C86   C124  A    
C38   H5    S    
O34   Zn5   S    
C25   C45   S    
C4    C134  S    
C5    C135  S    
O4    Zn3   S    
C18   C22   S    
C39   H7    S    
C28   H89   S    
C5    H67   S    
O55   Zn4   S    
C40   H10   S    
O12   Zn1   S    
C125  H51   S    
C78   O19   A    
C40   H8    S    
C29   H93   S    
C33   H104  S    
C41   H12   S    
C19   H13   S    
C108  C110  A    
O6    Zn2   S    
C34   C36   S    
C60   O23   A    
O18   Zn6   S    
C59   H27   S    
C21   C82   S    
C70   C75   A    
C106  H40   S    
C39   O51   S    
C29   H92   S    
C3    C16   S    
C94   O35   A    
C97   O40   A    
C61   H28   S    
C41   C42   S    
C7    O52   S    
C31   H97   S    
C98   C133  S    
C26   C27   S    
C50   C54   T    
C28   C29   S    
C98   O42   A    
C134  O44   S    
C56   H23   S    
C130  H60   S    
C30   C31   S    
C20   C25   S    
C1    C81   S    
C111  H45   S    
C80   O21   A    
C100  O53   A    
C18   H2    S    
C82   C126  S    
C117  H55   S    
C102  O55   A    
C118  H56   S    
C96   O38   A    
C38   H3    S    
C54   C80   S    
C129  C132  A    
C17   H102  S    
C10   C92   S    
C114  H53   S    
C101  O3    A    
C52   C78   S    
C1    O9    A    
C32   O48   S    
C77   O14   A    
C36   H108  S    
C18   C116  S    
C24   H74   S    
O41   Zn2   S    
C95   O37   A    
O54   Zn3   S    
C23   C44   S    
C15   C117  S    
C110  C119  A    
C51   C77   S    
C6    H68   S    
C4    H66   S    
C23   C104  S    
C39   H6    S    
C127  H52   S    
O42   Zn3   S    
C57   C84   A    
C108  H42   S    
C13   C104  S    
C104  H82   S    
C20   H47   S    
C11   C94   S    
C88   O22   A    
C57   H24   S    
C89   O26   A    
C103  O5    A    
C11   C45   T    
C130  C133  A    
C4    O49   S    
C107  C121  A    
C37   O50   S    
O31   Zn9   S    
C97   C132  S    
C88   C121  S    
C99   O45   A    
O8    Zn4   S    
C118  H91   S    
O32   Zn8   S    
C2    H76   S    
C7    C25   S    
C126  H75   S    
C32   C33   S    
C49   C83   S    
O29   Zn10  S    
O53   Zn2   S    
C65   C69   A    
C18   H25   S    
O20   Zn7   S    
C19   C117  S    
C95   O36   A    
C32   H101  S    
C56   C61   A    
C105  O8    A    
O27   Zn8   S    
C71   O13   A    
C34   H106  S    
C36   H110  S    
C78   O15   A    
C72   C76   A    
C9    C91   S    
C87   C127  A    
O36   Zn8   S    
C57   C62   A    
C106  C112  A    
C27   H88   S    
C37   H112  S    
C115  H21   S    
C102  O4    A    
O23   Zn5   S    
C60   O11   A    
C93   H81   S    
C53   C79   S    
C100  O2    A    
C25   C115  S    
C109  C122  A    
C30   H96   S    
C92   O29   A    
C6    C136  S    
C71   C85   S    
O11   Zn7   S    
C88   O24   A    
C5    C22   S    
O3    Zn4   S    
C125  C128  A    
C90   O27   A    
C73   H35   S    
C42   H16   S    
C116  H69   S    
O25   Zn10  S    
C16   C24   S    
C115  H83   S    
C128  C132  A    
C17   C114  S    
C64   C99   S    
C63   C67   A    
C26   H84   S    
C80   O17   A    
C74   H37   S    
C28   H90   S    
O30   Zn11  S    
C112  H46   S    
C68   C73   A    
C124  C131  A    
C3    H65   S    
C72   H34   S    
C117  H80   S    
C92   O33   A    
C33   H103  S    
C136  O47   S    
C49   O10   A    
C109  H43   S    
C41   H11   S    
C110  H44   S    
C87   C96   S    
C26   H85   S    
C104  H20   S    
O19   Zn6   S    
O37   Zn9   S    
C13   C15   S    
C22   C93   S    
C8    C90   S    
O40   Zn12  S    
C58   C85   A    
C87   C125  A    
C58   C63   A    
C134  H62   S    
C116  H54   S    
C27   H86   S    
C2    C93   S    
C103  C119  S    
C108  C122  A    
C131  C133  A    
O16   Zn5   S    
C14   C47   S    
C98   O43   A    
C4    C21   S    
C60   C84   S    
C34   O49   S    
C14   C116  S    
C6    C23   S    
C106  C121  A    
C91   O32   A    
C42   H14   S    
C99   O56   A    
C82   H18   S    
C68   H31   S    
C59   C64   A    
O26   Zn11  S    
C62   H29   S    
O17   Zn5   S    
C24   C115  S    
C86   C123  A    
C38   H4    S    
O33   Zn11  S    
C89   C122  S    
C67   C102  S    
O21   Zn7   S    
