data_mof_unit_15147.cif
_audit_creation_date              2012-12-11T14:15:43-0500
_audit_creation_method            fapswitch 2.2
_symmetry_space_group_name_H-M    P1
_symmetry_Int_Tables_number       1
_space_group_crystal_system       triclinic
_cell_length_a                    11.159732
_cell_length_b                    12.722157
_cell_length_c                    23.52657
_cell_angle_alpha                 90.893427
_cell_angle_beta                  96.993185
_cell_angle_gamma                 68.410697
_cell_volume                      3081.22401076

loop_
_atom_site_label
_atom_site_type_symbol
_atom_type_description
_atom_site_fract_x
_atom_site_fract_y
_atom_site_fract_z
_atom_type_partial_charge
C1    C     C_R   0.150372 0.616566 0.429367 0.550684
C2    C     C_2   0.180660 0.233041 0.226745 -0.085906
C3    C     C_2   0.154430 0.165457 0.262511 -0.088881
C4    C     C_R   0.748074 0.604581 0.403643 0.569465
C5    C     C_1   0.131799 0.198776 0.320385 -0.004920
C6    C     C_1   0.210300 0.197704 0.169835 0.006194
C7    C     C_1   0.115787 0.231857 0.368270 0.033931
C8    C     C_1   0.171048 0.759416 0.125611 0.055451
C9    C     C_2   0.140788 0.741858 0.234495 0.039741
C10   C     C_2   0.226934 0.655613 0.268471 0.342805
C11   C     C_1   0.214295 0.641709 0.327920 0.085506
C12   C     C_R   0.643101 0.567140 0.308498 -0.009106
C13   C     C_1   0.157799 0.746750 0.174769 0.048859
C14   C     C_1   0.192959 0.630553 0.375995 0.067725
C15   C     C_1   0.628553 0.753671 0.865204 0.062598
C16   C     C_R   0.101136 0.282133 0.423337 0.543165
C17   C     C_2   0.701251 0.693877 0.762854 -0.010625
C18   C     C_2   0.611741 0.716756 0.716635 -0.023831
C19   C     C_1   0.649865 0.676621 0.661479 0.064892
C20   C     C_1   0.664478 0.728741 0.818821 0.032307
C21   C     C_1   0.689221 0.642574 0.616586 0.080644
C22   C     C_R   0.187483 0.194057 0.857896 -0.009596
C23   C     C_R   0.706684 0.730959 0.317385 0.364591
C24   C     C_R   0.103499 0.240637 0.644121 0.016751
C25   C     C_R   0.984268 0.201302 0.715722 0.049195
C26   C     C_R   0.003631 0.208126 0.658427 0.312286
C27   C     C_R   0.187857 0.262820 0.687276 0.315560
C28   C     C_R   0.146295 0.614668 0.592176 0.598136
C29   C     C_R   0.173134 0.253272 0.744261 -0.067634
C30   C     C_R   0.075527 0.216585 0.760170 -0.127613
C31   C     C_R   0.080758 0.190636 0.819236 -0.008108
C32   C     C_R   0.262990 0.252863 0.842162 0.366001
C33   C     C_R   0.256347 0.281303 0.785564 -0.026860
C34   C     C_R   0.702240 0.737352 0.257626 0.003635
C35   C     C_R   0.126309 0.735923 0.856342 -0.032951
C36   C     C_R   0.176544 0.627721 0.653240 -0.024958
C37   C     C_R   0.316499 0.569704 0.743877 0.017499
C38   C     C_R   0.300744 0.568832 0.683406 -0.014396
C39   C     C_R   0.069957 0.686021 0.682713 0.380151
C40   C     C_R   0.749749 0.602693 0.565932 0.548496
C41   C     C_R   0.086092 0.694178 0.741378 -0.025892
C42   C     C_R   0.209585 0.636324 0.772296 -0.133785
C43   C     C_R   0.226370 0.656229 0.830364 -0.174742
C44   C     C_R   0.001115 0.781329 0.827439 0.395093
C45   C     C_R   0.689150 0.648000 0.224468 -0.072730
C46   C     C_R   0.981110 0.762851 0.769626 0.447771
C47   C     C_R   0.265817 0.110146 0.069454 0.543978
C48   C     C_R   0.603170 0.774017 0.080898 0.585637
C49   C     C_R   0.189257 0.788208 0.069580 0.549431
C50   C     C_R   0.238736 0.118155 0.908815 0.571194
C51   C     C_R   0.573640 0.776056 0.918193 0.558059
C52   C     C_R   0.099402 0.281095 0.586056 0.598959
C53   C     C_R   0.163017 0.784459 0.908522 0.586430
C54   C     C_R   0.684110 0.750009 0.137765 -0.014011
C55   C     C_R   0.688847 0.639688 0.343640 -0.006460
C56   C     C_R   0.704915 0.646206 0.165864 0.025504
C57   C     C_R   0.650310 0.568479 0.249669 -0.089614
C58   C     C_2   0.755913 0.537680 0.134790 0.607965
C59   C     C_2   0.032346 0.837851 0.255437 0.510974
C60   C     C_2   0.983326 0.153593 0.840875 0.621133
C61   C     C_2   0.860814 0.190065 0.725404 0.688028
C62   C     C_2   0.713900 0.938535 0.143700 0.636662
C63   C     C_2   0.445589 0.506172 0.776850 0.599701
C64   C     C_2   0.412244 0.506531 0.651589 0.652018
C65   C     C_2   0.585902 0.490283 0.331263 0.654487
C66   C     C_R   0.702852 0.838358 0.170608 -0.009206
C67   C     C_R   0.715548 0.829189 0.230601 -0.087391
C68   C     C_1   0.235836 0.162814 0.123064 0.041771
Cr1   Cr    Cr6+3 0.189770 0.415650 0.511620 1.128984
Cr2   Cr    Cr6+3 0.930400 0.667320 0.496770 1.173296
Cr3   Cr    Cr6+3 0.879870 0.417010 0.491650 1.127119
Cr4   Cr    Cr6+3 0.149500 0.973980 0.985330 1.117152
Cr5   Cr    Cr6+3 0.457000 0.976510 0.994660 1.139652
Cr6   Cr    Cr6+3 0.411170 0.724270 0.995270 1.094549
F1    F     F_    0.353164 0.272354 0.880589 -0.563404
F2    F     F_    0.918467 0.191182 0.616135 -0.564189
F3    F     F_    0.283066 0.297929 0.674197 -0.594789
F4    F     F_    0.900345 0.848773 0.854191 -0.593554
F5    F     F_    0.862217 0.821255 0.740772 -0.518013
F6    F     F_    0.947773 0.732718 0.654233 -0.545724
F7    F     F_    0.734397 0.810383 0.349878 -0.608323
F8    F     F_    0.325378 0.574117 0.245853 -0.624670
H1    H     H_    0.509877 0.764365 0.720146 0.137595
H2    H     H_    0.924216 0.906635 0.319013 0.377679
H3    H     H_    0.899773 0.038582 0.840241 0.405390
H4    H     H_    0.691052 0.256744 0.758380 0.387540
H5    H     H_    0.774998 0.001094 0.079428 0.355162
H6    H     H_    0.636779 0.478468 0.790387 0.372473
H7    H     H_    0.510847 0.507195 0.585299 0.353839
H8    H     H_    0.551088 0.345663 0.322702 0.358694
H9    H     H_    0.802421 0.643754 0.759283 0.152471
H10   H     H_    0.323720 0.317889 0.773815 0.238830
H11   H     H_    0.322087 0.620056 0.854103 0.205077
H12   H     H_    0.617388 0.511758 0.223150 0.237152
H13   H     H_    0.729749 0.896435 0.255948 0.218697
H14   H     H_    0.152976 0.083855 0.248950 0.163060
H15   H     H_    0.182934 0.314274 0.240524 0.160882
H16   H     H_    0.830264 0.460617 0.064295 0.353853
O1    O     O_R   0.196340 0.303200 0.448500 -0.499346
O2    O     O_R   0.555390 0.700940 0.062700 -0.476566
O3    O     O_R   0.295020 0.731920 0.049950 -0.493266
O4    O     O_R   0.199310 0.519670 0.454880 -0.497057
O5    O     O_R   0.094290 0.884230 0.921550 -0.429773
O6    O     O_R   0.168980 0.069410 0.926940 -0.490490
O7    O     O_R   0.358400 0.089990 0.927950 -0.431777
O8    O     O_R   0.544850 0.873850 0.939920 -0.470928
O9    O     O_R   0.536020 0.701900 0.936430 -0.497634
O10   O     O_R   0.277070 0.732810 0.932890 -0.521216
O11   O     O_3   0.339220 0.891590 0.991750 -0.300590
O12   O     O_R   0.811960 0.658090 0.547150 -0.453334
O13   O     O_R   0.045660 0.691380 0.441680 -0.462142
O14   O     O_R   0.811930 0.659460 0.430950 -0.434493
O15   O     O_R   0.757900 0.507620 0.421760 -0.492112
O16   O     O_R   0.988630 0.322990 0.439840 -0.488865
O17   O     O_R   0.196380 0.301720 0.573850 -0.428567
O18   O     O_R   0.199350 0.518300 0.571080 -0.472610
O19   O     O_R   0.045700 0.689900 0.567030 -0.427353
O20   O     O_2   0.772963 0.446833 0.157655 -0.498161
O21   O     O_R   0.794586 0.538889 0.080466 -0.661667
O22   O     O_2   0.972975 0.921050 0.223955 -0.485528
O23   O     O_R   0.757930 0.506140 0.547110 -0.496729
O24   O     O_R   0.997560 0.835013 0.310347 -0.686270
O25   O     O_2   0.913112 0.212355 0.874401 -0.460609
O26   O     O_R   0.974443 0.050557 0.824513 -0.647459
O27   O     O_2   0.834246 0.110728 0.705549 -0.346744
O28   O     O_R   0.772317 0.273039 0.755009 -0.665865
O29   O     O_2   0.676634 0.030080 0.166534 -0.463302
O30   O     O_R   0.771436 0.927317 0.093214 -0.652082
O31   O     O_2   0.454901 0.439812 0.815693 -0.457780
O32   O     O_R   0.556009 0.522789 0.763570 -0.691881
O33   O     O_2   0.484007 0.409948 0.666539 -0.398517
O34   O     O_R   0.988670 0.321620 0.556040 -0.450594
O35   O     O_R   0.433499 0.558288 0.603834 -0.705368
O36   O     O_2   0.526208 0.516663 0.372824 -0.495729
O37   O     O_R   0.595763 0.389685 0.303767 -0.635328
O38   O     O_3   0.000020 0.499990 0.500010 -0.318717
O39   O     O_R   0.113660 0.883270 0.047820 -0.488018
O40   O     O_R   0.186930 0.068530 0.043990 -0.498490
O41   O     O_R   0.377770 0.089040 0.054220 -0.479659
O42   O     O_R   0.562800 0.872960 0.056970 -0.475705

loop_
_geom_bond_atom_site_label_1
_geom_bond_atom_site_label_2
_ccdc_geom_bond_type
C24   C52   S    
C67   H13   S    
Cr1   O18   S    
C50   O6    A    
C8    C13   T    
C49   O39   A    
C35   C53   S    
C41   C42   A    
C17   H9    S    
C24   C27   A    
H6    O32   S    
Cr6   O11   S    
H16   O21   S    
C39   C41   A    
Cr1   O4    S    
C48   C54   S    
C40   O23   A    
C45   C57   A    
C59   O22   D    
C22   C32   A    
C19   C21   T    
C24   C26   A    
C28   O19   A    
C49   O3    A    
C30   C31   A    
C11   C14   T    
H4    O28   S    
Cr2   O19   S    
H2    O24   S    
C29   C33   A    
C58   O20   D    
C17   C20   S    
C27   C29   A    
Cr3   O15   S    
H3    O26   S    
C18   C19   S    
C63   O32   S    
C37   C42   A    
C60   O26   S    
C9    C13   S    
C28   O18   A    
Cr3   O34   S    
C64   O35   S    
Cr1   O17   S    
C2    H15   S    
C50   O7    A    
C26   F2    S    
C41   C46   A    
C3    H14   S    
C15   C51   S    
C29   C30   A    
C35   C43   A    
C9    C10   D    
C65   O36   D    
C22   C50   S    
C59   O24   S    
Cr4   O40   S    
C66   C67   A    
C4    O14   A    
Cr2   O38   S    
C2    C6    S    
C32   F1    S    
H5    O30   S    
C37   C63   S    
C44   C46   A    
C18   H1    S    
C38   C64   S    
C15   C20   T    
C48   O2    A    
C54   C56   A    
H7    O35   S    
C22   C31   A    
C48   O42   A    
C52   O34   A    
C4    O15   A    
C45   C56   A    
Cr2   O12   S    
C10   C11   S    
C33   H10   S    
Cr3   O38   S    
C5    C7    T    
C62   C66   S    
Cr6   O2    S    
Cr5   O41   S    
C3    C5    S    
C25   C26   A    
C10   F8    S    
Cr3   O16   S    
C9    C59   S    
C31   C60   S    
C60   O25   D    
C37   C38   A    
Cr5   O7    S    
C64   O33   D    
C23   C34   A    
C6    C68   T    
C17   C18   D    
C34   C45   A    
C25   C61   S    
Cr5   O11   S    
C35   C44   A    
C65   O37   S    
Cr2   O14   S    
Cr6   O3    S    
C12   C57   A    
Cr6   O9    S    
Cr4   O39   S    
Cr5   O42   S    
Cr1   O38   S    
C57   H12   S    
C4    C55   S    
C42   C43   A    
Cr1   O1    S    
C47   C68   S    
C52   O17   A    
C25   C30   A    
Cr4   O11   S    
C7    C16   S    
C23   F7    S    
Cr3   O23   S    
C36   C39   A    
C27   F3    S    
C16   O16   A    
C34   C67   A    
C40   O12   A    
C16   O1    A    
C23   C55   A    
C54   C66   A    
Cr4   O5    S    
Cr4   O6    S    
C12   C65   S    
C39   F6    S    
C36   C38   A    
C2    C3    D    
C32   C33   A    
C62   O30   S    
H8    O37   S    
C53   O10   A    
Cr5   O8    S    
C46   F5    S    
C21   C40   S    
C53   O5    A    
C51   O8    A    
C8    C49   S    
C47   O40   A    
C44   F4    S    
C58   O21   S    
C43   H11   S    
C56   C58   S    
C63   O31   D    
C12   C55   A    
Cr2   O13   S    
Cr6   O10   S    
C62   O29   D    
C61   O28   S    
C28   C36   S    
C51   O9    A    
C47   O41   A    
C61   O27   D    
C1    C14   S    
C1    O4    A    
C1    O13   A    
