data_mof_unit_41469.cif
_audit_creation_date              2012-12-11T14:27:03-0500
_audit_creation_method            fapswitch 2.2
_symmetry_space_group_name_H-M    P1
_symmetry_Int_Tables_number       1
_space_group_crystal_system       triclinic
_cell_length_a                    15.016986
_cell_length_b                    14.924442
_cell_length_c                    14.993005
_cell_angle_alpha                 109.274673
_cell_angle_beta                  109.632994
_cell_angle_gamma                 109.448172
_cell_volume                      2588.53485959

loop_
_atom_site_label
_atom_site_type_symbol
_atom_type_description
_atom_site_fract_x
_atom_site_fract_y
_atom_site_fract_z
_atom_type_partial_charge
C1    C     C_R   0.963756 0.779791 0.054985 -0.147393
C2    C     C_R   0.226166 0.759324 0.313701 -0.117044
C3    C     C_R   0.970805 0.406462 0.219939 -0.083076
C4    C     C_R   0.787092 0.205340 0.694670 -0.154343
C5    C     C_R   0.298485 0.590788 0.994548 -0.146492
C6    C     C_R   0.041354 0.497179 0.322864 0.117418
C7    C     C_R   0.299778 0.499723 0.933126 -0.001907
C8    C     C_R   0.326700 0.779969 0.321033 0.147533
C9    C     C_R   0.929984 0.131718 0.927419 0.122347
C10   C     C_3   0.470455 0.397698 0.834916 -0.399101
C11   C     C_3   0.366287 0.399261 0.827091 -0.404491
C12   C     C_R   0.691573 0.143997 0.689414 0.041883
C13   C     C_3   0.564700 0.500380 0.041548 -0.391667
C14   C     C_3   0.572260 0.603281 0.936607 -0.390292
C15   C     C_3   0.572336 0.500682 0.941103 0.390325
C16   C     C_R   0.079373 0.591232 0.785250 -0.155385
C17   C     C_3   0.396413 0.500133 0.930749 0.395351
C18   C     C_3   0.459901 0.496536 0.033632 -0.394220
C19   C     C_3   0.469971 0.605034 0.934810 -0.409643
C20   C     C_2   0.447057 0.860740 0.516422 -0.100106
C21   C     C_2   0.432153 0.828828 0.416045 -0.226696
C22   C     C_2   0.552685 0.952848 0.608927 -0.064549
C23   C     C_R   0.039908 0.499593 0.688341 0.132539
C24   C     C_2   0.605468 0.037118 0.597687 -0.195319
C25   C     C_2   0.064029 0.417897 0.534827 -0.125361
C26   C     C_2   0.061579 0.501472 0.602262 -0.195208
C27   C     C_2   0.059142 0.409863 0.433380 -0.114122
C28   C     C_R   0.685650 0.409966 0.935930 -0.106053
C29   C     C_2   0.093803 0.499891 0.424963 -0.189908
C30   C     C_2   0.910751 0.951828 0.827387 0.092826
C31   C     C_2   0.881747 0.013958 0.885814 -0.287777
C32   C     C_2   0.932134 0.873528 0.857257 -0.180292
C33   C     C_2   0.963431 0.890025 0.959204 -0.216270
C34   C     C_R   0.674135 0.501542 0.955370 -0.034472
C35   C     C_R   0.989255 0.408119 0.694884 -0.113143
C36   C     C_R   0.775767 0.592031 0.032696 -0.127926
C37   C     C_R   0.698135 0.200543 0.787923 -0.040102
C38   C     C_R   0.048022 0.771015 0.956624 -0.126825
C39   C     C_R   0.990921 0.816743 0.989378 0.146397
C40   C     C_R   0.924905 0.961640 0.736854 0.135455
C41   C     C_R   0.011747 0.956696 0.723355 -0.184448
C42   C     C_R   0.024789 0.966688 0.638416 -0.111412
C43   C     C_R   0.951040 0.980851 0.565859 -0.097149
C44   C     C_R   0.863841 0.984712 0.577836 -0.134963
C45   C     C_R   0.052574 0.588711 0.313553 -0.155847
C46   C     C_R   0.850503 0.974899 0.662655 -0.149604
C47   C     C_2   0.628427 0.157702 0.830453 0.906449
C48   C     C_R   0.209552 0.408656 0.906350 -0.141647
C49   C     C_R   0.312899 0.749056 0.218745 -0.152018
C50   C     C_R   0.904992 0.196192 0.992596 -0.149694
C51   C     C_R   0.997584 0.197155 0.903950 -0.114964
H1    H     H_    0.928942 0.809327 0.102108 0.087776
H2    H     H_    0.476025 0.395339 0.762099 0.160198
H3    H     H_    0.322656 0.402519 0.752811 0.160424
H4    H     H_    0.813921 0.178976 0.637407 0.104286
H5    H     H_    0.311679 0.321312 0.818227 0.152042
H6    H     H_    0.566636 0.428321 0.046995 0.164066
H7    H     H_    0.409220 0.420197 0.030430 0.161995
H8    H     H_    0.644713 0.680559 0.008448 0.144464
H9    H     H_    0.573939 0.601903 0.862536 0.161181
H10   H     H_    0.424113 0.610568 0.863004 0.159162
H11   H     H_    0.497047 0.679784 0.009720 0.148329
H12   H     H_    0.180881 0.323449 0.854219 0.092355
H13   H     H_    0.635498 0.575288 0.118259 0.157513
H14   H     H_    0.480132 0.567082 0.108674 0.157469
H15   H     H_    0.378975 0.833049 0.530327 0.134581
H16   H     H_    0.135444 0.674775 0.811911 0.092775
H17   H     H_    0.502413 0.851261 0.404328 0.131384
H18   H     H_    0.578184 0.958483 0.688284 0.136328
H19   H     H_    0.580297 0.031725 0.518352 0.140193
H20   H     H_    0.053262 0.347235 0.545412 0.116782
H21   H     H_    0.068937 0.571491 0.591579 0.132751
H22   H     H_    0.009005 0.328754 0.361816 0.116460
H23   H     H_    0.374903 0.755943 0.196074 0.096357
H24   H     H_    0.149947 0.580315 0.497276 0.130273
H25   H     H_    0.843997 0.985392 0.928697 0.136835
H26   H     H_    0.929485 0.805780 0.797241 0.134795
H27   H     H_    0.620986 0.326862 0.886816 0.112254
H28   H     H_    0.968455 0.957191 0.022027 0.136352
H29   H     H_    0.959898 0.323758 0.638835 0.083702
H30   H     H_    0.794777 0.674804 0.078735 0.085951
H31   H     H_    0.086933 0.788131 0.910740 0.094263
H32   H     H_    0.091000 0.670192 0.380347 0.092961
H33   H     H_    0.070270 0.946758 0.779370 0.115011
H34   H     H_    0.843736 0.166828 0.014195 0.139900
H35   H     H_    0.092258 0.963641 0.628960 0.113380
H36   H     H_    0.961353 0.988623 0.500229 0.097868
H37   H     H_    0.806477 0.995224 0.521338 0.103583
H38   H     H_    0.782349 0.977773 0.670654 0.129609
H39   H     H_    0.618928 0.159474 0.961989 0.315430
H40   H     H_    0.024278 0.171937 0.846522 0.113182
H41   H     H_    0.213423 0.787275 0.381661 0.089377
H42   H     H_    0.942607 0.321420 0.196964 0.090804
H43   H     H_    0.351993 0.675300 0.022015 0.086811
H44   H     H_    0.463930 0.321190 0.834418 0.165690
N1    N     N_R   0.993980 0.704500 0.053430 -0.041559
N2    N     N_R   0.053690 0.556380 0.849240 -0.039250
N3    N     N_R   0.790390 0.443640 0.997160 -0.025110
N4    N     N_R   0.998260 0.443670 0.792970 -0.042038
N5    N     N_R   0.845830 0.556350 0.053430 -0.040097
N6    N     N_R   0.792820 0.295510 0.849240 -0.061521
N7    N     N_R   0.051260 0.704510 0.997160 -0.044797
N8    N     N_R   0.001740 0.556330 0.207030 -0.045636
N9    N     N_R   0.154170 0.443650 0.946570 -0.034358
N10   N     N_R   0.207180 0.704490 0.150760 -0.043125
N11   N     N_R   0.948740 0.295490 0.002840 -0.037561
N12   N     N_R   0.006020 0.295500 0.946570 -0.050022
N13   N     N_R   0.149890 0.704480 0.207030 -0.045867
N14   N     N_R   0.946310 0.443620 0.150760 -0.035025
N15   N     N_R   0.209610 0.556360 0.002840 -0.033095
N16   N     N_R   0.850110 0.295520 0.792970 -0.047424
Ni1   Ni    Ni4+2 0.997880 0.629240 0.129060 0.211313
Ni2   Ni    Ni4+2 0.002120 0.370760 0.870940 0.206889
Ni3   Ni    Ni4+2 0.129260 0.629260 0.000000 0.207585
Ni4   Ni    Ni4+2 0.870740 0.370740 0.000000 0.258765
O1    O     O_2   0.529846 0.097792 0.770054 -0.661927
O2    O     O_R   0.674824 0.191958 0.941813 -0.830641

loop_
_geom_bond_atom_site_label_1
_geom_bond_atom_site_label_2
_ccdc_geom_bond_type
N9    N15   A    
C6    C45   A    
N1    N7    A    
C27   C29   D    
C26   H21   S    
C41   C42   A    
C9    C51   A    
C3    C6    A    
C5    H43   S    
N3    Ni4   S    
C24   H19   S    
C46   H38   S    
C18   H14   S    
C40   C46   A    
C14   H8    S    
N1    Ni1   S    
C33   C39   S    
C13   C18   S    
C20   H15   S    
C3    N14   A    
C10   C15   S    
C30   C31   D    
C16   N2    A    
C13   H6    S    
N11   N12   A    
C19   H11   S    
C48   N9    A    
C35   H29   S    
C23   C26   S    
C12   C37   A    
C10   H2    S    
N12   Ni2   S    
C45   N8    A    
C50   H34   S    
C51   H40   S    
C32   H26   S    
C18   H7    S    
C7    C17   S    
C42   H35   S    
C4    C12   A    
C28   H27   S    
N15   Ni3   S    
C15   C34   S    
C28   C34   A    
C38   H31   S    
C45   H32   S    
C35   N4    A    
N2    N4    A    
C44   C46   A    
C8    C21   S    
C9    C31   S    
C47   O1    D    
N10   N13   A    
C30   C32   S    
H39   O2    S    
N10   Ni3   S    
N16   Ni2   S    
C5    C7    A    
C1    C39   A    
C33   H28   S    
C48   H12   S    
C49   N10   A    
C25   C26   D    
C41   H33   S    
N13   Ni1   S    
N8    Ni1   S    
C43   C44   A    
N7    Ni3   S    
C36   H30   S    
C17   C18   S    
C30   C40   S    
C3    H42   S    
C16   H16   S    
C2    H41   S    
C11   H3    S    
C25   H20   S    
C51   N12   A    
C40   C41   A    
C4    N16   A    
C20   C22   S    
N5    Ni1   S    
C16   C23   A    
C23   C35   A    
C13   C15   S    
C21   H17   S    
N6    Ni4   S    
C22   C24   D    
C37   C47   S    
C42   C43   A    
C28   N3    A    
C11   C17   S    
C22   H18   S    
C14   C15   S    
C14   C19   S    
C2    C8    A    
C9    C50   A    
N4    Ni2   S    
C36   N5    A    
C29   H24   S    
C25   C27   S    
C14   H9    S    
C12   C24   S    
N3    N5    A    
N11   Ni4   S    
N8    N14   A    
C43   H36   S    
C7    C48   A    
C4    H4    S    
C44   H37   S    
C32   C33   D    
C37   N6    A    
C31   H25   S    
C38   C39   A    
C13   H13   S    
C10   H44   S    
C19   H10   S    
C1    N1    A    
N6    N16   A    
C2    N13   A    
C17   C19   S    
C34   C36   A    
C1    H1    S    
C10   C11   S    
N14   Ni4   S    
N9    Ni2   S    
C47   O2    S    
C6    C29   S    
C20   C21   D    
C38   N7    A    
C5    N15   A    
C50   N11   A    
C49   H23   S    
N2    Ni3   S    
C27   H22   S    
C8    C49   A    
C11   H5    S    
