data_mof_unit_14321.cif
_audit_creation_date              2013-03-05T15:44:43-0500
_audit_creation_method            fapswitch 2.2
_symmetry_space_group_name_H-M    P1
_symmetry_Int_Tables_number       1
_space_group_crystal_system       triclinic
_cell_length_a                    23.446688
_cell_length_b                    30.519556
_cell_length_c                    19.098933
_cell_angle_alpha                 89.826505
_cell_angle_beta                  126.097096
_cell_angle_gamma                 90.259219
_cell_volume                      11042.9805257

loop_
_atom_site_label
_atom_site_type_symbol
_atom_site_description
_atom_site_fract_x
_atom_site_fract_y
_atom_site_fract_z
_atom_type_partial_charge
O1    O     O_R   0.678330 0.769930 0.856640 -0.612130
O2    O     O_R   0.321670 0.230070 0.143360 -0.578754
O3    O     O_R   0.321670 0.769930 0.143360 -0.615228
O4    O     O_R   0.678330 0.230070 0.856640 -0.578749
O5    O     O_R   0.178330 0.269930 0.856640 -0.599038
O6    O     O_R   0.821670 0.730070 0.143360 -0.586706
O7    O     O_R   0.821670 0.269930 0.143360 -0.626899
O8    O     O_R   0.178330 0.730070 0.856640 -0.611553
O9    O     O_R   0.730030 0.821640 0.960080 -0.590363
O10   O     O_R   0.269970 0.178360 0.039920 -0.619804
O11   O     O_R   0.269970 0.821640 0.039920 -0.588273
O12   O     O_R   0.730030 0.178360 0.960080 -0.615913
O13   O     O_R   0.230030 0.321640 0.960080 -0.626431
O14   O     O_R   0.769970 0.678360 0.039920 -0.615877
O15   O     O_R   0.769970 0.321640 0.039920 -0.573137
O16   O     O_R   0.230030 0.678360 0.960080 -0.593015
C1    C     C_R   0.689667 0.809962 0.880996 0.878289
C2    C     C_R   0.307004 0.190039 0.119762 0.876723
C3    C     C_R   0.310184 0.809966 0.119026 0.878219
C4    C     C_R   0.693081 0.190068 0.880229 0.881220
C5    C     C_R   0.189591 0.309972 0.880921 0.896449
C6    C     C_R   0.808839 0.689912 0.119691 0.878827
C7    C     C_R   0.810948 0.309989 0.119141 0.876609
C8    C     C_R   0.189629 0.689868 0.880608 0.890957
O17   O     O_R   0.641350 0.724120 0.948260 -0.612448
O18   O     O_R   0.358650 0.275880 0.051740 -0.587948
O19   O     O_R   0.358650 0.724120 0.051740 -0.630230
O20   O     O_R   0.641350 0.275880 0.948260 -0.588363
O21   O     O_R   0.141350 0.224120 0.948260 -0.619698
O22   O     O_R   0.858650 0.775880 0.051740 -0.602505
O23   O     O_R   0.858650 0.224120 0.051740 -0.622784
O24   O     O_R   0.141350 0.775880 0.948260 -0.623791
O25   O     O_R   0.693050 0.775840 0.051700 -0.602896
O26   O     O_R   0.306950 0.224160 0.948300 -0.610624
O27   O     O_R   0.306950 0.775840 0.948300 -0.585444
O28   O     O_R   0.693050 0.224160 0.051700 -0.629994
O29   O     O_R   0.193050 0.275840 0.051700 -0.610591
O30   O     O_R   0.806950 0.724160 0.948300 -0.606704
O31   O     O_R   0.806950 0.275840 0.948300 -0.596664
O32   O     O_R   0.193050 0.724160 0.051700 -0.586889
C9    C     C_R   0.640818 0.750344 0.000267 0.885481
C10   C     C_R   0.359176 0.249648 0.999724 0.909444
C11   C     C_R   0.359056 0.750403 0.999457 0.887831
C12   C     C_R   0.640817 0.249482 0.000272 0.905767
C13   C     C_R   0.140743 0.250561 0.000133 0.913390
C14   C     C_R   0.859085 0.749764 0.999534 0.906335
C15   C     C_R   0.859431 0.250907 0.000234 0.881528
C16   C     C_R   0.141137 0.749845 0.000941 0.898410
Zn1   Zn    Zn3+2 0.715450 0.715450 0.930910 1.017912
Zn2   Zn    Zn3+2 0.284550 0.284550 0.069090 1.045818
Zn3   Zn    Zn3+2 0.284550 0.715450 0.069090 1.022223
Zn4   Zn    Zn3+2 0.715450 0.284550 0.930910 1.058404
Zn5   Zn    Zn3+2 0.215450 0.215450 0.930910 1.012212
Zn6   Zn    Zn3+2 0.784550 0.784550 0.069090 1.044157
Zn7   Zn    Zn3+2 0.784550 0.215450 0.069090 0.984338
Zn8   Zn    Zn3+2 0.215450 0.784550 0.930910 1.038921
C17   C     C_1   0.580519 0.751535 0.000068 -0.174974
C18   C     C_1   0.419420 0.248466 0.999802 -0.151859
C19   C     C_1   0.418909 0.751614 0.998707 -0.172618
C20   C     C_1   0.580822 0.248243 0.000736 -0.177873
C21   C     C_1   0.080240 0.252955 0.999464 -0.147445
C22   C     C_1   0.919260 0.748810 0.999466 -0.158895
C23   C     C_1   0.919856 0.253423 0.000724 -0.190536
C24   C     C_1   0.081352 0.748966 0.001856 -0.179011
C25   C     C_1   0.529385 0.752208 0.999440 0.034573
C26   C     C_1   0.470461 0.247766 0.000242 0.006183
C27   C     C_1   0.469767 0.752250 0.998741 0.040435
C28   C     C_1   0.529995 0.247649 0.000767 0.005206
C29   C     C_1   0.029525 0.254709 0.999683 0.019700
C30   C     C_1   0.970469 0.748381 0.000251 0.026647
C31   C     C_1   0.970586 0.254939 0.000471 0.011977
C32   C     C_1   0.030324 0.748463 0.001465 0.027290
C33   C     C_R   0.754117 0.837668 0.800768 -0.377562
C34   C     C_R   0.236090 0.146599 0.184626 -0.377632
C35   C     C_R   0.245089 0.837372 0.198304 -0.377345
C36   C     C_R   0.764459 0.146857 0.816306 -0.376669
C37   C     C_R   0.246810 0.330239 0.789121 -0.363464
C38   C     C_R   0.732469 0.645623 0.172505 -0.373303
C39   C     C_R   0.759045 0.323447 0.218306 -0.363312
C40   C     C_R   0.259949 0.655081 0.811975 -0.369299
H1    H     H_    0.787961 0.821672 0.863037 0.152905
H2    H     H_    0.218598 0.179740 0.161844 0.148360
H3    H     H_    0.211348 0.821388 0.136009 0.154045
H4    H     H_    0.782207 0.179993 0.839200 0.151203
H5    H     H_    0.280663 0.312882 0.849825 0.154791
H6    H     H_    0.712777 0.677150 0.141361 0.148296
H7    H     H_    0.724800 0.306795 0.156896 0.156181
H8    H     H_    0.292329 0.671002 0.874443 0.150770
C41   C     C_R   0.780361 0.844797 0.752380 0.411510
C42   C     C_R   0.196949 0.119713 0.202164 0.434222
C43   C     C_R   0.218473 0.844388 0.246202 0.412127
C44   C     C_R   0.803465 0.120144 0.798801 0.432853
C45   C     C_R   0.269281 0.334184 0.736209 0.413916
C46   C     C_R   0.688474 0.618940 0.181608 0.412322
C47   C     C_R   0.739793 0.322667 0.274657 0.434268
C48   C     C_R   0.290125 0.645563 0.768605 0.439930
C49   C     C_R   0.734059 0.859108 0.666837 0.383116
C50   C     C_R   0.216401 0.075839 0.224872 0.393701
C51   C     C_R   0.264494 0.858741 0.331740 0.382706
C52   C     C_R   0.783732 0.076266 0.775974 0.393321
C53   C     C_R   0.222800 0.351031 0.652885 0.370839
C54   C     C_R   0.708600 0.575601 0.209244 0.396065
C55   C     C_R   0.781641 0.344493 0.353520 0.383165
C56   C     C_R   0.246538 0.630436 0.683050 0.373001
C57   C     C_R   0.665748 0.873894 0.635516 -0.193344
C58   C     C_R   0.281191 0.061014 0.244475 -0.186076
C59   C     C_R   0.332951 0.873762 0.363497 -0.196011
C60   C     C_R   0.718747 0.061302 0.756063 -0.186892
C61   C     C_R   0.158705 0.370551 0.627865 -0.183618
C62   C     C_R   0.777247 0.561269 0.241227 -0.186414
C63   C     C_R   0.842054 0.368234 0.375373 -0.206227
C64   C     C_R   0.174210 0.622141 0.643614 -0.221414
C65   C     C_R   0.645342 0.876105 0.693153 -0.040768
C66   C     C_R   0.328578 0.092012 0.248119 -0.010556
C67   C     C_R   0.353852 0.876065 0.306320 -0.040058
C68   C     C_R   0.671486 0.092193 0.752147 -0.010380
C69   C     C_R   0.142571 0.374608 0.689600 -0.010160
C70   C     C_R   0.826409 0.591577 0.246486 -0.006477
C71   C     C_R   0.858976 0.372457 0.313992 -0.023365
C72   C     C_R   0.148451 0.622600 0.695108 -0.017516
C73   C     C_R   0.686117 0.852228 0.770543 0.032063
C74   C     C_R   0.301207 0.131964 0.204605 0.021596
C75   C     C_R   0.313282 0.852095 0.228992 0.032760
C76   C     C_R   0.699080 0.132103 0.795893 0.022992
C77   C     C_R   0.182760 0.349232 0.765225 0.024602
C78   C     C_R   0.800430 0.631543 0.201754 0.029970
C79   C     C_R   0.819659 0.346333 0.238741 0.035243
C80   C     C_R   0.188874 0.644348 0.775088 0.031432
C81   C     C_R   0.658203 0.843343 0.816750 -0.096157
C82   C     C_R   0.341021 0.156744 0.185148 -0.106628
C83   C     C_R   0.341576 0.843329 0.183280 -0.097254
C84   C     C_R   0.659107 0.156813 0.814777 -0.108660
C85   C     C_R   0.158492 0.343310 0.816365 -0.111730
C86   C     C_R   0.841869 0.655947 0.184315 -0.105584
C87   C     C_R   0.841088 0.343250 0.183956 -0.100474
C88   C     C_R   0.156535 0.656600 0.814874 -0.102071
C89   C     C_R   0.598076 0.864249 0.798777 -0.117440
C90   C     C_R   0.410824 0.145630 0.218645 -0.098603
C91   C     C_R   0.401900 0.864444 0.201600 -0.116366
C92   C     C_R   0.588929 0.145801 0.780273 -0.107388
C93   C     C_R   0.104524 0.368700 0.806063 -0.118462
C94   C     C_R   0.909304 0.641940 0.212664 -0.116307
C95   C     C_R   0.893906 0.369815 0.193724 -0.111172
C96   C     C_R   0.086601 0.644822 0.780096 -0.120003
C97   C     C_R   0.567678 0.897202 0.736362 -0.095671
C98   C     C_R   0.443346 0.111536 0.278703 -0.100011
C99   C     C_R   0.431941 0.897565 0.263584 -0.098860
C100  C     C_R   0.556507 0.111624 0.720399 -0.101816
C101  C     C_R   0.074426 0.401439 0.743256 -0.123433
C102  C     C_R   0.939104 0.605290 0.267172 -0.155114
C103  C     C_R   0.923533 0.402125 0.256741 -0.113569
C104  C     C_R   0.049208 0.618136 0.706360 -0.100651
C105  C     C_R   0.589085 0.902234 0.680615 -0.094364
C106  C     C_R   0.402666 0.085776 0.296832 -0.119322
C107  C     C_R   0.410332 0.902391 0.319106 -0.094472
C108  C     C_R   0.597343 0.085906 0.702905 -0.119011
C109  C     C_R   0.090614 0.403286 0.682158 -0.111110
C110  C     C_R   0.899914 0.583160 0.292067 -0.117963
C111  C     C_R   0.909585 0.402474 0.319898 -0.106561
C112  C     C_R   0.083139 0.603377 0.668966 -0.125356
O33   O     O_R   0.999060 0.545790 0.591600 -0.591628
O34   O     O_R   0.000940 0.454210 0.408400 -0.593494
O35   O     O_R   0.000940 0.545790 0.408400 -0.597012
O36   O     O_R   0.999060 0.454210 0.591600 -0.615811
O37   O     O_R   0.499060 0.045790 0.591600 -0.597411
O38   O     O_R   0.500940 0.954210 0.408400 -0.614631
O39   O     O_R   0.500940 0.045790 0.408400 -0.596383
O40   O     O_R   0.499060 0.954210 0.591600 -0.615042
O41   O     O_R   0.092510 0.545780 0.591590 -0.642942
O42   O     O_R   0.907490 0.454220 0.408410 -0.622744
O43   O     O_R   0.907490 0.545780 0.408410 -0.605521
O44   O     O_R   0.092510 0.454220 0.591590 -0.631797
O45   O     O_R   0.592510 0.045780 0.591590 -0.616596
O46   O     O_R   0.407490 0.954220 0.408410 -0.621024
O47   O     O_R   0.407490 0.045780 0.408410 -0.616437
O48   O     O_R   0.592510 0.954220 0.591590 -0.620869
C113  C     C_R   0.056135 0.564095 0.613027 0.919950
C114  C     C_R   0.941728 0.437559 0.383506 0.916398
C115  C     C_R   0.936979 0.556275 0.371767 0.907061
C116  C     C_R   0.058632 0.438084 0.617772 0.937256
C117  C     C_R   0.561963 0.057595 0.626070 0.913621
C118  C     C_R   0.441504 0.937845 0.382526 0.946256
C119  C     C_R   0.438090 0.057555 0.373851 0.914492
C120  C     C_R   0.558270 0.937795 0.617375 0.946836
Zn9   Zn    Zn3+2 0.937580 0.500000 0.499990 1.108315
Zn10  Zn    Zn3+2 0.062420 0.500000 0.500010 1.085606
Zn11  Zn    Zn3+2 0.437580 0.000000 0.499990 1.114029
Zn12  Zn    Zn3+2 0.562420 0.000000 0.500010 1.114025
C121  C     C_2   0.570694 0.853850 0.850140 0.919534
O49   O     O_2   0.512630 0.836734 0.814760 -0.569758
O50   O     O_R   0.611526 0.863492 0.938610 -0.767030
H9    H     H_    0.587328 0.854738 0.966408 0.350723
C122  C     C_2   0.450302 0.169525 0.191296 0.906140
O51   O     O_2   0.457894 0.209257 0.199978 -0.605369
O52   O     O_R   0.479724 0.146088 0.157061 -0.774442
H10   H     H_    0.504433 0.165774 0.139753 0.338129
C123  C     C_2   0.429876 0.854089 0.151013 0.916984
O53   O     O_2   0.488145 0.837414 0.187219 -0.586323
O54   O     O_R   0.389384 0.863267 0.062348 -0.765439
H11   H     H_    0.413987 0.854585 0.035156 0.351080
C124  C     C_2   0.548727 0.170105 0.805798 0.914257
O55   O     O_2   0.542154 0.209861 0.796949 -0.597924
O56   O     O_R   0.517069 0.147038 0.837970 -0.769718
H12   H     H_    0.491008 0.166961 0.852658 0.350186
C125  C     C_2   0.082475 0.362336 0.864264 0.955225
O57   O     O_2   0.057131 0.327296 0.864467 -0.633445
O58   O     O_R   0.090797 0.396363 0.918446 -0.760812
H13   H     H_    0.073891 0.387984 0.954828 0.359287
C126  C     C_2   0.947466 0.664909 0.182494 0.937470
O59   O     O_2   0.960211 0.704103 0.196120 -0.599490
O60   O     O_R   0.968873 0.641465 0.138940 -0.771545
H14   H     H_    0.994209 0.660599 0.121719 0.352183
C127  C     C_2   0.918582 0.364304 0.137925 0.893568
O61   O     O_2   0.981022 0.357307 0.171566 -0.601453
O62   O     O_R   0.871216 0.368390 0.047969 -0.750673
H15   H     H_    0.894660 0.364034 0.017747 0.351955
C128  C     C_2   0.053185 0.660312 0.821885 0.939465
O63   O     O_2   0.997462 0.680395 0.779629 -0.600532
O64   O     O_R   0.085601 0.651446 0.909522 -0.769159
H16   H     H_    0.056787 0.662114 0.929914 0.347138
O65   O     O_3   0.848459 0.833001 0.783251 -0.585254
C129  C     C_3   0.897917 0.855957 0.860650 0.113716
H17   H     H_    0.905164 0.838809 0.916781 0.137533
H18   H     H_    0.881680 0.890536 0.858753 0.131107
C130  C     C_3   0.968553 0.857218 0.873958 -0.773396
H19   H     H_    0.962812 0.874352 0.818747 0.268814
H20   H     H_    0.007954 0.875104 0.934637 0.183132
H21   H     H_    0.987678 0.823399 0.878444 0.268281
O66   O     O_3   0.144183 0.136032 0.206619 -0.559798
C131  C     C_3   0.089024 0.154056 0.126755 0.069740
H22   H     H_    0.076767 0.133919 0.070856 0.102439
H23   H     H_    0.103042 0.187912 0.120782 0.153583
C132  C     C_3   0.023279 0.155706 0.124819 -0.749403
H24   H     H_    0.033161 0.176466 0.178636 0.273015
H25   H     H_    0.978656 0.169697 0.062721 0.189069
H26   H     H_    0.008633 0.122126 0.131628 0.247225
O67   O     O_3   0.150122 0.832576 0.214719 -0.584538
C133  C     C_3   0.101284 0.855967 0.137735 0.112118
H27   H     H_    0.093734 0.839056 0.081369 0.139087
H28   H     H_    0.118339 0.890505 0.140224 0.130860
C134  C     C_3   0.030641 0.857464 0.124348 -0.769736
H29   H     H_    0.036683 0.874583 0.179611 0.269149
H30   H     H_    0.991612 0.875475 0.063727 0.181692
H31   H     H_    0.010850 0.823717 0.119724 0.270551
O68   O     O_3   0.856212 0.136701 0.794195 -0.561318
C135  C     C_3   0.911824 0.154358 0.874259 0.070037
H32   H     H_    0.923786 0.134049 0.929977 0.102777
H33   H     H_    0.898495 0.188197 0.880714 0.158500
C136  C     C_3   0.977483 0.155890 0.875961 -0.746687
H34   H     H_    0.968027 0.176990 0.822600 0.274563
H35   H     H_    0.022563 0.169410 0.938337 0.185350
H36   H     H_    0.991189 0.122330 0.868236 0.247120
O69   O     O_3   0.332606 0.316399 0.760092 -0.592451
C137  C     C_3   0.389357 0.339500 0.831910 0.100835
H37   H     H_    0.397781 0.327963 0.892624 0.140371
H38   H     H_    0.380474 0.375663 0.825697 0.135969
C138  C     C_3   0.456043 0.330791 0.838107 -0.714075
H39   H     H_    0.450841 0.345061 0.781018 0.258046
H40   H     H_    0.502261 0.345917 0.897996 0.198918
H41   H     H_    0.464807 0.294969 0.839679 0.276209
O70   O     O_3   0.620984 0.631913 0.151414 -0.615861
C139  C     C_3   0.623332 0.671084 0.192249 0.112462
H42   H     H_    0.630098 0.699736 0.161738 0.141698
H43   H     H_    0.666678 0.670799 0.263162 0.156034
C140  C     C_3   0.553756 0.676270 0.180713 -0.754758
H44   H     H_    0.547277 0.649371 0.214812 0.260742
H45   H     H_    0.552930 0.708163 0.207943 0.222547
H46   H     H_    0.509070 0.675100 0.110828 0.247463
O71   O     O_3   0.678548 0.301953 0.252631 -0.571851
C141  C     C_3   0.683555 0.256356 0.244356 0.048851
H47   H     H_    0.735997 0.243083 0.298127 0.121727
H48   H     H_    0.674558 0.248880 0.181767 0.161093
C142  C     C_3   0.627151 0.232850 0.246263 -0.693183
H49   H     H_    0.574003 0.244809 0.192711 0.269732
H50   H     H_    0.629949 0.197046 0.238599 0.208538
H51   H     H_    0.635459 0.238969 0.308967 0.267005
O72   O     O_3   0.359484 0.656636 0.803116 -0.568065
C143  C     C_3   0.406371 0.637631 0.885992 0.075362
H52   H     H_    0.390474 0.603557 0.889095 0.122275
H53   H     H_    0.409384 0.658110 0.936086 0.151477
C144  C     C_3   0.479753 0.635612 0.906958 -0.765580
H54   H     H_    0.497352 0.668898 0.903742 0.274492
H55   H     H_    0.517681 0.622263 0.973190 0.229067
H56   H     H_    0.479138 0.614054 0.859771 0.241278
O73   O     O_3   0.756673 0.860126 0.614284 -0.546007
C145  C     C_3   0.748858 0.817839 0.579669 0.137062
H57   H     H_    0.693634 0.805581 0.545350 0.125605
H58   H     H_    0.785517 0.794226 0.631621 0.182377
C146  C     C_3   0.766283 0.819789 0.514612 -0.702651
H59   H     H_    0.821464 0.831271 0.546980 0.261199
H60   H     H_    0.760490 0.786702 0.487032 0.202162
H61   H     H_    0.729809 0.842681 0.461164 0.275669
O74   O     O_3   0.173447 0.048009 0.232327 -0.525957
C147  C     C_3   0.118952 0.032131 0.149117 0.131033
H62   H     H_    0.140359 0.017993 0.115210 0.113262
H63   H     H_    0.081240 0.058703 0.108649 0.127080
C148  C     C_3   0.078552 0.996146 0.158117 -0.752937
H64   H     H_    0.054849 0.009350 0.189694 0.262754
H65   H     H_    0.035739 0.983332 0.093073 0.176337
H66   H     H_    0.114674 0.968833 0.197894 0.276974
O75   O     O_3   0.241427 0.859624 0.383812 -0.547516
C149  C     C_3   0.248841 0.817314 0.418444 0.132525
H67   H     H_    0.304137 0.805311 0.453572 0.130384
H68   H     H_    0.212517 0.793587 0.366392 0.183348
C150  C     C_3   0.230400 0.819039 0.482526 -0.679894
H69   H     H_    0.175126 0.830277 0.449323 0.258798
H70   H     H_    0.235875 0.785929 0.510104 0.214282
H71   H     H_    0.266519 0.842030 0.536076 0.274668
O76   O     O_3   0.826518 0.048616 0.768483 -0.526552
C151  C     C_3   0.880769 0.032599 0.851626 0.131621
H72   H     H_    0.859121 0.018226 0.885286 0.113869
H73   H     H_    0.918675 0.059142 0.892366 0.126421
C152  C     C_3   0.920965 0.996824 0.842520 -0.753943
H74   H     H_    0.944909 0.010270 0.811204 0.262435
H75   H     H_    0.963580 0.983898 0.907508 0.176429
H76   H     H_    0.884647 0.969540 0.802457 0.276813
O77   O     O_3   0.241092 0.349459 0.595952 -0.557390
C153  C     C_3   0.223870 0.307598 0.556898 0.133021
H77   H     H_    0.167481 0.299107 0.526181 0.127596
H78   H     H_    0.258101 0.281960 0.605324 0.185970
C154  C     C_3   0.235569 0.307514 0.486597 -0.704654
H79   H     H_    0.291645 0.315190 0.515185 0.262628
H80   H     H_    0.222427 0.274730 0.455536 0.209880
H81   H     H_    0.201242 0.332399 0.436487 0.271701
O78   O     O_3   0.660970 0.547288 0.206358 -0.541020
C155  C     C_3   0.616033 0.529694 0.121901 0.138595
H82   H     H_    0.646820 0.513569 0.101758 0.122792
H83   H     H_    0.582230 0.555652 0.074085 0.155550
C156  C     C_3   0.568136 0.495378 0.120454 -0.738595
H84   H     H_    0.535772 0.510518 0.138935 0.260236
H85   H     H_    0.532415 0.481373 0.054313 0.187976
H86   H     H_    0.600350 0.468586 0.166667 0.277607
O79   O     O_3   0.762174 0.343765 0.409419 -0.544001
C157  C     C_3   0.789339 0.305599 0.461263 0.094534
H87   H     H_    0.844552 0.298344 0.484629 0.129371
H88   H     H_    0.755289 0.276994 0.424305 0.164016
C158  C     C_3   0.789440 0.311823 0.540303 -0.689111
H89   H     H_    0.734972 0.318204 0.519718 0.263919
H90   H     H_    0.809706 0.281805 0.580978 0.207198
H91   H     H_    0.823903 0.339945 0.579411 0.270867
O80   O     O_3   0.273487 0.628035 0.635410 -0.545774
C159  C     C_3   0.304115 0.586296 0.648750 0.144579
H92   H     H_    0.264617 0.559730 0.629452 0.138593
H93   H     H_    0.349593 0.581730 0.717876 0.136033
C160  C     C_3   0.331030 0.582213 0.593538 -0.717561
H94   H     H_    0.371372 0.607877 0.612101 0.257582
H95   H     H_    0.355259 0.549488 0.603481 0.195958
H96   H     H_    0.286633 0.586054 0.523944 0.277846
C161  C     C_2   0.615038 0.879212 0.540530 0.979530
O81   O     O_2   0.556342 0.862872 0.502147 -0.614643
O82   O     O_R   0.635818 0.900948 0.494412 -0.723048
H97   H     H_    0.598630 0.899401 0.429654 0.360359
C162  C     C_2   0.293723 0.013018 0.248068 0.955173
O83   O     O_2   0.328653 0.998660 0.224779 -0.616277
O84   O     O_R   0.263259 0.984059 0.274276 -0.736868
H98   H     H_    0.270355 0.952281 0.266245 0.328323
C163  C     C_2   0.383107 0.879416 0.458455 0.982944
O85   O     O_2   0.441702 0.863113 0.497746 -0.613015
O86   O     O_R   0.361896 0.901519 0.503487 -0.722526
H99   H     H_    0.398811 0.900444 0.568348 0.361279
C164  C     C_2   0.705825 0.013277 0.752388 0.955031
O87   O     O_2   0.670531 0.998796 0.775313 -0.616331
O88   O     O_R   0.736333 0.984433 0.726538 -0.737892
H100  H     H_    0.728934 0.952620 0.734481 0.328258
C165  C     C_2   0.106486 0.377832 0.533809 0.973684
O89   O     O_2   0.047438 0.362164 0.496126 -0.626615
O90   O     O_R   0.127079 0.398981 0.486970 -0.726436
H101  H     H_    0.090265 0.396303 0.422241 0.369482
C166  C     C_2   0.790975 0.513313 0.252242 0.963476
O91   O     O_2   0.825280 0.496618 0.230029 -0.631810
O92   O     O_R   0.762130 0.486962 0.284253 -0.724004
H102  H     H_    0.770921 0.454612 0.282764 0.343018
C167  C     C_2   0.888234 0.382119 0.466839 1.002877
O93   O     O_2   0.946852 0.366278 0.515532 -0.625940
O94   O     O_R   0.861101 0.409512 0.499210 -0.725525
H103  H     H_    0.893851 0.412532 0.564476 0.355491
C168  C     C_2   0.124348 0.621760 0.547457 1.031585
O95   O     O_2   0.141786 0.605928 0.504011 -0.562539
O96   O     O_R   0.057385 0.640297 0.506750 -0.804121
H104  H     H_    0.028730 0.639534 0.441317 0.340387
C169  C     C_2   0.521778 0.929526 0.739494 0.944918
O97   O     O_2   0.467071 0.917694 0.728301 -0.592194
O98   O     O_R   0.542909 0.973364 0.758343 -0.722802
H105  H     H_    0.508992 0.991822 0.762068 0.384019
C170  C     C_2   0.520353 0.105164 0.324086 0.999871
O99   O     O_2   0.561866 0.133403 0.373475 -0.617986
O100  O     O_R   0.544892 0.067569 0.308302 -0.759875
H106  H     H_    0.598217 0.067128 0.342562 0.348221
C171  C     C_2   0.477357 0.930380 0.259863 0.947309
O101  O     O_2   0.532098 0.919118 0.270902 -0.593982
O102  O     O_R   0.455673 0.974032 0.240577 -0.722787
H107  H     H_    0.489040 0.992802 0.235933 0.384572
C172  C     C_2   0.479415 0.105059 0.674536 1.006285
O103  O     O_2   0.438078 0.132882 0.623793 -0.609242
O104  O     O_R   0.454599 0.067697 0.691249 -0.757826
H108  H     H_    0.401236 0.067043 0.656461 0.350667
C173  C     C_2   0.029095 0.434679 0.745324 0.982976
O105  O     O_2   0.975316 0.423334 0.737025 -0.611606
O106  O     O_R   0.048855 0.478862 0.757865 -0.775889
H109  H     H_    0.013987 0.498352 0.757914 0.372985
C174  C     C_2   0.010309 0.590349 0.295716 1.019686
O107  O     O_2   0.058702 0.616707 0.324596 -0.576898
O108  O     O_R   0.021269 0.546371 0.286934 -0.757831
H110  H     H_    0.071571 0.540305 0.308155 0.361768
C175  C     C_2   0.958321 0.439125 0.244403 1.007176
O109  O     O_2   0.022595 0.441108 0.286494 -0.586170
O110  O     O_R   0.916225 0.469282 0.178132 -0.729034
H111  H     H_    0.944762 0.490420 0.169087 0.379861
C176  C     C_2   0.974429 0.607001 0.668173 1.000571
O111  O     O_2   0.928198 0.615929 0.592374 -0.586638
O112  O     O_R   0.957074 0.586794 0.719151 -0.785041
H112  H     H_    0.904575 0.580959 0.685858 0.353963

loop_
_geom_bond_atom_site_label_1
_geom_bond_atom_site_label_2
_geom_bond_distance
_ccdc_geom_bond_type
O45   Zn12  2.015194 S    
C163  O85   1.219555 D    
C168  O96   1.398809 S    
C148  H65   1.110782 S    
O26   C10   1.283767 A    
O7    Zn7   2.020066 S    
C10   C18   1.412260 S    
C39   H7    1.081127 S    
C158  H89   1.110687 S    
C107  C118  1.459389 S    
O79   C157  1.414028 S    
C144  H56   1.110623 S    
C97   C169  1.490242 S    
O37   Zn11  2.029018 S    
C14   C22   1.412103 S    
O38   Zn12  2.029019 S    
O31   C15   1.281699 A    
O18   Zn2   1.970137 S    
C142  H51   1.110484 S    
C22   C30   1.192059 T    
O32   C16   1.284325 A    
C123  O54   1.397359 S    
C137  H38   1.117002 S    
C138  H41   1.110381 S    
C151  H72   1.115388 S    
C47   C55   1.390635 A    
C42   O66   1.384144 S    
O3    C3    1.278112 A    
C155  H82   1.114831 S    
C99   C107  1.427437 A    
C153  C154  1.520529 S    
C49   C57   1.415194 A    
C95   C103  1.385383 A    
C64   C168  1.486530 S    
O40   Zn11  2.030705 S    
O68   C135  1.406440 S    
C58   C66   1.426219 A    
O8    Zn8   2.020065 S    
O6    Zn6   2.019477 S    
C5    C85   1.423677 S    
C162  O84   1.398114 S    
O48   Zn12  2.012275 S    
C127  O62   1.397280 S    
C151  H73   1.110861 S    
C67   C75   1.402169 A    
O43   Zn9   2.012273 S    
O50   H9    1.013830 S    
C104  C176  1.486909 S    
C45   C53   1.393254 A    
C64   C72   1.425574 A    
C159  H92   1.115202 S    
O75   C149  1.412994 S    
C69   C109  1.440552 A    
O20   C12   1.282860 A    
O21   C13   1.286281 A    
O62   H15   1.013879 S    
O66   C131  1.406671 S    
C99   C171  1.490310 S    
O84   H98   1.012056 S    
C98   C106  1.424222 A    
C44   O68   1.383785 S    
O12   C4    1.283252 A    
C155  C156  1.520468 S    
O13   C5    1.273834 A    
O98   H105  1.012781 S    
C160  H96   1.110798 S    
C131  H23   1.108623 S    
C68   C76   1.400832 A    
C23   C31   1.192977 T    
C33   C73   1.411764 A    
C48   C56   1.400076 A    
C169  O97   1.222544 D    
C141  H48   1.108851 S    
O28   C12   1.283906 A    
O29   C13   1.281432 A    
C130  H21   1.110020 S    
C82   C90   1.404604 A    
C158  H91   1.110799 S    
C37   C77   1.413616 A    
O47   C119  1.278196 A    
C90   C122  1.490880 S    
O48   C120  1.264543 A    
C39   C79   1.413886 A    
C98   C170  1.485684 S    
C145  C146  1.520469 S    
C157  H87   1.115954 S    
C159  C160  1.520318 S    
C50   C58   1.409805 A    
O94   H103  1.011995 S    
C172  O103  1.222829 D    
C129  C130  1.520695 S    
C21   C29   1.193015 T    
C34   C42   1.407609 A    
C173  O106  1.398528 S    
C58   C162  1.488716 S    
C40   H8    1.081095 S    
O28   Zn7   1.987115 S    
C175  O109  1.221864 D    
C145  H58   1.113105 S    
O29   Zn2   1.984785 S    
C157  C158  1.520667 S    
C60   C68   1.426093 A    
C38   C46   1.400120 A    
O42   Zn9   2.015196 S    
C159  H93   1.113955 S    
C68   C108  1.419506 A    
C33   C41   1.395603 A    
O52   H10   1.013517 S    
O4    C4    1.276700 A    
O5    C5    1.278447 A    
C46   C54   1.399525 A    
C71   C111  1.446761 A    
C154  H79   1.110768 S    
O78   C155  1.413456 S    
C72   C112  1.425223 A    
O9    Zn6   2.028028 S    
C134  H30   1.110098 S    
C176  O111  1.223217 D    
C165  O89   1.218785 D    
C66   C106  1.420203 A    
O11   Zn8   2.028610 S    
C170  O100  1.396733 S    
C161  O81   1.219566 D    
O82   H97   1.010677 S    
O38   C118  1.272573 A    
O16   Zn3   2.028610 S    
O46   C118  1.264843 A    
C174  O107  1.223008 D    
O22   Zn6   1.970137 S    
C62   C166  1.487487 S    
C136  H34   1.110671 S    
O65   C129  1.414152 S    
C57   C161  1.479673 S    
C57   C65   1.437568 A    
O10   C2    1.283203 A    
C41   O65   1.386090 S    
O69   C137  1.412741 S    
C152  H75   1.110782 S    
O106  H109  1.013665 S    
C76   C84   1.408390 A    
C63   C71   1.447422 A    
C138  H39   1.110988 S    
C13   C21   1.413311 S    
C121  O50   1.397351 S    
C153  H78   1.112853 S    
O2    Zn2   2.019477 S    
C19   C27   1.192144 T    
C150  H70   1.110548 S    
C100  C172  1.485535 S    
O27   C11   1.283494 A    
C132  H24   1.110657 S    
C11   C19   1.412157 S    
C95   C127  1.492391 S    
C8    C88   1.435900 S    
C87   C95   1.394771 A    
C37   H5    1.081912 S    
O72   C143  1.414283 S    
C124  O56   1.397934 S    
O43   C115  1.279533 A    
C131  H22   1.113990 S    
O41   C113  1.274592 A    
O19   Zn3   1.967755 S    
C56   O80   1.382278 S    
C146  H59   1.110706 S    
C125  O58   1.397908 S    
C130  H20   1.110055 S    
C149  H68   1.113168 S    
C52   C60   1.409530 A    
C36   C76   1.412503 A    
C56   C64   1.414051 A    
C60   C164  1.488793 S    
C40   C80   1.412048 A    
C137  C138  1.521495 S    
C128  O63   1.223011 D    
C103  C111  1.423730 A    
C4    C84   1.433288 S    
O74   C147  1.414009 S    
O46   Zn11  2.015196 S    
C105  C120  1.459315 S    
C154  H81   1.110875 S    
C17   C25   1.192168 T    
C106  C119  1.467866 S    
C126  O59   1.222664 D    
C81   C89   1.396050 A    
C129  H18   1.116754 S    
C140  H45   1.110564 S    
C78   C86   1.408173 A    
C122  O51   1.222319 D    
O35   C115  1.267908 A    
C50   O74   1.384379 S    
C111  C114  1.453325 S    
O86   H99   1.010645 S    
O18   C10   1.283511 A    
C169  O98   1.397094 S    
O25   Zn6   1.984785 S    
C135  H32   1.114072 S    
C126  O60   1.398079 S    
C136  H36   1.110776 S    
O27   Zn8   1.987115 S    
O22   C14   1.283126 A    
C51   O75   1.384322 S    
C139  H42   1.110855 S    
C144  H55   1.109765 S    
O32   Zn3   1.987115 S    
O1    C1    1.278488 A    
C124  O55   1.222407 D    
C134  H31   1.109882 S    
O14   C6    1.280753 A    
C96   C104  1.400323 A    
C173  O105  1.223061 D    
C90   C98   1.396145 A    
O7    C7    1.278369 A    
O39   Zn12  2.030702 S    
C142  H50   1.110277 S    
C123  O53   1.222579 D    
C132  H26   1.110777 S    
C93   C125  1.488447 S    
O30   C14   1.284104 A    
O12   Zn7   2.028610 S    
C83   C91   1.395782 A    
O47   Zn11  2.012273 S    
O13   Zn2   2.028028 S    
O54   H11   1.013833 S    
C65   C73   1.401582 A    
C143  H52   1.116245 S    
C155  H83   1.112743 S    
C94   C126  1.491124 S    
C43   C51   1.395726 A    
C69   C77   1.403568 A    
C166  O92   1.399021 S    
C135  C136  1.521068 S    
C71   C79   1.410737 A    
C61   C165  1.477789 S    
C36   H4    1.082385 S    
C139  C140  1.521018 S    
C162  O83   1.222396 D    
C61   C69   1.440660 A    
O96   H104  1.012121 S    
O30   Zn1   1.984785 S    
C127  O61   1.222858 D    
C164  O88   1.398154 S    
C133  C134  1.520714 S    
O11   C3    1.272722 A    
O35   Zn10  2.030702 S    
C48   O72   1.388044 S    
C89   C97   1.392312 A    
C79   C87   1.405930 A    
O41   Zn10  2.015194 S    
C80   C88   1.405454 A    
C15   C23   1.413032 S    
C147  H62   1.115408 S    
C45   O69   1.383834 S    
C16   C24   1.412253 S    
C53   C61   1.414892 A    
O92   H102  1.013401 S    
O6    C6    1.279344 A    
C146  H61   1.110842 S    
C55   C63   1.414777 A    
C156  H84   1.110699 S    
C54   O78   1.384164 S    
C33   H1    1.081844 S    
O10   Zn5   2.028028 S    
O33   Zn9   2.029018 S    
O108  H110  1.013813 S    
C25   C27   1.390025 S    
C143  C144  1.521002 S    
O88   H100  1.012113 S    
C160  H95   1.110477 S    
O36   C116  1.274776 A    
C102  C174  1.491761 S    
O44   C116  1.259571 A    
O45   C117  1.279151 A    
C163  O86   1.397385 S    
O23   C15   1.285523 A    
O71   C141  1.414216 S    
O24   C16   1.282481 A    
C141  C142  1.520845 S    
C34   H2    1.082309 S    
C158  H90   1.110535 S    
C53   O77   1.385148 S    
C59   C163  1.479479 S    
O58   H13   1.013862 S    
C147  C148  1.521275 S    
O36   Zn9   2.030705 S    
O64   H16   1.013351 S    
O3    Zn3   2.020066 S    
O76   C151  1.413994 S    
C55   O79   1.386551 S    
C109  C116  1.454342 S    
C110  C115  1.478418 S    
C39   C47   1.390976 A    
O73   C145  1.412997 S    
C86   C94   1.404226 A    
O60   H14   1.013906 S    
C70   C110  1.424391 A    
O15   Zn4   2.028610 S    
C34   C74   1.412384 A    
C6    C86   1.439060 S    
C54   C62   1.414695 A    
O17   C9    1.283281 A    
C38   C78   1.411282 A    
C170  O99   1.222866 D    
C133  H27   1.111132 S    
C102  C110  1.426122 A    
C75   C83   1.399779 A    
C73   C81   1.399371 A    
C49   O73   1.384293 S    
O104  H108  1.013736 S    
C72   C80   1.402415 A    
C84   C92   1.404754 A    
C51   C59   1.415019 A    
C85   C93   1.398157 A    
C7    C87   1.425681 S    
O25   C9    1.284020 A    
C94   C102  1.402164 A    
C175  O110  1.397294 S    
C9    C17   1.412210 S    
C96   C128  1.488898 S    
C88   C96   1.404232 A    
C92   C124  1.492102 S    
C52   O76   1.384374 S    
C35   H3    1.081832 S    
C152  H74   1.110593 S    
O70   C139  1.412413 S    
C12   C20   1.412252 S    
C37   C45   1.392601 A    
C121  O49   1.222554 D    
O17   Zn1   1.970136 S    
C112  C113  1.477652 S    
O19   C11   1.283316 A    
C46   O70   1.386514 S    
C20   C28   1.192129 T    
O26   Zn5   1.984785 S    
C150  H69   1.110708 S    
O112  H112  1.013738 S    
C171  O102  1.396947 S    
C141  H47   1.115669 S    
C100  C108  1.424710 A    
O23   Zn7   1.967755 S    
C101  C109  1.424838 A    
O24   Zn8   1.967754 S    
O42   C114  1.258692 A    
C151  C152  1.521260 S    
C26   C28   1.390012 S    
O56   H12   1.013970 S    
C104  C112  1.421452 A    
O2    C2    1.277081 A    
C148  H64   1.110588 S    
O90   H101  1.011268 S    
C92   C100  1.396164 A    
C103  C175  1.487448 S    
C93   C101  1.391761 A    
O102  H107  1.012660 S    
C125  O57   1.222167 D    
C172  O104  1.396865 S    
C149  C150  1.520469 S    
C91   C99   1.392002 A    
C137  H37   1.111688 S    
O4    Zn4   2.020065 S    
C35   C75   1.411667 A    
O5    Zn5   2.019476 S    
C134  H29   1.110644 S    
C165  O90   1.397346 S    
C145  H57   1.114988 S    
C157  H88   1.109605 S    
O14   Zn1   2.028028 S    
C133  H28   1.116860 S    
C131  C132  1.521061 S    
C29   C31   1.390911 S    
O8    C8    1.281322 A    
C18   C26   1.192108 T    
O39   C119  1.262340 A    
O44   Zn10  2.012275 S    
C154  H80   1.110571 S    
O1    Zn1   2.019476 S    
O110  H111  1.012581 S    
C40   C48   1.401762 A    
C140  H44   1.110580 S    
C63   C167  1.474858 S    
C97   C105  1.427275 A    
C38   H6    1.081548 S    
O15   C7    1.275043 A    
O31   Zn4   1.987115 S    
O16   C8    1.276753 A    
C43   O67   1.385809 S    
O77   C153  1.413443 S    
C174  O108  1.396768 S    
C47   O71   1.385736 S    
C3    C83   1.421605 S    
C135  H33   1.108412 S    
C136  H35   1.105438 S    
O34   C114  1.276335 A    
C1    C81   1.421395 S    
O34   Zn10  2.029019 S    
C152  H76   1.110699 S    
C139  H43   1.115968 S    
C148  H66   1.110712 S    
O40   C120  1.272845 A    
C144  H54   1.109833 S    
C41   C49   1.395934 A    
C138  H40   1.110802 S    
C153  H77   1.114993 S    
C150  H71   1.110837 S    
C122  O52   1.397802 S    
C130  H19   1.110645 S    
C156  H85   1.110533 S    
C101  C173  1.489921 S    
C62   C70   1.431387 A    
C132  H25   1.105619 S    
C59   C67   1.437838 A    
C168  O95   1.221929 D    
C36   C44   1.407671 A    
C89   C121  1.487835 S    
O9    C1    1.272759 A    
C156  H86   1.110772 S    
C143  H53   1.111133 S    
C176  O112  1.398124 S    
C44   C52   1.399190 A    
C166  O91   1.222162 D    
C77   C85   1.401183 A    
C149  H67   1.114953 S    
C67   C107  1.438527 A    
C65   C105  1.438527 A    
C108  C117  1.467968 S    
C91   C123  1.487965 S    
C35   C43   1.395440 A    
C128  O64   1.397336 S    
C164  O87   1.222404 D    
O37   C117  1.261336 A    
C167  O93   1.218512 D    
C147  H63   1.110980 S    
O20   Zn4   1.967754 S    
C171  O101  1.222569 D    
O21   Zn5   1.970136 S    
C146  H60   1.110518 S    
C167  O94   1.399003 S    
C42   C50   1.399302 A    
C24   C32   1.192083 T    
C129  H17   1.111209 S    
C140  H46   1.110266 S    
C2    C82   1.433254 S    
C66   C74   1.400647 A    
C161  O82   1.397315 S    
O80   C159  1.412105 S    
C30   C32   1.389852 S    
C70   C78   1.405668 A    
C160  H94   1.110726 S    
O67   C133  1.414171 S    
O33   C113  1.272685 A    
C74   C82   1.407888 A    
O100  H106  1.013744 S    
C142  H49   1.110061 S    
