data_mof_unit_57603.cif
_audit_creation_date              2012-12-10T19:59:29-0500
_audit_creation_method            fapswitch 2.2
_symmetry_space_group_name_H-M    P1
_symmetry_Int_Tables_number       1
_space_group_crystal_system       triclinic
_cell_length_a                    15.044777
_cell_length_b                    14.105281
_cell_length_c                    10.910327
_cell_angle_alpha                 90.041089
_cell_angle_beta                  92.174225
_cell_angle_gamma                 89.467895
_cell_volume                      2313.52256

loop_
_atom_site_label
_atom_site_type_symbol
_atom_type_description
_atom_site_fract_x
_atom_site_fract_y
_atom_site_fract_z
_atom_type_partial_charge
C1    C     C_R   0.327497 0.500181 0.500795 0.961657
C2    C     C_R   0.547320 0.103983 0.589462 -0.282782
C3    C     C_R   0.454257 0.205674 0.409000 0.000445
C4    C     C_R   0.546099 0.203436 0.589414 -0.026346
C5    C     C_R   0.501381 0.053386 0.495733 0.140884
C6    C     C_R   0.575587 0.894208 0.541354 -0.265266
C7    C     C_R   0.429105 0.895628 0.444200 -0.268720
C8    C     C_R   0.573351 0.794844 0.542929 -0.022210
C9    C     C_R   0.429918 0.796239 0.447225 -0.029190
C10   C     C_R   0.502154 0.946714 0.493378 0.132989
C11   C     C_R   0.489640 0.500993 0.260812 0.865277
C12   C     C_R   0.672482 0.499507 0.500426 0.972621
C13   C     C_R   0.499405 0.499313 0.741082 0.890124
C14   C     C_R   0.497163 0.583880 0.063447 -0.087516
C15   C     C_R   0.511362 0.578925 0.942148 -0.105397
C16   C     C_R   0.472502 0.504721 0.129713 -0.178090
C17   C     C_R   0.492191 0.497050 0.873809 -0.179186
C18   C     C_R   0.437722 0.426073 0.064003 0.080816
C19   C     C_R   0.457725 0.416233 0.937690 0.081269
C20   C     C_3   0.545395 0.680416 0.936565 0.476690
C21   C     C_3   0.517012 0.689013 0.074011 0.486341
C22   C     C_R   0.094643 0.580056 0.433594 0.494880
C23   C     C_R   0.183759 0.423946 0.544727 0.366099
C24   C     C_R   0.904599 0.585884 0.538999 0.457406
C25   C     C_R   0.186339 0.579694 0.448232 -0.392534
C26   C     C_R   0.812986 0.581133 0.540758 -0.406493
C27   C     C_R   0.231313 0.500742 0.498264 -0.307877
C28   C     C_R   0.768529 0.499244 0.500559 -0.295363
C29   C     C_3   0.372019 0.360451 0.125954 -0.393921
C30   C     C_3   0.276912 0.369039 0.070084 -0.362954
C31   C     C_3   0.208023 0.335464 0.159481 -0.944375
C32   C     C_3   0.456789 0.316267 0.882979 -0.388419
C33   C     C_3   0.375744 0.295249 0.796537 -0.251789
C34   C     C_R   0.816277 0.420695 0.456282 0.369976
C35   C     C_3   0.340801 0.194884 0.814628 -0.927799
C36   C     C_3   0.682488 0.630989 0.846509 0.067747
C37   C     C_3   0.723504 0.542444 0.909772 -0.372594
C38   C     C_3   0.755989 0.469678 0.818103 -0.990434
C39   C     C_3   0.371523 0.719907 0.153331 0.071558
C40   C     C_3   0.297170 0.672077 0.076322 -0.396952
C41   C     C_3   0.226834 0.631392 0.156153 -0.988592
C42   C     C_3   0.497020 0.749690 0.843419 -0.315962
C43   C     C_3   0.394316 0.744376 0.832154 -0.347289
C44   C     C_3   0.355302 0.779332 0.710321 -0.896256
C45   C     C_R   0.092416 0.433125 0.554489 0.426574
C46   C     C_3   0.589968 0.723751 0.168563 -0.294880
C47   C     C_3   0.669831 0.657764 0.199523 -0.379505
C48   C     C_3   0.734853 0.705859 0.289892 -0.849981
C49   C     C_3   0.008620 0.630071 0.266085 0.105508
C50   C     C_3   0.988136 0.718598 0.188875 -0.307728
C51   C     C_3   0.927669 0.696151 0.077447 -1.020335
C52   C     C_3   0.988200 0.664929 0.686326 0.079686
C53   C     C_3   0.037581 0.757540 0.712169 -0.279789
C54   C     C_3   0.100321 0.749640 0.825155 -1.027083
C55   C     C_3   0.237065 0.273697 0.509151 0.120339
C56   C     C_R   0.906756 0.429873 0.439521 0.374649
C57   C     C_3   0.157997 0.205879 0.504520 -0.315503
C58   C     C_3   0.179764 0.115179 0.434922 -1.021381
C59   C     C_3   0.766884 0.275825 0.518760 0.138038
C60   C     C_3   0.848035 0.209958 0.535261 -0.345553
C61   C     C_3   0.833317 0.135487 0.633671 -1.001423
C62   C     C_3   0.014130 0.397602 0.727324 0.074445
C63   C     C_3   0.087085 0.410517 0.828221 -0.323640
C64   C     C_3   0.053048 0.472096 0.931853 -1.064105
C65   C     C_3   0.943123 0.362593 0.256159 0.092794
C66   C     C_3   0.939444 0.261833 0.204437 -0.292486
C67   C     C_R   0.047337 0.507687 0.490738 -0.147331
C68   C     C_3   0.933469 0.260996 0.064550 -1.001224
C69   C     C_R   0.951347 0.509259 0.487902 -0.152561
C70   C     C_R   0.454301 0.106368 0.404724 -0.275532
H1    H     H_    0.634878 0.929262 0.576677 0.135158
H2    H     H_    0.583086 0.241535 0.660188 0.111916
H3    H     H_    0.227082 0.264639 0.196756 0.263474
H4    H     H_    0.202195 0.387172 0.235658 0.257715
H5    H     H_    0.142147 0.329072 0.111551 0.264885
H6    H     H_    0.261699 0.443594 0.043618 0.237399
H7    H     H_    0.269622 0.324321 0.987849 0.245140
H8    H     H_    0.394848 0.285578 0.125685 0.180234
H9    H     H_    0.365781 0.379769 0.223409 0.219361
H10   H     H_    0.324135 0.182660 0.911531 0.259067
H11   H     H_    0.279833 0.184145 0.756056 0.271006
H12   H     H_    0.370215 0.931688 0.407361 0.135432
H13   H     H_    0.391817 0.141931 0.788423 0.265437
H14   H     H_    0.321816 0.348224 0.808108 0.229069
H15   H     H_    0.394461 0.299943 0.699795 0.269475
H16   H     H_    0.519580 0.302723 0.835909 0.187975
H17   H     H_    0.461904 0.262775 0.957183 0.194751
H18   H     H_    0.737709 0.672078 0.808485 0.157523
H19   H     H_    0.639669 0.612699 0.766552 0.162050
H20   H     H_    0.781323 0.563586 0.969438 0.212970
H21   H     H_    0.674585 0.507916 0.968292 0.231164
H22   H     H_    0.781664 0.405858 0.867850 0.257606
H23   H     H_    0.630021 0.755517 0.580677 0.114024
H24   H     H_    0.700601 0.447900 0.754487 0.262855
H25   H     H_    0.810998 0.499486 0.766009 0.263766
H26   H     H_    0.342541 0.784086 0.195876 0.154681
H27   H     H_    0.394065 0.674350 0.229503 0.179173
H28   H     H_    0.264037 0.724733 0.014008 0.227798
H29   H     H_    0.323981 0.613202 0.021266 0.229834
H30   H     H_    0.255791 0.573241 0.213898 0.271980
H31   H     H_    0.172601 0.602451 0.096209 0.269542
H32   H     H_    0.199060 0.688106 0.214240 0.280298
H33   H     H_    0.386474 0.847092 0.684618 0.276625
H34   H     H_    0.372263 0.758072 0.413013 0.113114
H35   H     H_    0.364418 0.723728 0.640684 0.305112
H36   H     H_    0.282629 0.791570 0.716947 0.247964
H37   H     H_    0.371416 0.670776 0.844418 0.224118
H38   H     H_    0.365485 0.792488 0.900363 0.266697
H39   H     H_    0.515706 0.823426 0.868685 0.186075
H40   H     H_    0.524788 0.737413 0.753079 0.215266
H41   H     H_    0.760033 0.772440 0.250069 0.262484
H42   H     H_    0.702200 0.722656 0.376721 0.279236
H43   H     H_    0.792318 0.657926 0.309932 0.256080
H44   H     H_    0.648866 0.589822 0.239037 0.235317
H45   H     H_    0.222783 0.639985 0.416093 0.204062
H46   H     H_    0.706806 0.640757 0.117723 0.251796
H47   H     H_    0.615283 0.792278 0.134354 0.203232
H48   H     H_    0.557297 0.740872 0.255465 0.215779
H49   H     H_    0.944461 0.596259 0.285129 0.137185
H50   H     H_    0.048803 0.579473 0.212178 0.117749
H51   H     H_    0.954495 0.772478 0.245859 0.244507
H52   H     H_    0.051108 0.749258 0.157607 0.217609
H53   H     H_    0.957944 0.640454 0.020541 0.265897
H54   H     H_    0.916598 0.760983 0.021065 0.278858
H55   H     H_    0.862544 0.670811 0.107093 0.274617
H56   H     H_    0.776628 0.641827 0.574550 0.198375
H57   H     H_    0.038404 0.606875 0.689817 0.140761
H58   H     H_    0.938840 0.653473 0.758344 0.124272
H59   H     H_    0.077525 0.775673 0.631879 0.249018
H60   H     H_    0.988596 0.815692 0.725905 0.213911
H61   H     H_    0.062693 0.732991 0.907581 0.283291
H62   H     H_    0.134887 0.818051 0.840668 0.269414
H63   H     H_    0.151168 0.693296 0.811804 0.271618
H64   H     H_    0.297662 0.232630 0.537185 0.173716
H65   H     H_    0.249068 0.301577 0.415909 0.122113
H66   H     H_    0.140102 0.187043 0.599313 0.250315
H67   H     H_    0.418640 0.071847 0.329455 0.135950
H68   H     H_    0.099881 0.240951 0.457337 0.265172
H69   H     H_    0.197751 0.132045 0.339674 0.262935
H70   H     H_    0.120755 0.068418 0.431262 0.277544
H71   H     H_    0.235997 0.076547 0.481955 0.271569
H72   H     H_    0.708070 0.231056 0.498061 0.178663
H73   H     H_    0.754362 0.313437 0.606613 0.116291
H74   H     H_    0.860893 0.173589 0.447328 0.234582
H75   H     H_    0.907396 0.251689 0.563507 0.272046
H76   H     H_    0.821641 0.170284 0.723111 0.264517
H77   H     H_    0.893210 0.089173 0.644141 0.277328
H78   H     H_    0.583418 0.067418 0.663192 0.134991
H79   H     H_    0.775226 0.090779 0.607376 0.266257
H80   H     H_    0.966353 0.344639 0.760320 0.159826
H81   H     H_    0.974407 0.463317 0.713973 0.115326
H82   H     H_    0.108197 0.339936 0.864625 0.224355
H83   H     H_    0.146326 0.445488 0.791699 0.226635
H84   H     H_    0.046772 0.546547 0.900365 0.269669
H85   H     H_    0.100586 0.469897 0.011552 0.277239
H86   H     H_    0.987250 0.447763 0.961344 0.277484
H87   H     H_    0.001581 0.399690 0.220239 0.132850
H88   H     H_    0.881673 0.401488 0.223291 0.133370
H89   H     H_    0.417346 0.245433 0.339489 0.110121
H90   H     H_    0.999738 0.221442 0.236529 0.222154
H91   H     H_    0.880022 0.225826 0.238987 0.236517
H92   H     H_    0.876938 0.305853 0.029744 0.264522
H93   H     H_    0.922998 0.187321 0.031533 0.270021
H94   H     H_    0.996256 0.286985 0.027367 0.273090
N1    N     N_R   0.500000 0.252470 0.500000 -0.099871
N2    N     N_R   0.500000 0.747550 0.500000 -0.098871
O1    O     O_R   0.369060 0.579480 0.500010 -0.648551
O2    O     O_3   0.441185 0.750455 0.079518 -0.692289
O3    O     O_3   0.053437 0.657612 0.376668 -0.597837
O4    O     O_3   0.945127 0.671029 0.569349 -0.588960
O5    O     O_3   0.226554 0.346073 0.597840 -0.644041
O6    O     O_3   0.774737 0.338070 0.417759 -0.620420
O7    O     O_3   0.048070 0.362741 0.616455 -0.627319
O8    O     O_3   0.953487 0.356944 0.385407 -0.631767
O9    O     O_R   0.630940 0.579480 0.499990 -0.640630
O10   O     O_R   0.369050 0.420520 0.500010 -0.627184
O11   O     O_R   0.630950 0.420520 0.499990 -0.596496
O12   O     O_R   0.499990 0.579490 0.316780 -0.646754
O13   O     O_R   0.500010 0.579490 0.683220 -0.638731
O14   O     O_R   0.499980 0.420540 0.316780 -0.618745
O15   O     O_R   0.500020 0.420540 0.683220 -0.647338
O16   O     O_3   0.639858 0.690108 0.931993 -0.689722
Zn1   Zn    Zn3+2 0.500000 0.606140 0.500000 0.896147
Zn2   Zn    Zn3+2 0.500000 0.393860 0.500000 0.924949

loop_
_geom_bond_atom_site_label_1
_geom_bond_atom_site_label_2
_ccdc_geom_bond_type
C58   H69   S    
C36   H19   S    
C7    C10   A    
C66   C68   S    
C1    O10   A    
C34   C56   A    
C23   C45   A    
C38   H22   S    
C65   O8    S    
C47   H44   S    
C51   H53   S    
C50   H52   S    
C43   C44   S    
C40   H29   S    
C66   H90   S    
C52   H58   S    
C44   H35   S    
C36   H18   S    
C54   H61   S    
C68   H93   S    
C64   H85   S    
C37   C38   S    
C21   O2    S    
C37   H20   S    
C12   C28   S    
C14   C21   S    
O9    Zn1   S    
C9    N2    A    
C42   H39   S    
C24   C26   A    
C25   H45   S    
C40   H28   S    
C30   C31   S    
C31   H3    S    
C49   H50   S    
C1    O1    A    
C2    H78   S    
C64   H84   S    
C35   H10   S    
C4    N1    A    
C46   H48   S    
O10   Zn2   S    
C18   C19   A    
C26   H56   S    
C39   O2    S    
C49   C50   S    
C33   H15   S    
C17   C19   A    
C30   H7    S    
C44   H33   S    
O1    Zn1   S    
C29   H8    S    
C59   H72   S    
C22   C67   A    
C22   C25   A    
C38   H25   S    
C45   C67   A    
C57   H66   S    
C23   C27   A    
C29   C30   S    
C24   O4    S    
O12   Zn1   S    
C12   O11   A    
C59   H73   S    
C59   C60   S    
C3    H89   S    
C51   H54   S    
C15   C20   S    
C50   H51   S    
C44   H36   S    
C19   C32   S    
C55   O5    S    
C52   H57   S    
C24   C69   A    
O13   Zn1   S    
C68   H94   S    
C35   H11   S    
C47   H46   S    
C63   H82   S    
C62   H81   S    
C37   H21   S    
C51   H55   S    
C3    C70   A    
C63   H83   S    
C65   H87   S    
C52   O4    S    
C39   C40   S    
C11   O12   A    
C35   H13   S    
C31   H4    S    
C6    C8    A    
C53   C54   S    
C54   H63   S    
C46   H47   S    
C56   O8    S    
C60   C61   S    
C67   C69   S    
C2    C4    A    
C61   H76   S    
C62   C63   S    
C45   O7    S    
C30   H6    S    
C11   C16   S    
C31   H5    S    
C47   C48   S    
C29   H9    S    
C32   H16   S    
C38   H24   S    
C50   C51   S    
C41   H30   S    
C18   C29   S    
C43   H37   S    
C36   O16   S    
C8    N2    A    
C12   O9    A    
C40   C41   S    
C48   H42   S    
C65   C66   S    
C13   O15   A    
C55   C57   S    
C14   C16   A    
C2    C5    A    
C53   H59   S    
C42   C43   S    
C41   H32   S    
C59   O6    S    
C55   H64   S    
C4    H2    S    
C34   O6    S    
C52   C53   S    
C3    N1    A    
C20   O16   S    
C21   C46   S    
O15   Zn2   S    
C58   H70   S    
C15   C17   A    
C46   C47   S    
C36   C37   S    
C8    H23   S    
C62   H80   S    
N1    Zn2   S    
N2    Zn1   S    
C65   H88   S    
C5    C70   A    
C6    C10   A    
C20   C42   S    
C11   O14   A    
C68   H92   S    
C25   C27   A    
O11   Zn2   S    
C54   H62   S    
C48   H41   S    
C64   H86   S    
C26   C28   A    
C13   C17   S    
C32   C33   S    
C61   H77   S    
C5    C10   S    
C13   O13   A    
C60   H74   S    
C49   O3    S    
C62   O7    S    
C58   H71   S    
C57   C58   S    
C49   H49   S    
C9    H34   S    
C55   H65   S    
C33   C35   S    
C41   H31   S    
C57   H68   S    
C43   H38   S    
C42   H40   S    
C33   H14   S    
C39   H26   S    
C22   O3    S    
C39   H27   S    
C28   C34   A    
C63   C64   S    
C7    C9    A    
C32   H17   S    
C7    H12   S    
C23   O5    S    
C20   C21   S    
C66   H91   S    
C70   H67   S    
C16   C18   A    
C56   C69   A    
C60   H75   S    
C1    C27   S    
C14   C15   A    
C53   H60   S    
C61   H79   S    
O14   Zn2   S    
C48   H43   S    
C6    H1    S    
