data_mof_unit_19791.cif
_audit_creation_date              2012-10-26T21:00:42-0400
_audit_creation_method            fapswitch 2.2
_symmetry_space_group_name_H-M    P1
_symmetry_Int_Tables_number       1
_space_group_crystal_system       triclinic
_cell_length_a                    10.964203
_cell_length_b                    9.478486
_cell_length_c                    10.989018
_cell_angle_alpha                 89.99994
_cell_angle_beta                  89.275644
_cell_angle_gamma                 89.999986
_cell_volume                      1141.93193346

loop_
_atom_site_label
_atom_site_type_symbol
_atom_type_description
_atom_site_fract_x
_atom_site_fract_y
_atom_site_fract_z
_atom_type_partial_charge
C1    C     C_R   0.261791 0.500701 0.507428 0.575287
C2    C     C_R   0.493669 0.501180 0.738159 0.546228
C3    C     C_R   0.549161 0.766657 0.113776 -0.116599
C4    C     C_R   0.450838 0.766657 0.886224 -0.116600
C5    C     C_R   0.532496 0.894868 0.053735 0.258696
C6    C     C_R   0.467504 0.894868 0.946264 0.258696
C7    C     C_R   0.484443 0.635974 0.938138 -0.033012
C8    C     C_R   0.515556 0.635974 0.061861 -0.033012
C9    C     C_R   0.511835 0.506257 0.127532 0.000853
C10   C     C_R   0.488165 0.506257 0.872468 0.000852
C11   C     C_R   0.501836 0.379536 0.063027 -0.157276
C12   C     C_R   0.738209 0.500701 0.492572 0.575287
C13   C     C_R   0.498164 0.379536 0.936974 -0.157276
C14   C     C_R   0.063286 0.376045 0.502745 -0.194738
C15   C     C_R   0.936713 0.376045 0.497254 -0.194738
C16   C     C_R   0.872625 0.503532 0.486766 -0.044038
C17   C     C_R   0.127375 0.503533 0.513234 -0.044039
C18   C     C_3   0.693418 0.035448 0.104820 -0.036120
C19   C     C_3   0.733313 0.130641 0.208655 -0.333165
C20   C     C_3   0.306582 0.035447 0.895178 -0.036120
C21   C     C_3   0.266687 0.130644 0.791344 -0.333165
C22   C     C_3   0.288503 0.920586 0.255813 -0.011407
C23   C     C_R   0.939202 0.631945 0.481435 0.258032
C24   C     C_3   0.222730 0.817495 0.173040 -0.316217
C25   C     C_3   0.711498 0.920586 0.744187 -0.011407
C26   C     C_3   0.777270 0.817494 0.826959 -0.316217
C27   C     C_R   0.060798 0.631945 0.518564 0.258033
C28   C     C_R   0.428950 0.075401 0.420966 0.005986
C29   C     C_R   0.571050 0.075401 0.579034 0.005987
C30   C     C_R   0.428464 0.924254 0.419159 0.360710
C31   C     C_R   0.571536 0.924254 0.580841 0.360710
C32   C     C_R   0.506331 0.501180 0.261841 0.546229
Cu1   Cu    Cu3+1 0.500000 0.640660 0.500000 1.106666
Cu2   Cu    Cu3+1 0.500000 0.359340 0.500000 0.934049
H1    H     H_    0.498417 0.279509 0.110037 0.193397
H2    H     H_    0.743535 0.933674 0.114215 0.155588
H3    H     H_    0.699773 0.087937 0.297038 0.178429
H4    H     H_    0.834443 0.136334 0.210424 0.134020
H5    H     H_    0.696959 0.238791 0.196449 0.157073
H6    H     H_    0.278705 0.084703 0.983037 0.138249
H7    H     H_    0.256465 0.933674 0.885781 0.155586
H8    H     H_    0.300231 0.087944 0.702960 0.178428
H9    H     H_    0.165557 0.136333 0.789573 0.134021
H10   H     H_    0.303038 0.238795 0.803554 0.157071
H11   H     H_    0.707625 0.826955 0.342226 0.349366
H12   H     H_    0.501584 0.279509 0.889963 0.193398
H13   H     H_    0.292372 0.826962 0.657777 0.349363
H14   H     H_    0.347349 0.989121 0.198191 0.137707
H15   H     H_    0.218741 0.986495 0.302837 0.182629
H16   H     H_    0.173670 0.736834 0.228085 0.212818
H17   H     H_    0.156612 0.875112 0.115658 0.110862
H18   H     H_    0.288722 0.762223 0.112822 0.135628
H19   H     H_    0.652651 0.989120 0.801808 0.137707
H20   H     H_    0.781259 0.986494 0.697162 0.182629
H21   H     H_    0.826330 0.736833 0.771914 0.212817
H22   H     H_    0.843389 0.875111 0.884341 0.110862
H23   H     H_    0.590397 0.773702 0.199540 0.189862
H24   H     H_    0.711279 0.762222 0.887177 0.135628
H25   H     H_    0.409602 0.773701 0.800459 0.189862
H26   H     H_    0.110622 0.275703 0.501987 0.177891
H27   H     H_    0.889378 0.275703 0.498013 0.177891
H28   H     H_    0.373348 0.136775 0.360348 0.120060
H29   H     H_    0.626652 0.136774 0.639652 0.120060
H30   H     H_    0.721294 0.084706 0.016962 0.138249
N1    N     N_R   0.500000 0.852070 0.500000 -0.236086
N2    N     N_R   0.500000 0.147940 0.500000 -0.293535
O1    O     O_R   0.319640 0.618740 0.499990 -0.414297
O2    O     O_3   0.435050 0.020524 0.891528 -0.578869
O3    O     O_2   0.851233 0.897374 0.497433 -0.269853
O4    O     O_2   0.985192 0.845251 0.325697 -0.285509
O5    O     O_3   0.767091 0.753463 0.317504 -0.557301
O6    O     O_2   0.148766 0.897374 0.502564 -0.269852
O7    O     O_2   0.014808 0.845252 0.674301 -0.285511
O8    O     O_3   0.232909 0.753464 0.682494 -0.557299
O9    O     O_3   0.357892 0.843315 0.340422 -0.500750
O10   O     O_3   0.642108 0.843314 0.659578 -0.500750
O11   O     O_R   0.680360 0.618740 0.500010 -0.414302
O12   O     O_R   0.319620 0.381170 0.499990 -0.527792
O13   O     O_R   0.680380 0.381170 0.500010 -0.527791
O14   O     O_R   0.500000 0.618810 0.319650 -0.473659
O15   O     O_R   0.500000 0.618810 0.680350 -0.473656
O16   O     O_R   0.499970 0.381240 0.319640 -0.523789
O17   O     O_R   0.500030 0.381240 0.680360 -0.523789
O18   O     O_3   0.564950 0.020524 0.108470 -0.578870
S1    S     S_3+6 0.885986 0.786515 0.406056 0.039477
S2    S     S_3+6 0.114013 0.786515 0.593943 0.039477

loop_
_geom_bond_atom_site_label_1
_geom_bond_atom_site_label_2
_ccdc_geom_bond_type
C24   H18   S    
C7    C10   A    
C22   H14   S    
C29   H29   S    
H11   O5    S    
Cu1   O11   S    
C26   H21   S    
Cu2   N2    S    
C20   H7    S    
Cu1   N1    S    
C7    C8    A    
C25   H19   S    
C13   H12   S    
C20   H6    S    
C15   C16   A    
C12   O13   A    
C18   C19   S    
C19   H3    S    
C9    C32   S    
C21   H9    S    
C12   C16   S    
C8    C9    A    
C18   O18   S    
C23   C27   A    
C24   H17   S    
C6    O2    S    
O5    S1    S    
C1    O12   A    
C14   C17   A    
C2    O17   A    
C22   O9    S    
C4    C7    A    
C24   H16   S    
C17   C27   A    
C25   H20   S    
C4    C6    A    
C3    C8    A    
C5    O18   S    
C25   C26   S    
C21   H8    S    
C27   S2    S    
C28   N2    A    
C19   H4    S    
Cu2   O13   S    
C32   O14   A    
C21   H10   S    
C9    C11   A    
C12   O11   A    
Cu1   Cu2   S    
C15   H27   S    
O8    S2    S    
C26   H24   S    
C19   H5    S    
C22   H15   S    
C3    H23   S    
C16   C23   A    
C22   C24   S    
Cu2   O17   S    
C2    C10   S    
C14   H26   S    
O3    S1    D    
Cu1   O1    S    
C31   N1    A    
C20   O2    S    
H13   O8    S    
C3    C5    A    
C10   C13   A    
C26   H22   S    
O6    S2    D    
Cu1   O14   S    
C32   O16   A    
C1    C17   S    
C25   O10   S    
C28   C30   A    
C29   C31   A    
Cu2   O12   S    
C30   O9    S    
C11   C13   A    
C18   H30   S    
C31   O10   S    
C5    C6    A    
Cu1   O15   S    
C4    H25   S    
C11   H1    S    
C1    O1    A    
O7    S2    D    
C30   N1    A    
C29   N2    A    
C20   C21   S    
C23   S1    S    
C14   C15   A    
C2    O15   A    
Cu2   O16   S    
O4    S1    D    
C18   H2    S    
C28   H28   S    
