data_mof_unit_68015.cif
_audit_creation_date              2013-03-05T15:40:29-0500
_audit_creation_method            fapswitch 2.2
_symmetry_space_group_name_H-M    P1
_symmetry_Int_Tables_number       1
_space_group_crystal_system       triclinic
_cell_length_a                    7.202268
_cell_length_b                    11.712101
_cell_length_c                    18.66651
_cell_angle_alpha                 89.99985
_cell_angle_beta                  92.941956
_cell_angle_gamma                 89.999988
_cell_volume                      1572.51375986

loop_
_atom_site_label
_atom_site_type_symbol
_atom_site_description
_atom_site_fract_x
_atom_site_fract_y
_atom_site_fract_z
_atom_type_partial_charge
O1    O     O_R   0.330540 0.606360 0.598870 -0.527842
O2    O     O_R   0.669460 0.106360 0.401130 -0.527839
O3    O     O_R   0.026770 0.620470 0.750430 -0.527474
O4    O     O_R   0.973230 0.120470 0.249570 -0.527473
O5    O     O_R   0.856460 0.393640 0.750930 -0.534153
O6    O     O_R   0.143540 0.893640 0.249070 -0.534154
C1    C     C_R   0.198022 0.638527 0.777784 0.665295
C2    C     C_R   0.801978 0.138527 0.222216 0.665304
O7    O     O_R   0.000920 0.620350 0.599420 -0.507327
O8    O     O_R   0.999080 0.120350 0.400580 -0.507325
O9    O     O_R   0.830430 0.393520 0.598850 -0.526787
O10   O     O_R   0.169570 0.893520 0.401150 -0.526783
C3    C     C_R   0.167517 0.647611 0.575484 0.712554
C4    C     C_R   0.832483 0.147611 0.424515 0.712569
O11   O     O_R   0.356570 0.606480 0.750960 -0.532194
O12   O     O_R   0.643430 0.106480 0.249040 -0.532189
O13   O     O_3   0.176990 0.425580 0.674890 -0.366112
O14   O     O_3   0.823010 0.925580 0.325110 -0.366126
V1    V     V_3+5 0.902170 0.513810 0.674910 1.834442
V2    V     V_3+5 0.097830 0.013810 0.325090 1.834431
O15   O     O_R   0.500800 0.379530 0.599380 -0.501362
O16   O     O_R   0.499200 0.879530 0.400620 -0.501365
C5    C     C_R   0.666978 0.355081 0.573879 0.771843
C6    C     C_R   0.333022 0.855080 0.426120 0.771852
O17   O     O_R   0.526650 0.379650 0.750390 -0.518674
O18   O     O_R   0.473350 0.879650 0.249610 -0.518688
C7    C     C_R   0.698088 0.349236 0.770385 0.884605
C8    C     C_R   0.301911 0.849238 0.229613 0.884613
V3    V     V_3+5 0.402160 0.486190 0.674900 1.824788
V4    V     V_3+5 0.597840 0.986190 0.325100 1.824740
O19   O     O_3   0.677210 0.574420 0.674910 -0.368618
O20   O     O_3   0.322790 0.074420 0.325090 -0.368613
C9    C     C_R   0.733599 0.068203 0.867210 0.416533
C10   C     C_R   0.266393 0.568206 0.132791 0.416561
C11   C     C_R   0.712695 0.264110 0.827420 -0.275001
C12   C     C_R   0.287303 0.764112 0.172579 -0.275027
C13   C     C_R   0.773188 0.331739 0.179177 -0.019139
C14   C     C_R   0.226821 0.831738 0.820822 -0.019186
C15   C     C_R   0.768003 0.414487 0.126409 0.486131
C16   C     C_R   0.232007 0.914488 0.873589 0.486036
C17   C     C_R   0.767605 0.383004 0.054405 -0.043892
C18   C     C_R   0.232397 0.883005 0.945593 -0.043849
C19   C     C_R   0.765321 0.265639 0.031844 0.164640
C20   C     C_R   0.234679 0.765640 0.968155 0.164648
C21   C     C_R   0.781800 0.183815 0.087836 0.006162
C22   C     C_R   0.218199 0.683815 0.912164 0.006152
C23   C     C_R   0.748211 0.226719 0.957451 -0.046173
C24   C     C_R   0.251785 0.726721 0.042549 -0.046173
C25   C     C_R   0.756162 0.105063 0.941428 -0.227518
C26   C     C_R   0.243833 0.605065 0.058572 -0.227526
C27   C     C_R   0.784525 0.027192 0.000704 0.459479
C28   C     C_R   0.215471 0.527194 0.999297 0.459476
C29   C     C_R   0.795898 0.069368 0.070716 -0.025268
C30   C     C_R   0.204099 0.569369 0.929285 -0.025275
C31   C     C_R   0.721030 0.303613 0.897981 0.398533
C32   C     C_R   0.278967 0.803615 0.102018 0.398534
C33   C     C_R   0.716033 0.148439 0.810622 0.404693
C34   C     C_R   0.283960 0.648442 0.189379 0.404668
C35   C     C_R   0.785726 0.217956 0.161355 -0.072814
C36   C     C_R   0.214276 0.717956 0.838645 -0.072749
H1    H     H_    0.771606 0.356277 0.235140 0.143466
H2    H     H_    0.228407 0.856271 0.764859 0.143335
H3    H     H_    0.774082 0.454752 0.020051 0.196397
H4    H     H_    0.225913 0.954753 0.979946 0.196392
H5    H     H_    0.809741 0.009555 0.114643 0.184944
H6    H     H_    0.190256 0.509556 0.885358 0.184946
C37   C     C_2   0.830107 0.232977 0.484145 0.117113
C38   C     C_2   0.169893 0.732978 0.515855 0.117112
C39   C     C_2   0.668973 0.272449 0.512666 0.100604
C40   C     C_2   0.331027 0.772448 0.487334 0.100601
S1    S     S_3+6 0.717264 0.107921 0.717034 0.109842
O21   O     O_2   0.901297 0.139982 0.688481 -0.295204
O22   O     O_2   0.682805 0.983044 0.703165 -0.236867
O23   O     O_3   0.548943 0.179985 0.670882 -0.516945
H7    H     H_    0.486977 0.123645 0.638183 0.396878
S2    S     S_3+6 0.282731 0.607929 0.282967 0.109825
O24   O     O_2   0.098707 0.640004 0.311523 -0.295257
O25   O     O_2   0.317170 0.483051 0.296840 -0.236823
O26   O     O_3   0.451068 0.679985 0.329115 -0.516980
H8    H     H_    0.513022 0.623644 0.361818 0.396861
N1    N     N_R   0.490941 0.238748 0.481951 0.116196
O27   O     O_R   0.415966 0.296000 0.428223 -0.307700
O28   O     O_R   0.415672 0.143517 0.501522 -0.352476
N2    N     N_R   0.509060 0.738745 0.518047 0.116193
O29   O     O_R   0.584041 0.795996 0.571774 -0.307707
O30   O     O_R   0.584322 0.643511 0.498477 -0.352480
S3    S     S_3+6 0.780308 0.874294 0.999301 0.067914
O31   O     O_2   0.584189 0.836470 0.995329 -0.284699
O32   O     O_2   0.872950 0.816980 0.939390 -0.323590
O33   O     O_3   0.875126 0.822847 0.076208 -0.484537
H9    H     H_    0.899149 0.742423 0.064363 0.405487
S4    S     S_3+6 0.219690 0.374295 0.000701 0.067916
O34   O     O_2   0.415810 0.336473 0.004672 -0.284696
O35   O     O_2   0.127051 0.316981 0.060613 -0.323595
O36   O     O_3   0.124870 0.322848 0.923795 -0.484529
H10   H     H_    0.100846 0.242424 0.935641 0.405488
N3    N     N_R   0.741957 0.951183 0.846709 0.187036
O37   O     O_R   0.596682 0.886859 0.849212 -0.321801
O38   O     O_R   0.877462 0.915433 0.809633 -0.334753
N4    N     N_R   0.258043 0.451186 0.153293 0.187050
O39   O     O_R   0.403321 0.386865 0.150788 -0.321776
O40   O     O_R   0.122543 0.415432 0.190369 -0.334750
N5    N     N_R   0.699580 0.424359 0.905744 0.053858
O41   O     O_R   0.840719 0.490251 0.895658 -0.398050
O42   O     O_R   0.535077 0.467872 0.895654 -0.367530
N6    N     N_R   0.300417 0.924361 0.094254 0.053857
O43   O     O_R   0.159278 0.990254 0.104340 -0.398051
O44   O     O_R   0.464920 0.967874 0.104345 -0.367533
S5    S     S_3+6 0.740243 0.557478 0.152142 0.018607
O45   O     O_2   0.920193 0.617499 0.163321 -0.371137
O46   O     O_2   0.627378 0.621186 0.095701 -0.330340
O47   O     O_3   0.641504 0.560173 0.230998 -0.469037
H11   H     H_    0.745175 0.554567 0.267826 0.392828
S6    S     S_3+6 0.259751 0.057485 0.847858 0.018656
O48   O     O_2   0.079795 0.117500 0.836686 -0.371083
O49   O     O_2   0.372615 0.121189 0.904300 -0.330333
O50   O     O_3   0.358470 0.060211 0.768999 -0.468987
H12   H     H_    0.254830 0.054387 0.732179 0.392746
N7    N     N_R   0.007874 0.272953 0.511418 0.126775
O51   O     O_R   0.095334 0.219235 0.563938 -0.302736
O52   O     O_R   0.076295 0.367026 0.486752 -0.329773
N8    N     N_R   0.992127 0.772957 0.488584 0.126775
O53   O     O_R   0.904659 0.719242 0.436065 -0.302752
O54   O     O_R   0.923713 0.867032 0.513251 -0.329778

loop_
_geom_bond_atom_site_label_1
_geom_bond_atom_site_label_2
_geom_bond_distance
_ccdc_geom_bond_type
V4    O20   2.234299 S    
S3    O31   1.478561 D    
O13   V3    1.770285 S    
C5    C39   1.498050 S    
O36   H10   0.984889 S    
S2    O26   1.678393 S    
O4    C2    1.327436 A    
V1    O19   1.768908 S    
N3    O37   1.292102 A    
C6    C40   1.498046 S    
C23   C25   1.457637 A    
O9    V1    2.047510 S    
N6    O44   1.294613 A    
S2    O25   1.503705 D    
O5    V1    2.037367 S    
C12   C34   1.391048 A    
S5    O46   1.496529 D    
C2    C35   1.468361 S    
N6    O43   1.297685 A    
C9    C25   1.452240 A    
C31   N5    1.430768 S    
O7    C3    1.340261 A    
S4    O34   1.478561 D    
N3    O38   1.294633 A    
O5    C7    1.321334 A    
O7    V1    2.037495 S    
O6    C8    1.321331 A    
C20   C22   1.418501 A    
C25   C27   1.440343 A    
C10   N4    1.425080 S    
C4    C37   1.496941 S    
O3    V1    2.055054 S    
O14   V4    1.770285 S    
C40   N2    1.432897 S    
C9    N3    1.425080 S    
C16   C18   1.393582 A    
C21   C29   1.382926 A    
C2    O12   1.324473 A    
C17   C19   1.437502 A    
C22   C30   1.382927 A    
C18   C20   1.437504 A    
S4    O35   1.490990 D    
O47   H11   0.990827 S    
N1    O28   1.300654 A    
C28   C30   1.395584 A    
O11   V3    2.038699 S    
S2    O24   1.501477 D    
N7    O52   1.300805 A    
O17   V3    2.053507 S    
C13   C15   1.380978 A    
C16   S6    1.756532 S    
C10   C26   1.452243 A    
O23   H7    0.989542 S    
C11   C31   1.394404 A    
N2    O29   1.300552 A    
C15   C17   1.393576 A    
O8    C4    1.340260 A    
S5    O47   1.667581 S    
C38   N8    1.432030 S    
S1    O22   1.503708 D    
C1    O11   1.324473 A    
C7    C11   1.458436 S    
O15   V3    2.038452 S    
S4    O36   1.670237 S    
N1    O27   1.300551 A    
S6    O49   1.496530 D    
C27   C29   1.395583 A    
C12   C32   1.394403 A    
C26   C28   1.440343 A    
O10   V2    2.047503 S    
O1    V3    2.045969 S    
N5    O42   1.294614 A    
C33   S1    1.810717 S    
C24   C26   1.457637 A    
C19   C21   1.418502 A    
C32   N6    1.430768 S    
C13   C35   1.377622 A    
C14   C36   1.377624 A    
O18   V4    2.053512 S    
O15   C5    1.341465 A    
O16   C6    1.341462 A    
C28   S4    1.791188 S    
O1    C3    1.322859 A    
C17   H3    1.059527 S    
O12   V4    2.038695 S    
C27   S3    1.791189 S    
C18   H4    1.059527 S    
C1    C36   1.468364 S    
N8    O54   1.300804 A    
C29   H5    1.079180 S    
C23   C31   1.435057 A    
N4    O40   1.294632 A    
V2    O20   1.768908 S    
C24   C32   1.435056 A    
C21   C35   1.428293 A    
C9    C33   1.414619 A    
O16   V4    2.038450 S    
C22   C36   1.428291 A    
C34   S2    1.810723 S    
O18   C8    1.320411 A    
N2    O30   1.300653 A    
C19   C23   1.460754 A    
S1    O23   1.678392 S    
C13   H1    1.084062 S    
N7    O51   1.300131 A    
S6    O48   1.479751 D    
C30   H6    1.079180 S    
O17   C7    1.320412 A    
O6    V2    2.037372 S    
O10   C6    1.322682 A    
O3    C1    1.327439 A    
O2    V4    2.045976 S    
C11   C33   1.391052 A    
S3    O32   1.490989 D    
S1    O21   1.501478 D    
V3    O19   2.234299 S    
O50   H12   0.990733 S    
C14   C16   1.380984 A    
O33   H9    0.984890 S    
O8    V2    2.037500 S    
O9    C5    1.322681 A    
N4    O39   1.292103 A    
O13   V1    2.232855 S    
O14   V2    2.232856 S    
O2    C4    1.322859 A    
S6    O50   1.667572 S    
C39   N1    1.432897 S    
O26   H8    0.989557 S    
O4    V2    2.055052 S    
C15   S5    1.756505 S    
C8    C12   1.458431 S    
C38   C40   1.381081 D    
S3    O33   1.670238 S    
N5    O41   1.297686 A    
C10   C34   1.414618 A    
C37   C39   1.381082 D    
N8    O53   1.300131 A    
S5    O45   1.479762 D    
C37   N7    1.432030 S    
C20   C24   1.460755 A    
C14   H2    1.084048 S    
C3    C38   1.496937 S    
