data_mof_unit_46798.cif
_audit_creation_date              2012-12-10T22:11:11-0500
_audit_creation_method            fapswitch 2.2
_symmetry_space_group_name_H-M    P1
_symmetry_Int_Tables_number       1
_space_group_crystal_system       triclinic
_cell_length_a                    12.183976
_cell_length_b                    12.326762
_cell_length_c                    23.131627
_cell_angle_alpha                 91.241955
_cell_angle_beta                  90.64632
_cell_angle_gamma                 90.824664
_cell_volume                      3472.70588148

loop_
_atom_site_label
_atom_site_type_symbol
_atom_type_description
_atom_site_fract_x
_atom_site_fract_y
_atom_site_fract_z
_atom_type_partial_charge
C1    C     C_R   0.656844 0.998651 0.579089 0.933387
C2    C     C_R   0.097190 0.808844 0.795202 0.148777
C3    C     C_R   0.909645 0.270988 0.163472 -0.223785
C4    C     C_R   0.090348 0.729006 0.836525 -0.223747
C5    C     C_R   0.100783 0.920867 0.327601 0.300014
C6    C     C_R   0.899240 0.079120 0.672384 0.299927
C7    C     C_R   0.179959 0.918759 0.372154 0.333114
C8    C     C_R   0.820058 0.081227 0.627834 0.333072
C9    C     C_R   0.894722 0.087986 0.334018 -0.291462
C10   C     C_R   0.105287 0.912011 0.665984 -0.291471
C11   C     C_R   0.822453 0.085266 0.379578 -0.050411
C12   C     C_R   0.343156 0.001348 0.420912 0.933382
C13   C     C_R   0.177552 0.914734 0.620424 -0.050398
C14   C     C_3   0.993450 0.013333 0.247981 -0.041726
C15   C     C_3   0.006556 0.986671 0.752018 -0.041778
C16   C     C_R   0.656392 0.001628 0.422133 0.860031
C17   C     C_R   0.343610 0.998372 0.577868 0.860026
C18   C     C_R   0.092841 0.013008 0.290989 -0.098045
C19   C     C_R   0.907168 0.986991 0.709007 -0.097805
C20   C     C_R   0.258556 0.001936 0.376492 -0.123805
C21   C     C_R   0.741446 0.998063 0.623507 -0.123789
C22   C     C_R   0.895212 0.007265 0.289556 0.166079
C23   C     C_R   0.916646 0.832830 0.114707 -0.136223
C24   C     C_R   0.104800 0.992732 0.710447 0.166063
C25   C     C_R   0.742007 0.002692 0.379410 -0.141276
C26   C     C_R   0.257999 0.997307 0.620592 -0.141274
C27   C     C_R   0.990503 0.114524 0.209758 0.108473
C28   C     C_R   0.009501 0.885481 0.790243 0.108501
C29   C     C_R   0.998297 0.275965 0.126273 -0.031788
C30   C     C_R   0.001702 0.724037 0.873728 -0.031759
C31   C     C_R   0.996964 0.917471 0.202747 0.115631
C32   C     C_R   0.003040 0.082540 0.797249 0.115697
C33   C     C_R   0.991062 0.747095 0.119574 -0.195151
C34   C     C_R   0.083321 0.167153 0.885305 -0.136249
C35   C     C_R   0.008939 0.252913 0.880425 -0.195063
C36   C     C_R   0.992764 0.660802 0.075824 0.926274
C37   C     C_R   0.007235 0.339200 0.924175 0.926319
C38   C     C_R   0.998999 0.354370 0.081229 0.900255
C39   C     C_R   0.001001 0.645631 0.918772 0.900198
C40   C     C_R   0.168530 0.102111 0.301474 -0.037804
C41   C     C_R   0.831467 0.897896 0.698530 -0.037679
C42   C     C_R   0.253673 0.090863 0.340850 -0.306190
C43   C     C_R   0.746321 0.909145 0.659155 -0.306100
C44   C     C_R   0.818928 0.918867 0.293135 0.630595
C45   C     C_R   0.085452 0.842681 0.197579 -0.002221
C46   C     C_R   0.181092 0.081122 0.706873 0.630655
C47   C     C_R   0.740781 0.920758 0.336849 -0.280954
C48   C     C_R   0.259235 0.079234 0.663157 -0.280922
C49   C     C_R   0.079225 0.124057 0.171122 -0.231680
C50   C     C_R   0.920785 0.875958 0.828883 -0.231702
C51   C     C_R   0.084092 0.204149 0.130852 -0.115608
C52   C     C_R   0.915915 0.795864 0.869153 -0.115681
C53   C     C_R   0.910899 0.908971 0.160441 0.432967
C54   C     C_R   0.089084 0.091021 0.839567 0.432893
C55   C     C_2   0.201172 0.869150 0.213818 0.439986
C56   C     C_R   0.914583 0.157372 0.802394 -0.001988
C57   C     C_2   0.798871 0.130979 0.786105 0.439766
C58   C     C_2   0.800799 0.194522 0.238600 0.390348
C59   C     C_2   0.199205 0.805477 0.761403 0.390339
C60   C     C_2   0.850331 0.849460 0.061068 0.478112
C61   C     C_2   0.149588 0.150489 0.938957 0.478031
C62   C     C_2   0.129527 0.645789 0.179877 0.468585
C63   C     C_2   0.870584 0.354289 0.820082 0.468244
C64   C     C_2   0.837697 0.165204 0.428298 0.456853
C65   C     C_2   0.162306 0.834800 0.571702 0.456878
C66   C     C_2   0.163223 0.212329 0.277582 0.430441
C67   C     C_R   0.068561 0.746674 0.165240 -0.074168
C68   C     C_2   0.836769 0.787682 0.722426 0.430434
C69   C     C_R   0.931489 0.253376 0.834736 -0.074356
C70   C     C_R   0.902808 0.191154 0.204797 0.148779
H1    H     H_    0.313826 0.156263 0.346437 0.188615
H2    H     H_    0.846183 0.792103 0.897723 0.200569
H3    H     H_    0.843864 0.328957 0.159422 0.147754
H4    H     H_    0.156125 0.671031 0.840572 0.147739
H5    H     H_    0.766526 0.775174 0.266495 0.330977
H6    H     H_    0.233515 0.224803 0.733522 0.330979
H7    H     H_    0.756444 0.939559 0.152096 0.344845
H8    H     H_    0.243532 0.060419 0.847934 0.344851
H9    H     H_    0.235802 0.843149 0.254447 0.117621
H10   H     H_    0.764270 0.157185 0.745509 0.117872
H11   H     H_    0.791081 0.257842 0.271395 0.088302
H12   H     H_    0.686159 0.843751 0.653574 0.188589
H13   H     H_    0.208936 0.742145 0.728615 0.088309
H14   H     H_    0.070441 0.765418 0.328049 0.366946
H15   H     H_    0.929618 0.234562 0.671914 0.367007
H16   H     H_    0.770180 0.886166 0.062715 0.072914
H17   H     H_    0.229703 0.113702 0.937329 0.072978
H18   H     H_    0.110811 0.569346 0.157664 0.065806
H19   H     H_    0.889162 0.430685 0.842370 0.065988
H20   H     H_    0.104176 0.810431 0.417553 0.355381
H21   H     H_    0.895854 0.189521 0.582418 0.355382
H22   H     H_    0.803584 0.149519 0.470379 0.121819
H23   H     H_    0.147109 0.069511 0.172818 0.191985
H24   H     H_    0.196401 0.850497 0.529618 0.121779
H25   H     H_    0.231251 0.242732 0.252395 0.085194
H26   H     H_    0.768742 0.757287 0.747617 0.085230
H27   H     H_    0.852912 0.930517 0.827195 0.192140
H28   H     H_    0.954865 0.152848 0.333929 0.239737
H29   H     H_    0.045141 0.847151 0.666073 0.239709
H30   H     H_    0.679554 0.856215 0.338354 0.159821
H31   H     H_    0.320467 0.143773 0.661654 0.159808
H32   H     H_    0.153829 0.207918 0.102287 0.200550
O1    O     O_R   0.621380 0.090460 0.561410 -0.569250
O2    O     O_R   0.912410 0.372520 0.941210 -0.630751
O3    O     O_R   0.905660 0.383870 0.059980 -0.619503
O4    O     O_R   0.094340 0.616130 0.940020 -0.619502
O5    O     O_R   0.092570 0.390420 0.063230 -0.620444
O6    O     O_R   0.907430 0.609580 0.936770 -0.620458
O7    O     O_R   0.900680 0.620930 0.055550 -0.602133
O8    O     O_R   0.099320 0.379070 0.944450 -0.602115
O9    O     O_3   0.825095 0.828435 0.257129 -0.763424
O10   O     O_3   0.174940 0.171546 0.742886 -0.763419
O11   O     O_3   0.824629 0.979764 0.163299 -0.737662
O12   O     O_R   0.378620 0.909540 0.438590 -0.569242
O13   O     O_3   0.175349 0.020222 0.836718 -0.737664
O14   O     O_2   0.261878 0.911759 0.179099 -0.569145
O15   O     O_2   0.738144 0.088179 0.820747 -0.569368
O16   O     O_2   0.724664 0.131633 0.227917 -0.517831
O17   O     O_2   0.275331 0.868378 0.772083 -0.517836
O18   O     O_3   0.031335 0.832514 0.317992 -0.760336
O19   O     O_3   0.968708 0.167462 0.681979 -0.760353
O20   O     O_2   0.887540 0.827500 0.013537 -0.568889
O21   O     O_2   0.112373 0.172507 0.986480 -0.568900
O22   O     O_2   0.197271 0.644765 0.219142 -0.567198
O23   O     O_R   0.617150 0.909540 0.438590 -0.615027
O24   O     O_2   0.803060 0.355398 0.780714 -0.567265
O25   O     O_3   0.180213 0.838084 0.412749 -0.758379
O26   O     O_3   0.819812 0.161889 0.587231 -0.758393
O27   O     O_2   0.890683 0.249005 0.422303 -0.528474
O28   O     O_2   0.109338 0.750988 0.577700 -0.528467
O29   O     O_2   0.087842 0.272775 0.289274 -0.562700
O30   O     O_2   0.912145 0.727230 0.710734 -0.562661
O31   O     O_R   0.382850 0.090460 0.561410 -0.615028
O32   O     O_R   0.619720 0.093230 0.440890 -0.635788
O33   O     O_R   0.380280 0.906770 0.559110 -0.635780
O34   O     O_R   0.618800 0.906770 0.559110 -0.633447
O35   O     O_R   0.381200 0.093230 0.440890 -0.633445
O36   O     O_R   0.087590 0.627480 0.058790 -0.630696
Zn1   Zn    Zn3+2 0.501730 0.123520 0.501540 1.032106
Zn2   Zn    Zn3+2 0.498270 0.876480 0.498460 1.032117
Zn3   Zn    Zn3+2 0.125690 0.504390 0.002180 1.012273
Zn4   Zn    Zn3+2 0.874310 0.495610 0.997820 1.012211

loop_
_geom_bond_atom_site_label_1
_geom_bond_atom_site_label_2
_ccdc_geom_bond_type
C39   O4    A    
C1    C21   S    
C9    H28   S    
C46   O10   S    
C7    C20   A    
C14   C18   S    
H8    O13   S    
C14   C31   S    
O34   Zn2   S    
C16   O32   A    
O33   Zn2   S    
C62   O22   D    
C65   O28   D    
C15   C32   S    
C13   C65   S    
C51   H32   S    
C15   C19   S    
C6    C19   A    
O35   Zn1   S    
C68   H26   S    
C62   C67   S    
C17   C26   S    
C35   C37   S    
C59   H13   S    
C9    C22   A    
C55   O14   D    
C11   C25   A    
C58   O16   D    
C33   C36   S    
C56   C57   S    
C68   O30   D    
C34   C35   A    
C32   C54   A    
C38   O5    A    
C3    C29   A    
C18   C40   A    
C61   H17   S    
C21   C43   A    
C28   C50   A    
C8    O26   S    
C22   C44   A    
C63   C69   S    
C23   C33   A    
C29   C38   S    
C45   C67   A    
C50   C52   A    
H20   O25   S    
H15   O19   S    
O7    Zn4   S    
O12   Zn2   S    
C14   C27   S    
O5    Zn3   S    
C1    O34   A    
C16   O23   A    
C1    O1    A    
C4    H4    S    
C44   C47   A    
C26   C48   A    
C40   C42   A    
C40   C66   S    
H6    O10   S    
C41   C43   A    
C57   H10   S    
C63   H19   S    
C39   O6    A    
H7    O11   S    
O6    Zn4   S    
C53   O11   S    
C23   C53   A    
C41   C68   S    
C12   O12   A    
O23   Zn2   S    
C23   C60   S    
C46   C48   A    
H21   O26   S    
C5    O18   S    
C3    C70   A    
C11   C64   S    
C58   H11   S    
O3    Zn4   S    
C5    C7    A    
C60   H16   S    
C2    C59   S    
C58   C70   S    
C6    C8    A    
C5    C18   A    
C49   C51   A    
C62   H18   S    
C10   C13   A    
C34   C61   S    
C47   H30   S    
O8    Zn3   S    
C2    C4    A    
C17   O33   A    
C52   H2    S    
O1    Zn1   S    
C55   H9    S    
H14   O18   S    
C54   O13   S    
C12   C20   S    
C8    C21   A    
C31   C53   A    
C60   O20   D    
C9    C11   A    
C45   C55   S    
C37   O8    A    
C27   C70   A    
C65   H24   S    
O31   Zn1   S    
C17   O31   A    
O2    Zn4   S    
C13   C26   A    
C64   H22   S    
O32   Zn1   S    
C33   C67   A    
O4    Zn3   S    
C57   O15   D    
C66   O29   D    
C29   C51   A    
C16   C25   S    
C30   C52   A    
C25   C47   A    
C15   C24   S    
C50   H27   S    
C59   O17   D    
O36   Zn3   S    
C7    O25   S    
C37   O2    A    
C20   C42   A    
C34   C54   A    
H5    O9    S    
C61   O21   D    
C10   C24   A    
C14   C22   S    
C38   O3    A    
C24   C46   A    
C15   C28   S    
C48   H31   S    
C42   H1    S    
C30   C39   S    
C10   H29   S    
C3    H3    S    
C63   O24   D    
C44   O9    S    
C27   C49   A    
C64   O27   D    
C35   C69   A    
C56   C69   A    
C31   C45   A    
C36   O7    A    
C43   H12   S    
C12   O35   A    
C2    C28   A    
C6    O19   S    
C49   H23   S    
C36   O36   A    
C32   C56   A    
C4    C30   A    
C19   C41   A    
C66   H25   S    
