data_mof_unit_47261.cif
_audit_creation_date              2012-12-11T21:34:28-0500
_audit_creation_method            fapswitch 2.2
_symmetry_space_group_name_H-M    P1
_symmetry_Int_Tables_number       1
_space_group_crystal_system       triclinic
_cell_length_a                    23.04663
_cell_length_b                    30.380191
_cell_length_c                    9.037596
_cell_angle_alpha                 89.391183
_cell_angle_beta                  94.262096
_cell_angle_gamma                 90.136946
_cell_volume                      6309.90873435

loop_
_atom_site_label
_atom_site_type_symbol
_atom_type_description
_atom_site_fract_x
_atom_site_fract_y
_atom_site_fract_z
_atom_type_partial_charge
Ba1   Ba    Ba6+2 0.999920 0.467660 0.844980 1.746600
Ba2   Ba    Ba6+2 0.999920 0.532340 0.344980 1.724721
Ba3   Ba    Ba6+2 0.499920 0.967660 0.844980 1.748532
Ba4   Ba    Ba6+2 0.499920 0.032340 0.344980 1.733729
C1    C     C_3   0.006695 0.248196 0.545066 -0.010227
C2    C     C_3   0.008250 0.747006 0.983185 0.089235
C3    C     C_3   0.506785 0.748331 0.544213 -0.010602
C4    C     C_3   0.507359 0.246606 0.980742 0.089060
C5    C     C_R   0.752004 0.329953 0.939003 -0.021250
C6    C     C_R   0.742859 0.668789 0.450467 0.008853
C7    C     C_R   0.251593 0.830171 0.938278 -0.021530
C8    C     C_R   0.243036 0.168707 0.448660 0.011716
C9    C     C_R   0.716222 0.334863 0.807864 -0.056379
C10   C     C_R   0.702410 0.664512 0.325754 -0.057603
C11   C     C_R   0.216249 0.834841 0.806293 -0.056123
C12   C     C_R   0.202726 0.164469 0.323838 -0.059246
C13   C     C_R   0.186724 0.799714 0.739224 -0.079498
C14   C     C_R   0.169005 0.199593 0.269153 -0.074835
C15   C     C_R   0.686650 0.299817 0.740438 -0.080482
C16   C     C_R   0.668930 0.699652 0.270334 -0.073610
C17   C     C_R   0.187072 0.757824 0.812647 -0.038791
C18   C     C_R   0.176716 0.241231 0.334683 -0.054233
C19   C     C_R   0.687169 0.257829 0.813208 -0.038621
C20   C     C_R   0.676688 0.741299 0.335654 -0.054512
C21   C     C_R   0.216260 0.754339 0.956049 0.047692
C22   C     C_R   0.208948 0.244264 0.472349 0.014932
C23   C     C_R   0.716499 0.254211 0.956405 0.048543
C24   C     C_R   0.708799 0.744330 0.473562 0.015352
C25   C     C_R   0.160309 0.719548 0.747990 0.134965
C26   C     C_R   0.154504 0.279960 0.263608 0.102672
C27   C     C_R   0.660385 0.219612 0.748210 0.133259
C28   C     C_R   0.654548 0.780017 0.264327 0.103816
C29   C     C_R   0.148533 0.681753 0.836817 0.000742
C30   C     C_R   0.145113 0.318103 0.348299 0.038482
C31   C     C_R   0.648727 0.181715 0.836639 0.001796
C32   C     C_R   0.645064 0.818158 0.348871 0.038894
C33   C     C_R   0.176154 0.679058 0.983020 -0.018112
C34   C     C_R   0.172199 0.320012 0.495154 -0.007379
C35   C     C_R   0.676229 0.178996 0.983077 -0.017132
C36   C     C_R   0.672067 0.820078 0.495821 -0.008603
C37   C     C_R   0.211507 0.715178 0.039300 0.038278
C38   C     C_R   0.206718 0.283446 0.552711 -0.000095
C39   C     C_R   0.711606 0.215081 0.039597 0.038151
C40   C     C_R   0.706548 0.783531 0.553688 -0.000107
C41   C     C_R   0.110686 0.646490 0.785137 -0.029190
C42   C     C_R   0.109660 0.353986 0.292119 -0.024775
C43   C     C_R   0.611288 0.146298 0.784123 -0.025737
C44   C     C_R   0.609614 0.854033 0.292483 -0.025021
C45   C     C_3   0.984450 0.297895 0.091077 0.254221
C46   C     C_3   0.983785 0.702204 0.554857 0.302046
C47   C     C_3   0.484305 0.798198 0.090212 0.254435
C48   C     C_3   0.483909 0.202096 0.552488 0.302860
C49   C     C_R   0.100167 0.611051 0.883071 -0.281829
C50   C     C_R   0.100520 0.389665 0.386360 -0.291790
C51   C     C_R   0.601417 0.110483 0.880980 -0.298671
C52   C     C_R   0.600345 0.889690 0.386667 -0.291743
C53   C     C_R   0.130609 0.605166 0.023852 0.062176
C54   C     C_R   0.129584 0.394596 0.528960 0.071149
C55   C     C_R   0.630910 0.104995 0.023190 0.060817
C56   C     C_R   0.629431 0.894629 0.529206 0.071669
C57   C     C_R   0.171868 0.639417 0.070268 -0.049683
C58   C     C_R   0.169226 0.359454 0.579698 -0.070159
C59   C     C_R   0.671790 0.139396 0.070428 -0.046815
C60   C     C_R   0.669059 0.859526 0.580166 -0.071615
C61   C     C_R   0.782749 0.286759 0.155759 0.028759
C62   C     C_R   0.775783 0.710234 0.667566 0.035955
C63   C     C_R   0.282365 0.787007 0.155375 0.027842
C64   C     C_R   0.275983 0.210150 0.666016 0.035740
C65   C     C_R   0.820660 0.321922 0.209184 0.007906
C66   C     C_R   0.813540 0.674554 0.718419 -0.005847
C67   C     C_R   0.320206 0.822196 0.208758 0.010371
C68   C     C_R   0.313712 0.174479 0.716630 -0.009802
C69   C     C_R   0.826363 0.360927 0.120453 -0.128082
C70   C     C_R   0.820573 0.636587 0.626432 -0.072824
C71   C     C_R   0.325791 0.861266 0.120025 -0.124529
C72   C     C_R   0.320620 0.136664 0.624324 -0.090337
C73   C     C_R   0.784662 0.365892 0.998073 -0.040695
C74   C     C_R   0.780382 0.633688 0.498402 -0.013385
C75   C     C_R   0.284079 0.866257 0.997111 -0.042419
C76   C     C_R   0.280227 0.133502 0.497134 -0.008224
C77   C     C_R   0.209233 0.636314 0.201528 -0.031586
C78   C     C_R   0.207576 0.362223 0.709417 0.019553
C79   C     C_R   0.708875 0.136359 0.202253 -0.031118
C80   C     C_R   0.707374 0.862358 0.709926 0.020342
C81   C     C_R   0.236512 0.673902 0.264495 0.024942
C82   C     C_R   0.234984 0.324174 0.773829 0.004663
C83   C     C_R   0.736168 0.173934 0.265260 0.024371
C84   C     C_R   0.734754 0.824344 0.774611 0.004837
C85   C     C_R   0.240340 0.712931 0.182349 0.041208
C86   C     C_R   0.236922 0.285129 0.693469 0.007457
C87   C     C_R   0.740310 0.212857 0.182855 0.040916
C88   C     C_R   0.736707 0.785260 0.694497 0.007137
C89   C     C_3   0.957234 0.250955 0.048343 -0.224179
C90   C     C_3   0.967380 0.751563 0.520189 -0.226179
C91   C     C_3   0.457169 0.751196 0.047912 -0.224278
C92   C     C_3   0.467501 0.251479 0.518110 -0.226436
C93   C     C_R   0.775208 0.248629 0.242201 0.071461
C94   C     C_R   0.770642 0.748620 0.753150 0.012650
C95   C     C_R   0.275095 0.748768 0.241672 0.070391
C96   C     C_R   0.270842 0.248459 0.751883 0.011824
C97   C     C_R   0.263381 0.671537 0.407346 -0.023699
C98   C     C_R   0.263605 0.325613 0.915207 -0.035041
C99   C     C_R   0.762865 0.171613 0.408330 -0.022616
C100  C     C_R   0.763421 0.825888 0.915905 -0.035342
C101  C     C_R   0.794648 0.206470 0.471064 -0.089619
C102  C     C_R   0.793786 0.790006 0.979770 -0.112233
C103  C     C_R   0.294912 0.706481 0.470232 -0.089246
C104  C     C_R   0.293831 0.289645 0.978984 -0.112016
C105  C     C_R   0.801320 0.246397 0.389101 -0.003094
C106  C     C_R   0.797534 0.749989 0.898905 -0.051839
C107  C     C_R   0.301330 0.746478 0.388445 -0.002581
C108  C     C_R   0.297660 0.249692 0.897732 -0.055080
C109  C     C_R   0.847283 0.319931 0.356590 0.060508
C110  C     C_R   0.841257 0.676337 0.864193 0.034867
C111  C     C_R   0.347056 0.820063 0.356103 0.064893
C112  C     C_R   0.341411 0.176002 0.862535 0.050084
C113  C     C_R   0.830636 0.284449 0.449873 0.102252
C114  C     C_R   0.825384 0.711142 0.958581 0.106567
C115  C     C_R   0.330581 0.784516 0.449273 0.104001
C116  C     C_R   0.325450 0.210764 0.957171 0.112658
C117  C     C_R   0.887577 0.354220 0.406238 -0.030845
C118  C     C_R   0.882639 0.642808 0.912164 0.104989
C119  C     C_R   0.387224 0.854365 0.406162 -0.032591
C120  C     C_R   0.382662 0.142212 0.910262 0.057965
C121  C     C_R   0.902202 0.387652 0.302256 -0.084211
C122  C     C_R   0.896224 0.609109 0.812344 -0.126801
C123  C     C_R   0.401537 0.887955 0.302604 -0.092653
C124  C     C_R   0.395696 0.108439 0.808968 -0.125585
C125  C     C_R   0.870386 0.393890 0.162438 0.066208
C126  C     C_R   0.865589 0.603660 0.669091 -0.006483
C127  C     C_R   0.370000 0.894041 0.162243 0.063171
C128  C     C_R   0.365540 0.103871 0.666406 0.030011
C129  C     C_3   0.197426 0.478607 0.170951 0.412123
C130  C     C_3   0.195846 0.522085 0.665327 0.326502
C131  C     C_3   0.697502 0.978554 0.170874 0.414431
C132  C     C_3   0.696210 0.021970 0.665451 0.326524
C133  C     C_3   0.264590 0.470211 0.169711 -0.056769
C134  C     C_3   0.261279 0.535530 0.647262 -0.135223
C135  C     C_3   0.764645 0.970211 0.168637 -0.057395
C136  C     C_3   0.761502 0.035347 0.645401 -0.134124
C137  C     C_3   0.804892 0.520875 0.993994 0.433395
C138  C     C_3   0.818526 0.473922 0.512827 0.327747
C139  C     C_3   0.306071 0.021284 0.997122 0.436108
C140  C     C_3   0.318913 0.974245 0.509002 0.330178
C141  C     C_3   0.739813 0.537784 0.009547 -0.016756
C142  C     C_3   0.756032 0.450692 0.507011 -0.039904
C143  C     C_3   0.240210 0.037709 0.003667 -0.022649
C144  C     C_3   0.256874 0.950008 0.501534 -0.046037
C145  C     C_3   0.007990 0.295971 0.603571 0.339793
C146  C     C_3   0.008280 0.700993 0.061304 0.363118
C147  C     C_3   0.508059 0.796074 0.602902 0.340572
C148  C     C_3   0.507569 0.200675 0.059388 0.382346
C149  C     C_R   0.751705 0.289805 0.015429 0.028471
C150  C     C_R   0.743108 0.707978 0.530144 0.062463
C151  C     C_R   0.251293 0.790039 0.015069 0.028566
C152  C     C_R   0.243323 0.207918 0.528528 0.062510
H1    H     H_    0.277106 0.482404 0.060600 0.119542
H2    H     H_    0.267828 0.535154 0.527269 0.114246
H3    H     H_    0.776876 0.982389 0.059181 0.119022
H4    H     H_    0.767441 0.035006 0.525126 0.115536
H5    H     H_    0.837088 0.544232 0.047653 0.049968
H6    H     H_    0.847453 0.457792 0.601158 0.098788
H7    H     H_    0.336542 0.044188 0.059241 0.050722
H8    H     H_    0.349004 0.957080 0.592451 0.088446
H9    H     H_    0.015790 0.318372 0.510370 -0.056394
H10   H     H_    0.010801 0.676291 0.972344 -0.088888
H11   H     H_    0.515834 0.818560 0.509854 -0.057023
H12   H     H_    0.510182 0.175934 0.970516 -0.113099
H13   H     H_    0.971610 0.247239 0.455107 0.119665
H14   H     H_    0.034552 0.743331 0.886527 0.047220
H15   H     H_    0.471630 0.747392 0.454447 0.119680
H16   H     H_    0.533467 0.242813 0.883815 0.047672
H17   H     H_    0.712189 0.366363 0.752173 0.126920
H18   H     H_    0.694509 0.633217 0.272111 0.122635
H19   H     H_    0.212640 0.866199 0.749463 0.125438
H20   H     H_    0.195065 0.133218 0.269789 0.125033
H21   H     H_    0.070033 0.585824 0.844235 0.082970
H22   H     H_    0.073065 0.415888 0.341894 0.095028
H23   H     H_    0.572576 0.084684 0.839814 0.086713
H24   H     H_    0.572839 0.915899 0.342213 0.093088
H25   H     H_    0.258940 0.641882 0.472981 0.063706
H26   H     H_    0.259413 0.354345 0.982485 0.140676
H27   H     H_    0.758132 0.142043 0.474168 0.065224
H28   H     H_    0.759231 0.854665 0.982934 0.140431
H29   H     H_    0.955551 0.324449 0.042329 0.080708
H30   H     H_    0.956174 0.680435 0.480034 0.120303
H31   H     H_    0.455724 0.824688 0.039743 0.082082
H32   H     H_    0.456663 0.180413 0.476509 0.121399
O1    O     O_2   0.885810 0.435270 0.885040 -0.436197
O2    O     O_2   0.885810 0.564730 0.385040 -0.416264
O3    O     O_2   0.385810 0.935270 0.885040 -0.427723
O4    O     O_2   0.385810 0.064730 0.385040 -0.419699
O5    O     O_3   0.188893 0.477112 0.632475 -0.620686
O6    O     O_3   0.188622 0.523321 0.134464 -0.617314
O7    O     O_3   0.688886 0.977104 0.631228 -0.620932
O8    O     O_3   0.688624 0.023297 0.134799 -0.615678
O9    O     O_3   0.040429 0.304507 0.038071 -0.602411
O10   O     O_3   0.042740 0.695827 0.527843 -0.596490
O11   O     O_3   0.540606 0.804512 0.038847 -0.602839
O12   O     O_3   0.543043 0.195839 0.527128 -0.597984
O13   O     O_3   0.066460 0.522600 0.056690 -0.440408
O14   O     O_3   0.066460 0.477400 0.556690 -0.443381
O15   O     O_3   0.566460 0.022600 0.056690 -0.443444
O16   O     O_3   0.566460 0.977400 0.556690 -0.443813
O17   O     O_3   0.933490 0.477290 0.133000 -0.471417
O18   O     O_3   0.933490 0.522710 0.633000 -0.513358
O19   O     O_3   0.433490 0.977290 0.133000 -0.472302
O20   O     O_3   0.433490 0.022710 0.633000 -0.473694
O21   O     O_3   0.980190 0.395350 0.639000 -0.455977
O22   O     O_3   0.980190 0.604650 0.139000 -0.427918
O23   O     O_3   0.480190 0.895350 0.639000 -0.455904
O24   O     O_3   0.480190 0.104650 0.139000 -0.460043
O25   O     O_2   0.881980 0.365800 0.719031 -0.458580
O26   O     O_2   0.885694 0.636966 0.230193 -0.371733
O27   O     O_2   0.382267 0.865600 0.719836 -0.458949
O28   O     O_2   0.384981 0.136367 0.228066 -0.368081
O29   O     O_3   0.812757 0.479510 0.064332 -0.650454
O30   O     O_3   0.814257 0.518547 0.547589 -0.653042
O31   O     O_3   0.312609 0.979297 0.062787 -0.647107
O32   O     O_3   0.314518 0.018111 0.552777 -0.648320
O33   O     O_3   0.955574 0.305462 0.668140 -0.629328
O34   O     O_3   0.958087 0.695156 0.141075 -0.611637
O35   O     O_3   0.455615 0.805439 0.667400 -0.629213
O36   O     O_3   0.457372 0.194776 0.139243 -0.607154
O37   O     O_2   0.113920 0.434910 0.804950 -0.375850
O38   O     O_2   0.113920 0.565090 0.304950 -0.410634
O39   O     O_2   0.613920 0.934910 0.804950 -0.375018
O40   O     O_2   0.613920 0.065090 0.304950 -0.409875
O41   O     O_3   0.019410 0.395290 0.051170 -0.460581
O42   O     O_3   0.019410 0.604710 0.551170 -0.486047
O43   O     O_3   0.519410 0.895290 0.051170 -0.461778
O44   O     O_3   0.519410 0.104710 0.551170 -0.469888
O45   O     O_2   0.119428 0.362847 0.987534 -0.406137
O46   O     O_2   0.118324 0.637208 0.478846 -0.416334
O47   O     O_2   0.619536 0.862815 0.987750 -0.406409
O48   O     O_2   0.618319 0.137064 0.477483 -0.417035
P1    P     P_3+3 0.880180 0.450420 0.058010 1.021363
P2    P     P_3+3 0.880180 0.549580 0.558010 0.979346
P3    P     P_3+3 0.380180 0.950420 0.058010 1.030446
P4    P     P_3+3 0.380180 0.049580 0.558010 1.020565
P5    P     P_3+3 0.119600 0.450040 0.631910 1.154090
P6    P     P_3+3 0.119600 0.549960 0.131910 1.130963
P7    P     P_3+3 0.619600 0.950040 0.631910 1.154761
P8    P     P_3+3 0.619600 0.049960 0.131910 1.127691
P9    P     P_3+3 0.072111 0.355180 0.097448 1.006136
P10   P     P_3+3 0.072280 0.644983 0.591482 1.003776
P11   P     P_3+3 0.572207 0.855238 0.097700 1.005325
P12   P     P_3+3 0.572502 0.144941 0.590690 1.010329
P13   P     P_3+3 0.925424 0.643702 0.101487 1.076419
P14   P     P_3+3 0.925758 0.355884 0.602362 0.962939
P15   P     P_3+3 0.425030 0.143181 0.099970 1.043476
P16   P     P_3+3 0.425733 0.855886 0.602245 0.960784
C153  C     C_2   0.057740 0.304206 0.713876 0.567889
H33   H     H_    0.084235 0.277992 0.764851 -0.046164
O49   O     O_2   0.069029 0.342051 0.746398 -0.533360
C154  C     C_2   0.061222 0.693251 0.164374 0.487423
H34   H     H_    0.096204 0.716969 0.179390 -0.073417
O50   O     O_2   0.065976 0.658535 0.231789 -0.517932
C155  C     C_2   0.557736 0.804263 0.713495 0.566624
H35   H     H_    0.584394 0.778046 0.763872 -0.046569
O51   O     O_2   0.568785 0.842074 0.746933 -0.532583
C156  C     C_2   0.560610 0.193159 0.162415 0.488868
H36   H     H_    0.595614 0.216891 0.176391 -0.076475
O52   O     O_2   0.565485 0.158618 0.230830 -0.517418
N1    N     N_3   0.297517 0.495955 0.283688 -0.459538
H37   H     H_    0.299352 0.478780 0.384739 0.172893
H38   H     H_    0.340480 0.498914 0.254679 0.227210
N2    N     N_3   0.303511 0.505288 0.721816 -0.426808
H39   H     H_    0.309520 0.478345 0.654323 0.206994
H40   H     H_    0.289296 0.494605 0.822657 0.211349
N3    N     N_3   0.797776 0.996012 0.282066 -0.458225
H41   H     H_    0.799843 0.978858 0.383158 0.172868
H42   H     H_    0.840655 0.998985 0.252421 0.227317
N4    N     N_3   0.804006 0.005023 0.718506 -0.427882
H43   H     H_    0.809590 0.978073 0.650757 0.206652
H44   H     H_    0.790476 0.994383 0.820158 0.210333
C157  C     C_2   0.283725 0.422526 0.181160 0.434434
H45   H     H_    0.315492 0.410908 0.108011 0.106004
O53   O     O_2   0.266777 0.397618 0.275787 -0.608238
C158  C     C_2   0.276989 0.581488 0.698567 0.555443
H46   H     H_    0.245404 0.602728 0.745283 -0.026559
O54   O     O_2   0.326256 0.595369 0.687577 -0.486057
C159  C     C_2   0.783911 0.922561 0.180022 0.434081
H47   H     H_    0.815802 0.911047 0.107042 0.105931
O55   O     O_2   0.766983 0.897587 0.274486 -0.608447
C160  C     C_2   0.777590 0.081234 0.696641 0.553027
H48   H     H_    0.746582 0.102283 0.746417 -0.023588
O56   O     O_2   0.826611 0.095214 0.682650 -0.488077
N5    N     N_3   0.813501 0.517047 0.838360 -0.431106
H49   H     H_    0.802729 0.547487 0.790156 0.106456
H50   H     H_    0.857180 0.511212 0.826918 0.163943
N6    N     N_3   0.845138 0.470033 0.374297 -0.510030
H51   H     H_    0.824552 0.444579 0.317415 0.075151
H52   H     H_    0.836798 0.498241 0.310719 0.221456
N7    N     N_3   0.319510 0.019041 0.844258 -0.426108
H53   H     H_    0.307045 0.049107 0.796256 0.103241
H54   H     H_    0.364253 0.015867 0.841261 0.168578
N8    N     N_3   0.344130 0.973563 0.368328 -0.496463
H55   H     H_    0.327144 0.946345 0.314699 0.070830
H56   H     H_    0.328913 0.000773 0.306872 0.216090
C161  C     C_2   0.696669 0.519493 0.891796 0.630961
H57   H     H_    0.687887 0.537614 0.788602 -0.089348
O57   O     O_2   0.668950 0.486001 0.913163 -0.519139
C162  C     C_2   0.718131 0.456930 0.363023 0.574742
H58   H     H_    0.733031 0.445662 0.259825 0.017223
O58   O     O_2   0.668659 0.471494 0.361739 -0.531863
C163  C     C_2   0.200838 0.022191 0.873876 0.626892
H59   H     H_    0.198750 0.041195 0.771399 -0.092157
O59   O     O_2   0.168644 0.990469 0.884533 -0.520756
C164  C     C_2   0.219756 0.954952 0.355659 0.564540
H60   H     H_    0.236208 0.944202 0.253656 0.013157
O60   O     O_2   0.169260 0.967487 0.351745 -0.532224
C165  C     C_2   0.734151 0.587263 0.994074 0.371254
H61   H     H_    0.691302 0.602167 0.984795 0.085841
O61   O     O_2   0.776412 0.611067 0.993862 -0.581070
C166  C     C_2   0.764939 0.401551 0.528805 0.362671
H62   H     H_    0.790589 0.389608 0.624524 0.113536
O62   O     O_2   0.743302 0.374625 0.441388 -0.613107
C167  C     C_2   0.234537 0.087309 0.999270 0.371915
H63   H     H_    0.191677 0.102094 0.995157 0.087305
O63   O     O_2   0.276706 0.111284 0.000322 -0.578838
C168  C     C_2   0.266627 0.901072 0.526102 0.359072
H64   H     H_    0.292204 0.889830 0.622740 0.115220
O64   O     O_2   0.245049 0.873516 0.440960 -0.612050
N9    N     N_3   0.719269 0.524439 0.151862 -0.445766
H65   H     H_    0.684898 0.544199 0.181698 0.202553
H66   H     H_    0.752788 0.526044 0.234190 0.192795
N10   N     N_3   0.723881 0.467517 0.627532 -0.403841
H67   H     H_    0.711615 0.499914 0.601353 0.211290
H68   H     H_    0.685571 0.449316 0.636119 0.251373
N11   N     N_3   0.215309 0.021269 0.137163 -0.447446
H69   H     H_    0.175756 0.036882 0.152748 0.210754
H70   H     H_    0.243262 0.027415 0.229226 0.188293
N12   N     N_3   0.223341 0.966683 0.619511 -0.397981
H71   H     H_    0.208847 0.998247 0.588753 0.213767
H72   H     H_    0.186136 0.947260 0.629119 0.254899
N13   N     N_3   0.948409 0.417831 0.341261 -0.445871
H73   H     H_    0.938523 0.436494 0.432017 0.204738
H74   H     H_    0.985414 0.399745 0.371643 0.126621
N14   N     N_3   0.944774 0.581746 0.858991 -0.504988
H75   H     H_    0.931487 0.550173 0.886095 0.175184
H76   H     H_    0.974373 0.581462 0.777761 0.184439
N15   N     N_3   0.446992 0.918615 0.342918 -0.446075
H77   H     H_    0.436397 0.936814 0.434141 0.198422
H78   H     H_    0.484534 0.901000 0.372205 0.130209
N16   N     N_3   0.441156 0.077820 0.850588 -0.470002
H79   H     H_    0.431415 0.060796 0.946532 0.167993
H80   H     H_    0.479802 0.095226 0.870328 0.141383
N17   N     N_3   0.062167 0.236318 0.487169 -0.550722
H81   H     H_    0.056606 0.206550 0.431085 0.184346
H82   H     H_    0.092913 0.229918 0.575628 0.190620
N18   N     N_3   0.035160 0.782032 0.076075 -0.472047
H83   H     H_    0.080147 0.781577 0.066995 0.144842
H84   H     H_    0.021852 0.812758 0.032948 0.245337
N19   N     N_3   0.562199 0.736532 0.485939 -0.550872
H85   H     H_    0.556661 0.706738 0.430019 0.184113
H86   H     H_    0.593019 0.730175 0.574265 0.190534
N20   N     N_3   0.534440 0.281744 0.072833 -0.472988
H87   H     H_    0.579380 0.281322 0.062982 0.144918
H88   H     H_    0.520967 0.312416 0.029558 0.245864
N21   N     N_3   0.832890 0.291110 0.606296 -0.466104
H89   H     H_    0.792312 0.284124 0.644801 0.176974
H90   H     H_    0.863837 0.270352 0.658199 0.186639
N22   N     N_3   0.826533 0.702783 0.114472 -0.422831
H91   H     H_    0.785426 0.708468 0.151850 0.185722
H92   H     H_    0.858311 0.722020 0.170399 0.228869
N23   N     N_3   0.332927 0.791102 0.605759 -0.465858
H93   H     H_    0.292396 0.784050 0.644415 0.177537
H94   H     H_    0.363946 0.770366 0.657495 0.186520
N24   N     N_3   0.326290 0.202280 0.112910 -0.419449
H95   H     H_    0.285094 0.207941 0.149762 0.184687
H96   H     H_    0.357954 0.221487 0.169370 0.230096
C169  C     C_2   0.945410 0.223212 0.184658 0.623949
H97   H     H_    0.981485 0.207345 0.247440 -0.026024
O65   O     O_2   0.896443 0.216827 0.222797 -0.567766
C170  C     C_2   0.003345 0.782338 0.620257 0.447157
H98   H     H_    0.045597 0.772030 0.668279 0.035089
O66   O     O_2   0.988397 0.820477 0.636183 -0.517443
C171  C     C_2   0.445630 0.723475 0.184422 0.623572
H99   H     H_    0.481804 0.707586 0.246704 -0.026168
O67   O     O_2   0.396757 0.717129 0.223266 -0.568686
C172  C     C_2   0.503256 0.282213 0.618793 0.446124
H100  H     H_    0.545489 0.271939 0.667012 0.035029
O68   O     O_2   0.488177 0.320306 0.635041 -0.517509
C173  C     C_2   0.156315 0.810668 0.593628 0.514265
H101  H     H_    0.171150 0.797230 0.492393 0.005658
O69   O     O_2   0.117327 0.837902 0.584712 -0.505698
C174  C     C_2   0.118796 0.190153 0.163172 0.518469
H102  H     H_    0.080358 0.210218 0.165754 -0.040647
O70   O     O_2   0.119219 0.159741 0.076118 -0.562236
C175  C     C_2   0.655940 0.310973 0.595394 0.513815
H103  H     H_    0.670536 0.297680 0.493685 0.005786
O71   O     O_2   0.617001 0.338248 0.587455 -0.505409
C176  C     C_2   0.619029 0.690239 0.163287 0.518776
H104  H     H_    0.580588 0.710351 0.164772 -0.040085
O72   O     O_2   0.619717 0.659775 0.076482 -0.561777
N25   N     N_3   0.156456 0.715653 0.590256 -0.446253
H105  H     H_    0.195706 0.725555 0.551334 0.161894
H106  H     H_    0.124401 0.736398 0.543260 0.174144
N26   N     N_3   0.157489 0.283790 0.105934 -0.452498
H107  H     H_    0.126585 0.264113 0.049548 0.187985
H108  H     H_    0.197388 0.271333 0.080033 0.150111
N27   N     N_3   0.656447 0.215880 0.590416 -0.447019
H109  H     H_    0.695614 0.225973 0.551488 0.161438
H110  H     H_    0.624351 0.236663 0.543900 0.173967
N28   N     N_3   0.657781 0.783854 0.106728 -0.452707
H111  H     H_    0.626839 0.764292 0.049981 0.188480
H112  H     H_    0.697648 0.771247 0.081208 0.149997
C177  C     C_2   0.759672 0.408733 0.962573 0.532419
H113  H     H_    0.727727 0.422231 0.030723 0.071003
O73   O     O_2   0.772096 0.427992 0.851477 -0.560609
C178  C     C_2   0.772649 0.594131 0.412231 0.503557
H114  H     H_    0.745019 0.568030 0.449385 -0.017299
O74   O     O_2   0.789381 0.594066 0.287958 -0.539989
C179  C     C_2   0.259315 0.909205 0.958381 0.529885
H115  H     H_    0.225907 0.922727 0.022211 0.068780
O75   O     O_2   0.272903 0.928308 0.847888 -0.558450
C180  C     C_2   0.271495 0.093246 0.414743 0.493678
H116  H     H_    0.243986 0.067544 0.455189 -0.019713
O76   O     O_2   0.288353 0.091719 0.290871 -0.546115
C181  C     C_2   0.238546 0.594833 0.242459 0.566149
H117  H     H_    0.226979 0.576453 0.338851 -0.008077
O77   O     O_2   0.278536 0.582507 0.171889 -0.524906
C182  C     C_2   0.239875 0.403225 0.733682 0.503005
H118  H     H_    0.261616 0.416892 0.641679 0.009175
O78   O     O_2   0.242877 0.421516 0.853075 -0.630731
C183  C     C_2   0.738082 0.094897 0.243850 0.565390
H119  H     H_    0.726104 0.076509 0.339797 -0.006454
O79   O     O_2   0.778441 0.082631 0.174477 -0.525250
C184  C     C_2   0.739797 0.903320 0.733685 0.502125
H120  H     H_    0.761666 0.916777 0.641598 0.008792
O80   O     O_2   0.742749 0.921796 0.852743 -0.631015
N29   N     N_3   0.992084 0.216025 0.656336 -0.466059
H121  H     H_    0.986903 0.185326 0.605631 0.227145
H122  H     H_    0.951464 0.224311 0.690498 0.197117
N30   N     N_3   0.948710 0.759230 0.929869 -0.500426
H123  H     H_    0.949463 0.788724 0.870056 0.209139
H124  H     H_    0.924810 0.765841 0.020416 0.259373
N31   N     N_3   0.492315 0.716101 0.655466 -0.466085
H125  H     H_    0.487233 0.685403 0.604714 0.226803
H126  H     H_    0.451663 0.724290 0.689664 0.197374
N32   N     N_3   0.447743 0.258764 0.928012 -0.500026
H127  H     H_    0.448386 0.288082 0.867200 0.208108
H128  H     H_    0.424150 0.265686 0.018855 0.259279
C185  C     C_2   0.821028 0.197203 0.620729 0.575353
H129  H     H_    0.867570 0.196282 0.640274 0.037674
O81   O     O_2   0.790451 0.187946 0.721247 -0.527240
C186  C     C_2   0.818981 0.797570 0.132463 0.533859
H130  H     H_    0.803994 0.779023 0.225247 0.041474
O82   O     O_2   0.853561 0.827554 0.156993 -0.497275
C187  C     C_2   0.321242 0.697247 0.619972 0.573722
H131  H     H_    0.367780 0.696183 0.639567 0.037726
O83   O     O_2   0.290595 0.688196 0.720538 -0.526386
C188  C     C_2   0.318705 0.297052 0.132087 0.532655
H132  H     H_    0.303583 0.278350 0.224358 0.040592
O84   O     O_2   0.353097 0.327103 0.157569 -0.496936
N33   N     N_3   0.987463 0.302265 0.250922 -0.553633
H133  H     H_    0.027023 0.288560 0.290550 0.174590
H134  H     H_    0.988800 0.335344 0.276667 0.121999
N34   N     N_3   0.973868 0.692188 0.709074 -0.531474
H135  H     H_    0.976676 0.658462 0.726436 0.138068
H136  H     H_    0.931023 0.699850 0.726104 0.137644
N35   N     N_3   0.486560 0.802991 0.249921 -0.552980
H137  H     H_    0.525902 0.789202 0.290821 0.173733
H138  H     H_    0.488108 0.836141 0.275027 0.122525
N36   N     N_3   0.473362 0.191764 0.706083 -0.531354
H139  H     H_    0.475546 0.157960 0.721765 0.137750
H140  H     H_    0.430571 0.199695 0.722695 0.139422
C189  C     C_2   0.900842 0.257273 0.952828 0.494250
H141  H     H_    0.887874 0.289381 0.908699 0.013907
O85   O     O_2   0.868756 0.226063 0.923709 -0.493712
C190  C     C_2   0.902779 0.758648 0.535353 0.521482
H142  H     H_    0.887812 0.780477 0.618878 0.044912
O86   O     O_2   0.866679 0.739012 0.455288 -0.605892
C191  C     C_2   0.400626 0.757374 0.952860 0.495262
H143  H     H_    0.387402 0.789457 0.908992 0.012975
O87   O     O_2   0.368691 0.726068 0.923856 -0.492736
C192  C     C_2   0.402838 0.258520 0.532539 0.521887
H144  H     H_    0.387676 0.280596 0.615088 0.045728
O88   O     O_2   0.366897 0.238621 0.452820 -0.606297
C193  C     C_2   0.997369 0.222700 0.964976 0.483747
H145  H     H_    0.036246 0.235827 0.921833 0.048454
O89   O     O_2   0.986657 0.183645 0.944638 -0.489348
C194  C     C_2   0.982809 0.764261 0.367546 0.646232
H146  H     H_    0.026406 0.757765 0.336997 0.001165
O90   O     O_2   0.949139 0.784758 0.282412 -0.514179
C195  C     C_2   0.497263 0.722975 0.964266 0.482968
H147  H     H_    0.536102 0.736125 0.920990 0.048678
O91   O     O_2   0.486585 0.683913 0.943975 -0.489701
C196  C     C_2   0.483168 0.264296 0.365748 0.644221
H148  H     H_    0.526853 0.257908 0.335568 -0.000456
O92   O     O_2   0.449550 0.284771 0.280414 -0.513976
C197  C     C_2   0.177810 0.469124 0.317926 0.399069
H149  H     H_    0.203989 0.449636 0.397771 0.010115
O93   O     O_2   0.129351 0.480617 0.342672 -0.591687
C198  C     C_2   0.180822 0.529568 0.817572 0.415444
H150  H     H_    0.210821 0.545501 0.897696 -0.009643
O94   O     O_2   0.132493 0.519136 0.848321 -0.588352
C199  C     C_2   0.678150 0.969027 0.318012 0.397584
H151  H     H_    0.704337 0.949362 0.397341 0.010777
O95   O     O_2   0.629817 0.980661 0.343375 -0.591404
C200  C     C_2   0.682275 0.028926 0.818786 0.417718
H152  H     H_    0.712700 0.044684 0.898365 -0.008187
O96   O     O_2   0.634309 0.018187 0.851300 -0.584709
N37   N     N_3   0.166023 0.450999 0.061866 -0.401425
H153  H     H_    0.121364 0.452983 0.073859 0.213830
H154  H     H_    0.177345 0.418483 0.086477 0.167311
N38   N     N_3   0.158606 0.548481 0.563056 -0.426209
H155  H     H_    0.115472 0.547954 0.591303 0.223700
H156  H     H_    0.172431 0.580865 0.573947 0.098431
N39   N     N_3   0.665916 0.950936 0.062149 -0.399452
H157  H     H_    0.621289 0.952880 0.074667 0.213744
H158  H     H_    0.677352 0.918433 0.086592 0.166839
N40   N     N_3   0.658485 0.048832 0.565657 -0.425912
H159  H     H_    0.615407 0.047504 0.594049 0.223170
H160  H     H_    0.671632 0.081248 0.580664 0.094798

loop_
_geom_bond_atom_site_label_1
_geom_bond_atom_site_label_2
_ccdc_geom_bond_type
C97   C103  A    
C168  O64   D    
C183  H119  S    
C129  C133  S    
C51   C55   A    
C29   C41   A    
N33   H133  S    
C138  C142  S    
Ba2   O14   S    
C132  C136  S    
C25   N25   S    
C106  C114  A    
N13   H73   S    
C46   O10   S    
C92   C172  S    
C189  H141  S    
C9    H17   S    
C76   C180  S    
C85   C95   A    
C47   H31   S    
C99   H27   S    
Ba4   O44   S    
N27   H110  S    
C120  P15   S    
C83   C87   A    
C144  C168  S    
N25   H106  S    
C132  N40   S    
C52   C56   A    
C131  C199  S    
N3    H41   S    
C25   C29   A    
C1    C145  S    
N4    H43   S    
O31   P3    S    
C5    C9    A    
C60   C80   A    
O36   P15   S    
C2    N30   S    
C200  H152  S    
C7    C11   A    
C8    C12   A    
C141  C161  S    
C129  O6    S    
C199  O95   D    
C66   C70   A    
O22   P13   S    
O42   P10   S    
C137  C141  S    
C134  C158  S    
O4    P4    D    
O1    P1    D    
C140  H8    S    
C138  N6    S    
Ba3   O16   S    
C6    C150  A    
Ba1   O14   S    
C139  H7    S    
C200  O96   D    
C111  C119  A    
C132  C200  S    
N35   H137  S    
C98   H26   S    
C80   C84   A    
N14   H75   S    
C132  O7    S    
C82   C86   A    
C21   C37   A    
C108  C116  A    
C161  H57   S    
C17   C25   A    
C24   C40   A    
C31   C43   A    
C50   H22   S    
C166  H62   S    
C19   C27   A    
C15   C19   A    
C20   C28   A    
C53   P6    S    
C191  O87   D    
N19   H85   S    
O40   P8    D    
C64   C68   A    
N18   H83   S    
O18   P2    S    
C78   C182  S    
C158  H46   S    
O24   P15   S    
C7    C75   A    
C83   C99   A    
N10   H68   S    
N34   H136  S    
C197  O93   D    
C75   C179  S    
N28   H112  S    
N8    H55   S    
O30   P2    S    
O16   P7    S    
C26   N26   S    
N30   H123  S    
Ba2   O38   S    
C16   C176  S    
C135  H3    S    
C68   C112  A    
C56   P7    S    
C125  P1    S    
O43   P11   S    
Ba2   O2    S    
C155  O51   D    
C49   H21   S    
C41   P10   S    
C35   C39   A    
C53   C57   A    
C55   C59   A    
C56   C60   A    
Ba1   P1    S    
C186  H130  S    
N6    H52   S    
C5    C73   A    
C160  O56   D    
O45   P9    D    
C62   C66   A    
C147  H11   S    
O9    P9    S    
C185  H129  S    
C184  O80   D    
C176  H104  S    
C13   C173  S    
O5    P5    S    
C121  C125  A    
O33   P14   S    
N36   H139  S    
C69   C73   A    
O32   P4    S    
C45   C89   S    
C177  H113  S    
C71   C75   A    
C47   C91   S    
C173  O69   D    
O35   P16   S    
C37   C85   A    
C167  O63   D    
N17   H81   S    
O48   P12   D    
C139  N7    S    
N24   H95   S    
C6    C74   A    
C147  C155  S    
N7    H54   S    
C45   O9    S    
C183  O79   D    
C133  C157  S    
C89   C169  S    
C28   C32   A    
C63   C151  A    
C178  H114  S    
C4    C148  S    
C81   C85   A    
C140  O32   S    
C92   C192  S    
N31   H126  S    
C153  H33   S    
C165  O61   D    
C145  C153  S    
C146  H10   S    
C114  N22   S    
N22   H91   S    
C107  C115  A    
N9    H66   S    
C138  O30   S    
C61   C149  A    
C131  O8    S    
C119  C123  A    
N22   H92   S    
C174  H102  S    
C154  O50   D    
C179  O75   D    
C141  N9    S    
C188  H132  S    
C48   O12   S    
C46   N34   S    
C90   C190  S    
C7    C151  A    
O21   P14   S    
O41   P9    S    
C162  O58   D    
C41   C49   A    
C157  H45   S    
C8    C152  A    
Ba1   O41   S    
C103  C187  S    
C194  H146  S    
C84   C100  A    
C170  O66   D    
N5    H49   S    
C180  O76   D    
Ba3   O23   S    
N37   H154  S    
C26   C30   A    
Ba1   O21   S    
C124  N16   S    
O25   P14   D    
C145  H9    S    
C190  H142  S    
C6    C10   A    
Ba3   O43   S    
C92   C196  S    
N12   H71   S    
C46   C90   S    
Ba4   O15   S    
O15   P8    S    
C129  C197  S    
C131  N39   S    
C4    N20   S    
O13   P6    S    
C112  C116  A    
C55   P8    S    
O44   P12   S    
C64   C96   A    
C117  C121  A    
C23   C39   A    
C93   C105  A    
C134  H2    S    
C14   C174  S    
C95   C107  A    
O26   P13   D    
C198  O94   D    
C193  H145  S    
C99   C101  A    
N34   H135  S    
N20   H88   S    
Ba1   O18   S    
Ba2   P6    S    
C123  N15   S    
C47   O11   S    
C109  C113  A    
C182  H118  S    
N19   H86   S    
C111  C115  A    
N15   H78   S    
C70   C74   A    
N3    H42   S    
N39   H157  S    
C46   H30   S    
O29   P1    S    
C97   H25   S    
C22   C38   A    
C2    H14   S    
C148  C156  S    
C175  O71   D    
C17   C21   A    
C18   C26   A    
C14   C18   A    
C51   H23   S    
C20   C24   A    
N26   H107  S    
C40   C88   A    
C91   C191  S    
C156  H36   S    
C63   C95   A    
C109  C117  A    
C133  H1    S    
C62   C94   A    
C157  O53   D    
N40   H159  S    
C128  P4    S    
C119  P16   S    
C57   C77   A    
N25   H105  S    
C136  H4    S    
C48   N36   S    
C72   C128  A    
C117  P14   S    
O28   P15   D    
C147  O35   S    
C32   C44   A    
N4    H44   S    
C33   C37   A    
C192  H144  S    
Ba2   O42   S    
C139  O31   S    
C187  H131  S    
C36   C40   A    
C45   H29   S    
C159  H47   S    
C48   H32   S    
C136  C160  S    
N32   H127  S    
C15   C175  S    
Ba4   P8    S    
C77   C81   A    
Ba3   Ba4   S    
N38   H155  S    
C142  C162  S    
C54   C58   A    
C79   C83   A    
C172  H100  S    
C94   C106  A    
C3    H15   S    
Ba3   O15   S    
Ba4   O4    S    
O2    P2    D    
Ba1   O13   S    
C100  C102  A    
C105  C113  A    
C171  H99   S    
N21   H90   S    
C1    N29   S    
C181  H117  S    
N8    H56   S    
C43   C51   A    
N14   H76   S    
C2    N18   S    
C169  O65   D    
C52   H24   S    
C159  O55   D    
C122  C126  A    
O37   P5    D    
C166  O62   D    
O7    P7    S    
C137  O29   S    
C130  C198  S    
N27   H109  S    
N29   H122  S    
N18   H84   S    
C1    N17   S    
C65   C69   A    
O23   P16   S    
O19   P3    S    
C120  C124  A    
C12   H20   S    
C161  O57   D    
C168  H64   S    
C58   C78   A    
C197  H149  S    
N33   H134  S    
Ba2   O13   S    
C103  C107  A    
C90   C194  S    
C143  N11   S    
C43   P12   S    
N13   H74   S    
N30   H124  S    
C164  O60   D    
C189  O85   D    
C69   C125  A    
C9    C15   A    
C163  H59   S    
C72   C76   A    
N7    H53   S    
N1    H38   S    
C77   C181  S    
N10   H67   S    
C122  N14   S    
C78   C82   A    
C29   C33   A    
C104  C108  A    
C34   C58   A    
C186  O82   D    
C31   C35   A    
N31   H125  S    
C10   C16   A    
C130  N38   S    
C65   C109  A    
C42   C50   A    
Ba4   P4    S    
N23   H94   S    
C87   C93   A    
O17   P1    S    
C115  N23   S    
C146  O34   S    
C176  O72   D    
C3    C147  S    
C100  H28   S    
C96   C108  A    
N36   H140  S    
C148  O36   S    
C142  N10   S    
O27   P16   D    
C27   C31   A    
C193  O89   D    
C148  H12   S    
Ba3   O39   S    
Ba4   O19   S    
C62   C150  A    
C173  H101  S    
Ba1   O37   S    
C11   C13   A    
C164  H60   S    
N16   H80   S    
C112  C120  A    
C73   C177  S    
C90   C170  S    
C158  O54   D    
C79   C183  S    
C138  H6    S    
N24   H96   S    
C11   H19   S    
C131  C135  S    
C27   N27   S    
C123  C127  A    
C178  O74   D    
C10   H18   S    
N11   H69   S    
O46   P10   D    
C165  H61   S    
C134  N2    S    
O10   P10   S    
C61   C65   A    
C49   C53   A    
C63   C67   A    
Ba4   O40   S    
N9    H65   S    
C13   C17   A    
O38   P6    D    
C167  H63   S    
C2    C146  S    
C101  C185  S    
N2    H39   S    
C174  O70   D    
C18   C22   A    
C59   C79   A    
C1    H13   S    
N28   H111  S    
C3    N19   S    
C188  O84   D    
C4    N32   S    
C4    H16   S    
Ba3   P3    S    
C187  O83   D    
C23   C149  A    
N15   H77   S    
N39   H158  S    
C137  H5    S    
C143  C163  S    
C21   C151  A    
C22   C152  A    
N23   H93   S    
C144  N12   S    
C140  C144  S    
O20   P4    S    
C194  O90   D    
C88   C94   A    
C175  H103  S    
C196  O92   D    
C66   C110  A    
C139  C143  S    
N37   H153  S    
O8    P8    S    
Ba3   O20   S    
N6    H51   S    
C171  O67   D    
C190  O86   D    
C34   C38   A    
C44   P11   S    
O39   P7    D    
C160  H48   S    
N12   H72   S    
Ba4   O16   S    
C136  N4    S    
C199  H151  S    
C129  N37   S    
C185  O81   D    
Ba1   Ba2   S    
C91   C171  S    
O47   P11   D    
C184  H120  S    
C102  C106  A    
C133  N1    S    
C130  O5    S    
C84   C88   A    
C127  P3    S    
C38   C86   A    
C98   C104  A    
C19   C23   A    
C177  O73   D    
N1    H37   S    
C82   C98   A    
O11   P11   S    
C182  O78   D    
N17   H82   S    
C116  N24   S    
C24   C150  A    
C104  C188  S    
C74   C178  S    
C145  O33   S    
C124  C128  A    
C86   C96   A    
C71   C127  A    
O3    P3    D    
Ba2   O22   S    
C16   C20   A    
C32   C36   A    
C28   N28   S    
C195  O91   D    
N26   H108  S    
C141  C165  S    
C191  H143  S    
C153  O49   D    
Ba2   P2    S    
C156  O52   D    
O14   P5    S    
C135  N3    S    
C5    C149  A    
C39   C87   A    
C143  C167  S    
C163  O59   D    
C118  C122  A    
C54   P5    S    
N40   H160  S    
Ba3   O3    S    
C146  C154  S    
C179  H115  S    
C102  C186  S    
C154  H34   S    
C144  C164  S    
C67   C111  A    
C68   C72   A    
Ba2   O17   S    
Ba3   P7    S    
C192  O88   D    
O12   P12   S    
N11   H70   S    
C110  C114  A    
Ba1   P5    S    
C30   C42   A    
C12   C14   A    
C162  H58   S    
C91   C195  S    
C70   C126  A    
N32   H128  S    
C155  H35   S    
C195  H147  S    
C81   C97   A    
C170  H98   S    
N38   H156  S    
C180  H116  S    
C50   C54   A    
C44   C52   A    
C121  N13   S    
C126  P2    S    
C172  O68   D    
O6    P6    S    
C30   C34   A    
C42   P9    S    
N2    H40   S    
C64   C152  A    
C130  C134  S    
C33   C57   A    
C137  N5    S    
C3    N31   S    
C35   C59   A    
N21   H89   S    
C36   C60   A    
C135  C159  S    
C89   C193  S    
C61   C93   A    
C169  H97   S    
C118  P13   S    
C67   C71   A    
N16   H79   S    
C80   C184  S    
Ba4   O24   S    
C8    C76   A    
C142  C166  S    
C198  H150  S    
N5    H50   S    
C48   C92   S    
C101  C105  A    
C47   N35   S    
N20   H87   S    
C45   N33   S    
C89   C189  S    
C110  C118  A    
O34   P13   S    
C140  N8    S    
C181  O77   D    
N29   H121  S    
C196  H148  S    
N35   H138  S    
C113  N21   S    
Ba1   O1    S    
