data_mof_unit_45395.cif
_audit_creation_date              2012-12-10T19:11:33-0500
_audit_creation_method            fapswitch 2.2
_symmetry_space_group_name_H-M    P1
_symmetry_Int_Tables_number       1
_space_group_crystal_system       triclinic
_cell_length_a                    10.693174
_cell_length_b                    9.731279
_cell_length_c                    10.558414
_cell_angle_alpha                 88.563465
_cell_angle_beta                  88.666776
_cell_angle_gamma                 89.792922
_cell_volume                      1098.04248727

loop_
_atom_site_label
_atom_site_type_symbol
_atom_type_description
_atom_site_fract_x
_atom_site_fract_y
_atom_site_fract_z
_atom_type_partial_charge
C1    C     C_R   0.257901 0.500311 0.503561 0.977743
C2    C     C_3   0.501746 0.504425 0.122092 -0.301956
C3    C     C_3   0.071680 0.651135 0.528768 0.178454
C4    C     C_3   0.071242 0.399849 0.615176 0.185301
C5    C     C_3   0.927244 0.655078 0.518884 0.700701
C6    C     C_3   0.925494 0.410793 0.624602 0.726775
C7    C     C_3   0.075396 0.450845 0.379857 -0.576152
C8    C     C_3   0.121660 0.501328 0.508919 -0.195085
C9    C     C_3   0.878927 0.501690 0.507989 -0.149368
C10   C     C_3   0.932204 0.441982 0.382426 -0.557624
C11   C     C_3   0.373388 0.081071 0.531278 0.198875
C12   C     C_3   0.374370 0.917893 0.534725 0.242480
C13   C     C_3   0.533333 0.085210 0.369292 0.246716
C14   C     C_3   0.531942 0.921258 0.369333 0.249014
C15   C     C_3   0.592386 0.077848 0.586302 -0.278716
C16   C     C_3   0.593652 0.916446 0.584928 -0.282972
C17   C     C_R   0.501290 0.501666 0.257120 0.996223
C18   C     C_R   0.742407 0.500091 0.503221 1.018640
C19   C     C_R   0.499785 0.498285 0.742324 1.006461
C20   C     C_3   0.492762 0.630399 0.032731 0.318040
C21   C     C_3   0.404208 0.428269 0.046730 0.286428
C22   C     C_3   0.394877 0.554558 0.957662 0.371522
C23   C     C_3   0.500389 0.495092 0.876400 -0.273057
C24   C     C_3   0.599498 0.571392 0.949685 -0.246164
C25   C     C_3   0.509824 0.366624 0.963376 -0.245908
C26   C     C_3   0.607205 0.444386 0.039614 0.379863
H1    H     H_    0.894565 0.498117 0.298620 0.270580
H2    H     H_    0.903019 0.333683 0.371130 0.264208
H3    H     H_    0.308163 0.113511 0.455315 0.121012
H4    H     H_    0.305972 0.884874 0.463750 0.114242
H5    H     H_    0.462102 0.123050 0.300825 0.097950
H6    H     H_    0.458546 0.889082 0.303527 0.112971
H7    H     H_    0.687491 0.115842 0.560283 0.260852
H8    H     H_    0.688663 0.881583 0.555933 0.266542
H9    H     H_    0.575870 0.113785 0.684045 0.165031
H10   H     H_    0.579894 0.872931 0.682271 0.179781
H11   H     H_    0.679940 0.629105 0.906730 0.232734
H12   H     H_    0.516980 0.258799 0.931902 0.207801
H13   H     H_    0.111892 0.718307 0.451321 0.143289
H14   H     H_    0.097233 0.293386 0.586933 0.149568
H15   H     H_    0.107159 0.522458 0.301799 0.249239
H16   H     H_    0.115005 0.347679 0.358903 0.267882
N1    N     N_3   0.499750 0.138610 0.497240 -0.118728
N2    N     N_3   0.499750 0.861390 0.497240 -0.133770
O1    O     O_R   0.314910 0.616040 0.499970 -0.579986
O2    O     O_R   0.314910 0.383960 0.499970 -0.622371
O3    O     O_R   0.500080 0.616020 0.313900 -0.595452
O4    O     O_R   0.500080 0.383980 0.313900 -0.587188
O5    O     O_R   0.685320 0.616040 0.499930 -0.540034
O6    O     O_R   0.685320 0.383960 0.499930 -0.581602
O7    O     O_R   0.500150 0.616060 0.686000 -0.588806
O8    O     O_R   0.500150 0.383940 0.686000 -0.627539
Zn1   Zn    Zn3+2 0.500150 0.654960 0.499940 1.056309
Zn2   Zn    Zn3+2 0.500150 0.345040 0.499940 1.016911
Cl1   Cl    Cl    0.253422 0.631031 0.904998 -0.415399
O9    O     O_3   0.321841 0.138185 0.642249 -0.699353
H17   H     H_    0.377971 0.119921 0.713676 0.347824
O10   O     O_3   0.330723 0.860121 0.651093 -0.583662
H18   H     H_    0.381797 0.894078 0.720464 0.358904
O11   O     O_3   0.650646 0.137188 0.328860 -0.665909
H19   H     H_    0.654243 0.132448 0.235064 0.371175
O12   O     O_3   0.647524 0.867687 0.326887 -0.626284
H20   H     H_    0.655205 0.888197 0.234630 0.375362
Cl2   Cl    Cl    0.477871 0.808363 0.063165 -0.610856
Cl3   Cl    Cl    0.274492 0.333676 0.111696 -0.548192
Cl4   Cl    Cl    0.750326 0.373566 0.094422 -0.571622
O13   O     O_3   0.113969 0.706701 0.642110 -0.617094
H21   H     H_    0.069451 0.661338 0.714765 0.445223
O14   O     O_3   0.125146 0.423765 0.732983 -0.674609
H22   H     H_    0.206104 0.373655 0.735334 0.382543
O15   O     O_3   0.872854 0.715015 0.627441 -0.706540
H23   H     H_    0.895123 0.814103 0.624556 0.370912
O16   O     O_3   0.888082 0.474585 0.737862 -0.680733
H24   H     H_    0.898793 0.406996 0.808884 0.420306
O17   O     O_3   0.891521 0.736570 0.412299 -0.721891
H25   H     H_    0.944100 0.713430 0.337256 0.324904
O18   O     O_3   0.872124 0.277782 0.626847 -0.771276
H26   H     H_    0.905636 0.225424 0.554270 0.318606

loop_
_geom_bond_atom_site_label_1
_geom_bond_atom_site_label_2
_ccdc_geom_bond_type
C10   H1    S    
C7    C10   S    
C5    O17   S    
C1    C8    S    
O16   H24   S    
C17   O4    A    
C4    C8    S    
C6    C9    S    
C7    C8    S    
C13   O11   S    
O18   H26   S    
O4    Zn2   S    
O6    Zn2   S    
C24   C26   S    
C1    O2    A    
C15   C16   S    
C14   O12   S    
O9    H17   S    
C7    H16   S    
C16   H8    S    
C21   Cl3   S    
C19   O8    A    
C4    H14   S    
C23   C24   S    
C11   N1    S    
C9    C10   S    
C16   N2    S    
O3    Zn1   S    
C12   O10   S    
C23   C25   S    
O1    Zn1   S    
C13   C14   S    
C2    C17   S    
N2    Zn1   S    
C15   H9    S    
C4    O14   S    
O8    Zn2   S    
C2    C20   S    
O13   H21   S    
C26   Cl4   S    
C20   C24   S    
C4    C6    S    
C3    C8    S    
C6    O18   S    
C25   C26   S    
O11   H19   S    
O7    Zn1   S    
C20   Cl2   S    
C19   C23   S    
O17   H25   S    
C5    C9    S    
O12   H20   S    
C25   H12   S    
N1    Zn2   S    
O2    Zn2   S    
C2    C21   S    
C24   H11   S    
C2    C26   S    
C20   C22   S    
C13   N1    S    
C18   O6    A    
C6    O16   S    
C14   N2    S    
C10   H2    S    
C21   C25   S    
C12   H4    S    
C13   H5    S    
C3    O13   S    
C17   O3    A    
C14   H6    S    
C3    C5    S    
C11   C12   S    
C22   Cl1   S    
O10   H18   S    
C15   N1    S    
O15   H23   S    
C5    O15   S    
C16   H10   S    
C1    O1    A    
O5    Zn1   S    
C7    H15   S    
O14   H22   S    
C3    H13   S    
C19   O7    A    
C9    C18   S    
C11   H3    S    
C12   N2    S    
C22   C23   S    
C21   C22   S    
C15   H7    S    
C11   O9    S    
C18   O5    A    
