data_mof_unit_24649.cif
_audit_creation_date              2012-12-10T17:34:59-0500
_audit_creation_method            fapswitch 2.2
_symmetry_space_group_name_H-M    P1
_symmetry_Int_Tables_number       1
_space_group_crystal_system       triclinic
_cell_length_a                    12.346504
_cell_length_b                    13.038454
_cell_length_c                    13.869737
_cell_angle_alpha                 105.278555
_cell_angle_beta                  73.818174
_cell_angle_gamma                 116.687211
_cell_volume                      1890.79154249

loop_
_atom_site_label
_atom_site_type_symbol
_atom_type_description
_atom_site_fract_x
_atom_site_fract_y
_atom_site_fract_z
_atom_type_partial_charge
C1    C     C_R   0.144478 0.714903 0.509468 0.789689
C2    C     C_1   0.978446 0.513012 0.792114 -0.205498
C3    C     C_R   0.739140 0.976695 0.353102 0.276040
C4    C     C_R   0.777080 0.161577 0.466203 -0.138223
C5    C     C_R   0.183517 0.926345 0.573080 0.259732
C6    C     C_R   0.267085 0.041934 0.591063 -0.238903
C7    C     C_R   0.392598 0.072809 0.556283 -0.170511
C8    C     C_R   0.438754 0.988888 0.500217 0.091787
C9    C     C_R   0.353853 0.875915 0.468875 -0.011885
C10   C     C_R   0.567241 0.016753 0.469491 -0.045899
C11   C     C_R   0.609981 0.941624 0.389228 0.027606
C12   C     C_R   0.984645 0.504937 0.686450 0.820418
C13   C     C_R   0.522079 0.835695 0.347151 0.249377
C14   C     C_R   0.396914 0.803371 0.388836 -0.259689
C15   C     C_R   0.654595 0.117667 0.517599 0.209308
C16   C     C_R   0.819751 0.089434 0.386869 -0.328179
C17   C     C_R   0.226892 0.840530 0.514608 -0.135407
C18   C     C_R   0.646228 0.684556 0.652450 -0.323120
C19   C     C_R   0.248619 0.349987 0.364305 -0.015499
C20   C     C_R   0.351038 0.321485 0.324678 0.160726
C21   C     C_R   0.457727 0.385293 0.369009 0.173735
C22   C     C_R   0.455995 0.468984 0.459184 -0.087996
C23   C     C_R   0.856280 0.285502 0.486715 0.802190
C24   C     C_R   0.350037 0.496616 0.492085 0.217026
C25   C     C_R   0.554987 0.528901 0.517005 -0.011853
C26   C     C_R   0.550637 0.621886 0.596861 0.168712
C27   C     C_R   0.449217 0.650009 0.623438 -0.286442
C28   C     C_R   0.349797 0.586414 0.574535 -0.142185
C29   C     C_R   0.656422 0.499004 0.502995 0.039928
C30   C     C_R   0.745471 0.654034 0.630926 0.071066
C31   C     C_R   0.015679 0.495725 0.313616 0.810452
C32   C     C_1   0.024385 0.493354 0.208550 -0.188509
C33   C     C_2   0.034322 0.491157 0.015858 -0.245718
C34   C     C_2   0.967536 0.533013 0.988692 0.302857
C35   C     C_1   0.973070 0.521806 0.881472 -0.033386
C36   C     C_1   0.030164 0.491912 0.120442 -0.007242
Cu1   Cu    Cu3+1 0.899780 0.525060 0.522890 0.937402
Cu2   Cu    Cu3+1 0.100220 0.474940 0.477110 0.915329
H1    H     H_    0.333036 0.723958 0.351842 0.173484
H2    H     H_    0.820046 0.702606 0.672972 0.148190
H3    H     H_    0.444628 0.719804 0.685393 0.147254
H4    H     H_    0.662975 0.423464 0.452014 0.177388
H5    H     H_    0.166764 0.304576 0.330952 0.158414
H6    H     H_    0.273951 0.610959 0.604316 0.203494
H7    H     H_    0.091626 0.452721 0.958277 0.137331
H8    H     H_    0.452084 0.164188 0.569954 0.178117
H9    H     H_    0.234417 0.108530 0.633156 0.147608
N1    N     N_R   0.748810 0.563010 0.557590 -0.189150
N2    N     N_R   0.250540 0.437620 0.443020 -0.224965
O1    O     O_R   0.025040 0.682470 0.528790 -0.541511
O2    O     O_R   0.194310 0.640150 0.490130 -0.602968
O3    O     O_R   0.903380 0.524130 0.659910 -0.574733
O4    O     O_R   0.072660 0.481800 0.621240 -0.588437
O5    O     O_R   0.805690 0.359850 0.509870 -0.593836
O6    O     O_R   0.974960 0.317530 0.471210 -0.580268
O7    O     O_R   0.927340 0.518200 0.378760 -0.573060
O8    O     O_R   0.096620 0.475870 0.340090 -0.583873
N3    N     N_2   0.890323 0.583304 0.063173 -0.425422
H10   H     H_    0.919053 0.623499 0.131744 0.252077
C37   C     C_3   0.835087 0.641408 0.029036 -0.701225
H11   H     H_    0.774375 0.670937 0.094655 0.238912
H12   H     H_    0.777462 0.580629 0.972141 0.242509
H13   H     H_    0.908054 0.718349 0.995552 0.226632
H14   H     H_    0.643822 0.756414 0.712673 0.137658
N4    N     N_2   0.569606 0.374579 0.315324 -0.460738
H15   H     H_    0.561867 0.291887 0.280973 0.254244
C38   C     C_3   0.648170 0.461199 0.250477 -0.632892
H16   H     H_    0.736641 0.451482 0.218134 0.240260
H17   H     H_    0.668772 0.550141 0.294771 0.227676
H18   H     H_    0.602895 0.449767 0.187180 0.245632
N5    N     N_2   0.351123 0.231991 0.238597 -0.422515
H19   H     H_    0.372804 0.168991 0.250166 0.247350
C39   C     C_3   0.257935 0.187530 0.176315 -0.718507
H20   H     H_    0.282453 0.130822 0.106689 0.232771
H21   H     H_    0.253456 0.260251 0.152436 0.237236
H22   H     H_    0.166607 0.134813 0.218538 0.209948
H23   H     H_    0.916379 0.120507 0.351122 0.156857
N6    N     N_2   0.557045 0.761243 0.261337 -0.395059
H24   H     H_    0.506377 0.673874 0.265241 0.249793
C40   C     C_3   0.563983 0.788547 0.164662 -0.672018
H25   H     H_    0.598300 0.731177 0.101926 0.221370
H26   H     H_    0.628746 0.880342 0.158609 0.236927
H27   H     H_    0.471158 0.774429 0.156146 0.211812
N7    N     N_2   0.789280 0.901142 0.281754 -0.394417
H28   H     H_    0.866909 0.942963 0.231213 0.238295
C41   C     C_3   0.807075 0.823946 0.328064 -0.661197
H29   H     H_    0.839545 0.763408 0.267911 0.217845
H30   H     H_    0.719176 0.771778 0.374651 0.241891
H31   H     H_    0.877489 0.875149 0.376974 0.212791
N8    N     N_2   0.622832 0.165703 0.621530 -0.439047
H32   H     H_    0.681061 0.249490 0.645746 0.265286
C42   C     C_3   0.592585 0.090388 0.694063 -0.695140
H33   H     H_    0.564570 0.132497 0.771751 0.226661
H34   H     H_    0.674274 0.074502 0.692713 0.221551
H35   H     H_    0.514639 0.005951 0.676921 0.241515
N9    N     N_2   0.055973 0.898337 0.612693 -0.421618
H36   H     H_    0.039177 0.941909 0.685161 0.237156
C43   C     C_3   0.992702 0.909059 0.544826 -0.676914
H37   H     H_    0.893413 0.883488 0.579033 0.220541
H38   H     H_    0.000953 0.851189 0.470903 0.241271
H39   H     H_    0.032107 0.000513 0.531630 0.216528

loop_
_geom_bond_atom_site_label_1
_geom_bond_atom_site_label_2
_ccdc_geom_bond_type
C2    C35   T    
C29   H4    S    
C33   H7    S    
C39   H20   S    
C19   C20   A    
C18   C26   A    
C2    C12   S    
C7    C8    A    
Cu2   N2    S    
C26   C27   A    
C37   H13   S    
C32   C36   T    
C30   N1    A    
N7    C41   S    
C16   H23   S    
C10   C15   A    
C5    C6    A    
C41   H30   S    
C5    C17   A    
N3    C37   S    
C33   C36   S    
C37   H12   S    
C34   C35   S    
C27   H3    S    
C14   H1    S    
Cu1   O7    S    
Cu2   O6    S    
C8    C9    A    
N4    C38   S    
C22   C25   A    
N9    C43   S    
C20   N5    S    
C18   C30   A    
C31   O7    A    
C1    O1    A    
C12   O4    A    
C21   C22   A    
C39   H21   S    
C40   H27   S    
C12   O3    A    
C19   H5    S    
C25   C29   A    
C6    H9    S    
C29   N1    A    
C38   H16   S    
C7    H8    S    
N7    H28   S    
C40   H26   S    
N5    C39   S    
C4    C23   S    
N6    H24   S    
Cu2   O2    S    
N3    H10   S    
C28   H6    S    
C42   H35   S    
C37   H11   S    
C38   H17   S    
C4    C16   A    
C9    C14   A    
Cu1   Cu2   S    
Cu2   O8    S    
C19   N2    A    
N8    C42   S    
C31   C32   S    
N9    H36   S    
C42   H34   S    
C33   C34   D    
C30   H2    S    
Cu1   N1    S    
C1    O2    A    
Cu1   O5    S    
C9    C17   A    
C43   H37   S    
C43   H38   S    
C39   H22   S    
C22   C24   A    
C3    N7    S    
C5    N9    S    
C23   O5    A    
C24   N2    A    
Cu1   O3    S    
C13   N6    S    
C21   N4    S    
C41   H29   S    
C24   C28   A    
C40   H25   S    
C41   H31   S    
C23   O6    A    
C6    C7    A    
C43   H39   S    
C1    C17   S    
C38   H18   S    
C31   O8    A    
C4    C15   A    
C25   C26   A    
N5    H19   S    
C15   N8    S    
Cu1   O1    S    
C11   C13   A    
C18   H14   S    
N8    H32   S    
Cu2   O4    S    
C42   H33   S    
N6    C40   S    
C3    C11   A    
C10   C11   A    
C20   C21   A    
C8    C10   A    
N4    H15   S    
C27   C28   A    
C34   N3    S    
C13   C14   A    
C3    C16   A    
