data_mof_unit_59313.cif
_audit_creation_date              2012-12-10T19:49:59-0500
_audit_creation_method            fapswitch 2.2
_symmetry_space_group_name_H-M    P1
_symmetry_Int_Tables_number       1
_space_group_crystal_system       triclinic
_cell_length_a                    14.153486
_cell_length_b                    14.945443
_cell_length_c                    15.144846
_cell_angle_alpha                 89.724259
_cell_angle_beta                  68.776269
_cell_angle_gamma                 89.716155
_cell_volume                      2986.25180337

loop_
_atom_site_label
_atom_site_type_symbol
_atom_type_description
_atom_site_fract_x
_atom_site_fract_y
_atom_site_fract_z
_atom_type_partial_charge
C1    C     C_R   0.500005 0.672407 0.499307 0.934229
C2    C     C_R   0.500442 0.327770 0.499518 0.896319
C3    C     C_R   0.378367 0.617814 0.103722 0.378459
C4    C     C_R   0.618853 0.620809 0.896500 0.386383
C5    C     C_R   0.307161 0.610554 0.059841 -0.297485
C6    C     C_R   0.690236 0.613771 0.940373 -0.293957
C7    C     C_R   0.449384 0.904195 0.436741 0.485196
C8    C     C_R   0.594685 0.097630 0.424847 0.502661
C9    C     C_R   0.445377 0.811753 0.446384 -0.235766
C10   C     C_R   0.591985 0.190018 0.434474 -0.268845
C11   C     C_R   0.501650 0.768358 0.493265 -0.141549
C12   C     C_R   0.503411 0.232178 0.493521 -0.104272
C13   C     C_R   0.561449 0.816566 0.531901 -0.145110
C14   C     C_R   0.417206 0.183227 0.544523 -0.187790
C15   C     C_R   0.563419 0.908630 0.525431 -0.128711
C16   C     C_R   0.420209 0.091195 0.538278 -0.129702
C17   C     C_R   0.508239 0.952268 0.477843 -0.011448
C18   C     C_R   0.507991 0.048550 0.478395 -0.001659
C19   C     C_R   0.906328 0.575607 0.469944 -0.241514
C20   C     C_R   0.115989 0.424201 0.472026 -0.275590
C21   C     C_R   0.806972 0.573896 0.469835 0.102828
C22   C     C_R   0.215380 0.425638 0.472015 0.048333
C23   C     C_R   0.437244 0.502259 0.677166 0.875806
C24   C     C_R   0.562750 0.502174 0.322776 0.884761
C25   C     C_R   0.784470 0.426241 0.530174 0.052696
C26   C     C_R   0.193119 0.574452 0.528020 0.106582
C27   C     C_R   0.883830 0.424787 0.530302 -0.272207
C28   C     C_R   0.093722 0.576177 0.527949 -0.238274
C29   C     C_R   0.946694 0.500240 0.500137 0.111737
C30   C     C_R   0.053219 0.500231 0.500030 0.110811
C31   C     C_R   0.399734 0.523188 0.778549 -0.092169
C32   C     C_R   0.600025 0.522972 0.221163 -0.089087
C33   C     C_R   0.265290 0.566301 0.924292 -0.151952
C34   C     C_R   0.733288 0.568895 0.075695 -0.144844
C35   C     C_R   0.296393 0.536771 0.830684 -0.187828
C36   C     C_R   0.702942 0.538578 0.169242 -0.174616
C37   C     C_R   0.470854 0.540995 0.820361 -0.140257
C38   C     C_R   0.528635 0.539109 0.178986 -0.140642
C39   C     C_R   0.442148 0.579440 0.909972 0.115048
C40   C     C_R   0.556205 0.578830 0.089746 0.115472
C41   C     C_R   0.337599 0.585739 0.964964 0.109076
C42   C     C_R   0.660514 0.587383 0.034969 0.109067
C43   C     C_R   0.514992 0.601588 0.950090 -0.097936
C44   C     C_R   0.482746 0.600590 0.049882 -0.094576
H1    H     H_    0.227505 0.621699 0.100674 0.175202
H2    H     H_    0.769536 0.626537 0.899780 0.176591
H3    H     H_    0.951760 0.635059 0.445059 0.160165
H4    H     H_    0.089092 0.364369 0.448782 0.154207
H5    H     H_    0.777525 0.632026 0.445504 0.134013
H6    H     H_    0.262908 0.367001 0.449228 0.140514
H7    H     H_    0.736819 0.368092 0.554552 0.135682
H8    H     H_    0.222691 0.633063 0.550542 0.132622
H9    H     H_    0.910644 0.365418 0.555285 0.151719
H10   H     H_    0.048381 0.636131 0.551074 0.159532
H11   H     H_    0.450834 0.520148 0.216142 0.201427
H12   H     H_    0.549252 0.523786 0.782898 0.201950
H13   H     H_    0.759569 0.527522 0.200772 0.161395
H14   H     H_    0.239986 0.524505 0.799351 0.159956
H15   H     H_    0.185024 0.573610 0.964885 0.143422
H16   H     H_    0.813312 0.577914 0.035319 0.142801
H17   H     H_    0.399881 0.773371 0.416156 0.230776
H18   H     H_    0.657754 0.229482 0.394569 0.190599
H19   H     H_    0.604810 0.783185 0.568545 0.212573
H20   H     H_    0.348737 0.216095 0.590427 0.159372
H21   H     H_    0.607149 0.946190 0.558272 0.196861
H22   H     H_    0.354355 0.052902 0.580405 0.187914
N1    N     N_R   0.747530 0.500020 0.500000 -0.086938
N2    N     N_R   0.252470 0.499980 0.500000 -0.086961
O1    O     O_R   0.420530 0.630930 0.499990 -0.616527
O2    O     O_R   0.579470 0.369070 0.500010 -0.632362
O3    O     O_R   0.579480 0.630940 0.499990 -0.609921
O4    O     O_R   0.420520 0.369060 0.500010 -0.628942
O5    O     O_R   0.375120 0.499990 0.632240 -0.625641
O6    O     O_R   0.624880 0.500010 0.367760 -0.623205
O7    O     O_R   0.534080 0.500000 0.632240 -0.580149
O8    O     O_R   0.465920 0.500000 0.367760 -0.577045
Zn1   Zn    Zn3+2 0.393860 0.499990 0.500000 0.984669
Zn2   Zn    Zn3+2 0.606140 0.500010 0.500000 0.986728
S1    S     S_3+6 0.334924 0.665784 0.218686 0.040031
O9    O     O_2   0.421274 0.706162 0.240048 -0.240112
O10   O     O_2   0.258649 0.738046 0.224476 -0.239898
O11   O     O_3   0.278697 0.586947 0.300040 -0.571060
H23   H     H_    0.219636 0.567021 0.284951 0.344553
S2    S     S_3+6 0.660931 0.670996 0.782155 0.018674
O12   O     O_2   0.573694 0.711472 0.761477 -0.271007
O13   O     O_2   0.735730 0.743692 0.777250 -0.266133
O14   O     O_3   0.718693 0.593927 0.699477 -0.567160
H24   H     H_    0.777860 0.573507 0.714516 0.344395
S3    S     S_3+6 0.381057 0.957304 0.373368 0.061983
O15   O     O_2   0.442850 0.032092 0.313609 -0.264078
O16   O     O_2   0.356273 0.891231 0.310537 -0.192253
O17   O     O_3   0.272528 0.999210 0.451093 -0.577587
H25   H     H_    0.241754 0.033289 0.412005 0.391985
S4    S     S_3+6 0.705740 0.046070 0.345354 0.041586
O18   O     O_2   0.677731 0.972118 0.292561 -0.252520
O19   O     O_2   0.769655 0.113598 0.275584 -0.279006
O20   O     O_3   0.772776 0.003223 0.407373 -0.568808
H26   H     H_    0.829028 0.969623 0.360432 0.395742

loop_
_geom_bond_atom_site_label_1
_geom_bond_atom_site_label_2
_ccdc_geom_bond_type
O14   H24   S    
O2    Zn2   S    
O1    Zn1   S    
C25   N1    A    
S2    O14   S    
C2    C12   S    
C25   H7    S    
O20   H26   S    
C39   C41   A    
C20   C30   A    
C29   C30   S    
C35   H14   S    
C9    H17   S    
C32   C36   A    
C19   C21   A    
S2    O13   D    
C19   H3    S    
C27   C29   A    
C15   H21   S    
C7    C9    A    
C37   H12   S    
C38   H11   S    
C34   C42   A    
C7    C17   A    
C4    S2    S    
C14   C16   A    
C32   C38   A    
S3    O16   D    
C22   H6    S    
C40   C42   A    
C3    S1    S    
C33   H15   S    
C21   N1    A    
C34   H16   S    
C10   H18   S    
N1    Zn2   S    
C23   O5    A    
C2    O4    A    
C21   H5    S    
C3    C44   A    
C8    S4    S    
O8    Zn1   S    
C4    C6    A    
C36   H13   S    
C23   O7    A    
S1    O10   D    
C28   H10   S    
C24   O8    A    
C39   C43   A    
S4    O20   S    
C5    H1    S    
C1    O1    A    
C31   C37   A    
C23   C31   S    
C43   C44   A    
C24   C32   S    
O4    Zn1   S    
C26   H8    S    
C13   H19   S    
C14   H20   S    
C17   C18   S    
C1    O3    A    
S2    O12   D    
S3    O17   S    
S4    O19   D    
C9    C11   A    
C22   N2    A    
C20   H4    S    
C10   C12   A    
C8    C10   A    
C12   C14   A    
C13   C15   A    
O6    Zn2   S    
C31   C35   A    
C16   H22   S    
C19   C29   A    
N2    Zn1   S    
C15   C17   A    
C5    C41   A    
C6    H2    S    
C20   C22   A    
C3    C5    A    
S1    O11   S    
C27   H9    S    
C4    C43   A    
C25   C27   A    
C26   C28   A    
C26   N2    A    
C28   C30   A    
C33   C41   A    
C37   C39   A    
C38   C40   A    
C11   C13   A    
C24   O6    A    
O17   H25   S    
C33   C35   A    
C34   C36   A    
S4    O18   D    
O7    Zn2   S    
C8    C18   A    
S1    O9    D    
C40   C44   A    
C16   C18   A    
O11   H23   S    
C6    C42   A    
O5    Zn1   S    
C1    C11   S    
S3    O15   D    
C2    O2    A    
O3    Zn2   S    
C7    S3    S    
