data_mof_unit_27877.cif
_audit_creation_date              2012-12-10T17:17:56-0500
_audit_creation_method            fapswitch 2.2
_symmetry_space_group_name_H-M    P1
_symmetry_Int_Tables_number       1
_space_group_crystal_system       triclinic
_cell_length_a                    14.920889
_cell_length_b                    15.630133
_cell_length_c                    9.579019
_cell_angle_alpha                 90.05073
_cell_angle_beta                  90.233321
_cell_angle_gamma                 90.459312
_cell_volume                      2233.88426374

loop_
_atom_site_label
_atom_site_type_symbol
_atom_type_description
_atom_site_fract_x
_atom_site_fract_y
_atom_site_fract_z
_atom_type_partial_charge
C1    C     C_R   0.379783 0.882833 0.499793 0.789036
C2    C     C_R   0.384664 0.122197 0.501036 0.776837
C3    C     C_R   0.879783 0.382832 0.499793 0.789040
C4    C     C_R   0.884661 0.622195 0.501036 0.776838
C5    C     C_R   0.278081 0.215230 0.380145 -0.210513
C6    C     C_R   0.326425 0.741629 0.433863 -0.193793
C7    C     C_R   0.778076 0.715226 0.380145 -0.210375
C8    C     C_R   0.826425 0.241630 0.433862 -0.193787
C9    C     C_R   0.708060 0.772418 0.380097 -0.245723
C10   C     C_R   0.762447 0.177407 0.434503 -0.205305
C11   C     C_R   0.208068 0.272426 0.380100 -0.245695
C12   C     C_R   0.262447 0.677406 0.434507 -0.205258
C13   C     C_R   0.673771 0.803061 0.506043 -0.117223
C14   C     C_R   0.680390 0.190364 0.500050 -0.093668
C15   C     C_R   0.173785 0.303073 0.506050 -0.117128
C16   C     C_R   0.180389 0.690365 0.500057 -0.093699
C17   C     C_R   0.665256 0.000922 0.144825 -0.206196
C18   C     C_R   0.165254 0.500963 0.144827 -0.206162
C19   C     C_R   0.746884 0.003698 0.073465 0.010893
C20   C     C_R   0.246872 0.503833 0.073461 0.010829
C21   C     C_R   0.745561 0.003103 0.928724 -0.240611
C22   C     C_R   0.245560 0.503250 0.928726 -0.240632
C23   C     C_R   0.664769 0.001099 0.856638 -0.151930
C24   C     C_R   0.164771 0.501155 0.856636 -0.151926
C25   C     C_R   0.581115 0.000253 0.925601 0.197363
C26   C     C_R   0.081115 0.500277 0.925600 0.197353
C27   C     C_R   0.581205 0.000100 0.075118 0.193844
C28   C     C_R   0.081204 0.500120 0.075119 0.193851
C29   C     C_R   0.422858 0.000154 0.073455 -0.062070
C30   C     C_R   0.922858 0.500135 0.073455 -0.062047
C31   C     C_R   0.617387 0.119879 0.500114 0.772515
C32   C     C_R   0.613146 0.876266 0.501095 0.780046
C33   C     C_R   0.117385 0.619880 0.500116 0.772529
C34   C     C_R   0.113151 0.376269 0.501096 0.780096
C35   C     C_R   0.422893 0.000141 0.925417 -0.066797
C36   C     C_R   0.922893 0.500122 0.925417 -0.066786
C37   C     C_R   0.335888 0.219191 0.763290 -0.177401
C38   C     C_R   0.204166 0.916218 0.620068 -0.189688
C39   C     C_R   0.835847 0.719160 0.763298 -0.177427
C40   C     C_R   0.704163 0.416218 0.620045 -0.189655
C41   C     C_R   0.294701 0.238877 0.889466 -0.152691
C42   C     C_R   0.119929 0.930846 0.677591 -0.144975
C43   C     C_R   0.794643 0.738830 0.889466 -0.152670
C44   C     C_R   0.619910 0.430856 0.677522 -0.144924
C45   C     C_R   0.706355 0.765828 0.890188 -0.147500
C46   C     C_R   0.555189 0.366241 0.676906 -0.154977
C47   C     C_R   0.206414 0.265878 0.890205 -0.147559
C48   C     C_R   0.055218 0.866223 0.677006 -0.154972
C49   C     C_R   0.662430 0.781271 0.764309 -0.160289
C50   C     C_R   0.574420 0.286646 0.618898 -0.174260
C51   C     C_R   0.162473 0.281306 0.764332 -0.160304
C52   C     C_R   0.074439 0.786633 0.618970 -0.174237
C53   C     C_R   0.707048 0.770795 0.634876 0.098638
C54   C     C_R   0.659635 0.269985 0.561727 0.106963
C55   C     C_R   0.207076 0.270818 0.634886 0.098635
C56   C     C_R   0.159639 0.769982 0.561751 0.106950
C57   C     C_R   0.288981 0.226693 0.634469 0.088828
C58   C     C_R   0.225252 0.835665 0.561817 0.095558
C59   C     C_R   0.788954 0.726672 0.634469 0.088821
C60   C     C_R   0.725252 0.335664 0.561806 0.095561
C61   C     C_R   0.319532 0.191735 0.505648 -0.120465
C62   C     C_R   0.309104 0.819515 0.499277 -0.102738
C63   C     C_R   0.819520 0.691726 0.505649 -0.120478
C64   C     C_R   0.809107 0.319513 0.499278 -0.102714
Cu1   Cu    Cu3+1 0.499990 0.000000 0.640660 0.915618
Cu2   Cu    Cu3+1 0.999990 0.500000 0.640660 0.915622
Cu3   Cu    Cu3+1 0.500010 1.000000 0.359340 0.930076
Cu4   Cu    Cu3+1 0.000010 0.500000 0.359340 0.930119
H1    H     H_    0.300360 0.190111 0.280822 0.163281
H2    H     H_    0.390507 0.729970 0.384630 0.153357
H3    H     H_    0.800365 0.690115 0.280824 0.163293
H4    H     H_    0.890505 0.229974 0.384628 0.153340
H5    H     H_    0.807620 0.003522 0.870320 0.146191
H6    H     H_    0.307627 0.503744 0.870341 0.146271
H7    H     H_    0.672352 0.000575 0.746661 0.209395
H8    H     H_    0.172355 0.500593 0.746660 0.209399
H9    H     H_    0.359722 0.000336 0.869569 0.143728
H10   H     H_    0.859722 0.500302 0.869569 0.143737
H11   H     H_    0.405180 0.200705 0.769657 0.165945
H12   H     H_    0.251662 0.968862 0.619745 0.141045
H13   H     H_    0.905140 0.700679 0.769679 0.165949
H14   H     H_    0.751663 0.468858 0.619740 0.141037
H15   H     H_    0.330685 0.231025 0.986955 0.138160
H16   H     H_    0.104504 0.992857 0.721407 0.137338
H17   H     H_    0.830615 0.730971 0.986962 0.138175
H18   H     H_    0.604481 0.492870 0.721321 0.137367
H19   H     H_    0.672442 0.776702 0.988266 0.130716
H20   H     H_    0.489476 0.378108 0.720027 0.136885
H21   H     H_    0.172513 0.276762 0.988292 0.130733
H22   H     H_    0.989521 0.878078 0.720175 0.136855
H23   H     H_    0.592781 0.799013 0.770577 0.165474
H24   H     H_    0.521660 0.239102 0.616801 0.129701
H25   H     H_    0.092823 0.299043 0.770618 0.165490
H26   H     H_    0.021686 0.739083 0.616898 0.129737
H27   H     H_    0.681476 0.793478 0.280567 0.162770
H28   H     H_    0.777521 0.116676 0.385939 0.154494
H29   H     H_    0.181476 0.293479 0.280569 0.162751
H30   H     H_    0.277522 0.616672 0.385950 0.154554
H31   H     H_    0.359667 0.000331 0.128413 0.137684
H32   H     H_    0.859666 0.500297 0.128413 0.137706
H33   H     H_    0.671324 0.001394 0.254811 0.200509
H34   H     H_    0.171336 0.501387 0.254816 0.200526
N1    N     N_R   0.501200 0.000000 0.147910 -0.193008
N2    N     N_R   0.001200 0.500000 0.147910 -0.193012
N3    N     N_R   0.501270 0.000000 0.852040 -0.201781
N4    N     N_R   0.001270 0.500000 0.852040 -0.201787
O1    O     O_R   0.409820 0.909830 0.618810 -0.581576
O2    O     O_R   0.409820 0.090170 0.618810 -0.599186
O3    O     O_R   0.909820 0.409830 0.618810 -0.581580
O4    O     O_R   0.909820 0.590170 0.618810 -0.599196
O5    O     O_R   0.409840 0.909830 0.381240 -0.573010
O6    O     O_R   0.409840 0.090170 0.381240 -0.576836
O7    O     O_R   0.909840 0.409830 0.381240 -0.573001
O8    O     O_R   0.909840 0.590170 0.381240 -0.576829
O9    O     O_R   0.590170 0.090170 0.618760 -0.599748
O10   O     O_R   0.590170 0.909830 0.618760 -0.609116
O11   O     O_R   0.090170 0.590170 0.618760 -0.599764
O12   O     O_R   0.090170 0.409830 0.618760 -0.609132
O13   O     O_R   0.590190 0.090180 0.381190 -0.586604
O14   O     O_R   0.590190 0.909820 0.381190 -0.602511
O15   O     O_R   0.090190 0.590180 0.381190 -0.586587
O16   O     O_R   0.090190 0.409820 0.381190 -0.602493
C65   C     C_R   0.833657 0.009083 0.150532 0.117754
C66   C     C_R   0.848275 0.959670 0.271132 -0.192732
C67   C     C_R   0.929103 0.966103 0.344846 -0.126149
C68   C     C_R   0.996274 0.022076 0.299378 -0.104705
C69   C     C_R   0.982736 0.071566 0.179876 -0.149889
C70   C     C_R   0.902025 0.065148 0.105590 -0.142718
H35   H     H_    0.797322 0.916074 0.308237 0.138243
H36   H     H_    0.939522 0.927712 0.437389 0.140867
H37   H     H_    0.058735 0.027160 0.356818 0.134321
H38   H     H_    0.034693 0.115220 0.145032 0.127664
H39   H     H_    0.892463 0.105061 0.014488 0.126340
C71   C     C_R   0.333626 0.509321 0.150529 0.117651
C72   C     C_R   0.348402 0.459718 0.270867 -0.192707
C73   C     C_R   0.429204 0.466272 0.344629 -0.126172
C74   C     C_R   0.496178 0.522568 0.299476 -0.104792
C75   C     C_R   0.482474 0.572248 0.180226 -0.150010
C76   C     C_R   0.401796 0.565696 0.105879 -0.142736
H40   H     H_    0.297588 0.415885 0.307718 0.138318
H41   H     H_    0.439755 0.427731 0.436970 0.140931
H42   H     H_    0.558614 0.527754 0.356961 0.134305
H43   H     H_    0.534275 0.616151 0.145631 0.127683
H44   H     H_    0.392089 0.605744 0.014970 0.126484

loop_
_geom_bond_atom_site_label_1
_geom_bond_atom_site_label_2
_ccdc_geom_bond_type
C34   O12   A    
Cu2   Cu4   S    
C74   H42   S    
C58   C62   A    
C68   C69   A    
C40   C60   A    
C21   H5    S    
C47   H21   S    
C13   C32   S    
C14   C31   S    
C1    C62   S    
C26   N4    A    
C53   C59   A    
C25   N3    A    
C72   C73   A    
C54   C60   A    
C3    C64   S    
C33   O11   A    
C37   H11   S    
C4    C63   S    
C19   C65   S    
C50   C54   A    
C4    O8    A    
C45   H19   S    
Cu2   N4    S    
C38   C42   A    
C75   H43   S    
C6    C12   A    
C41   H15   S    
C30   H32   S    
C29   N1    A    
C18   C20   A    
C6    H2    S    
C18   H34   S    
Cu1   N3    S    
C9    C13   A    
C69   H38   S    
C5    H1    S    
C38   C58   A    
C11   C15   A    
C67   H36   S    
C12   C16   A    
Cu1   Cu3   S    
Cu2   O11   S    
C52   H26   S    
C10   H28   S    
Cu3   O14   S    
C9    H27   S    
C15   C34   S    
C12   H30   S    
C2    C61   S    
Cu4   O7    S    
C39   C59   A    
C34   O16   A    
C48   H22   S    
C33   O15   A    
Cu1   O9    S    
C49   H23   S    
C44   H18   S    
C31   O9    A    
C44   C46   A    
C46   C50   A    
C13   C53   A    
C72   H40   S    
C8    H4    S    
C29   H31   S    
C36   N4    A    
C43   H17   S    
C40   H14   S    
C65   C66   A    
C42   H16   S    
C39   H13   S    
C3    O7    A    
Cu4   O16   S    
C71   C76   A    
C24   H8    S    
C39   C43   A    
Cu3   N1    S    
C35   H9    S    
C32   O10   A    
C60   C64   A    
C17   C27   A    
C16   C56   A    
C73   H41   S    
C35   N3    A    
C16   C33   S    
C76   H44   S    
C28   N2    A    
C45   C49   A    
C2    O6    A    
C41   C47   A    
C18   C28   A    
C42   C48   A    
Cu2   O4    S    
C57   C61   A    
C43   C45   A    
C7    C63   A    
C8    C64   A    
Cu3   O5    S    
C14   C54   A    
C20   C22   A    
C21   C23   A    
C10   C14   A    
C67   C68   A    
Cu1   O10   S    
C22   C24   A    
C22   H6    S    
C40   C44   A    
C69   C70   A    
C50   H24   S    
C7    C9    A    
C4    O4    A    
Cu1   O2    S    
C19   C21   A    
C26   C28   A    
C17   H33   S    
Cu4   N2    S    
C23   H7    S    
C73   C74   A    
Cu4   O15   S    
C47   C51   A    
C5    C11   A    
C71   C72   A    
C25   C27   A    
C74   C75   A    
C29   C35   A    
C59   C63   A    
C51   H25   S    
C46   H20   S    
C30   C36   A    
C11   H29   S    
C6    C62   A    
C55   C57   A    
C36   H10   S    
C70   H39   S    
C1    O5    A    
C7    H3    S    
C24   C26   A    
Cu4   O8    S    
C65   C70   A    
C38   H12   S    
C68   H37   S    
C3    O3    A    
C49   C53   A    
C2    O2    A    
C17   C19   A    
C56   C58   A    
C66   H35   S    
C51   C55   A    
C23   C25   A    
Cu2   O3    S    
C37   C41   A    
C75   C76   A    
C1    O1    A    
C52   C56   A    
Cu3   O6    S    
C48   C52   A    
C32   O14   A    
C8    C10   A    
Cu2   O12   S    
C30   N2    A    
C20   C71   S    
C31   O13   A    
Cu3   O13   S    
C27   N1    A    
Cu1   O1    S    
C37   C57   A    
C5    C61   A    
C15   C55   A    
C66   C67   A    
