data_mof_unit_25594.cif
_audit_creation_date              2012-12-10T17:07:50-0500
_audit_creation_method            fapswitch 2.2
_symmetry_space_group_name_H-M    P1
_symmetry_Int_Tables_number       1
_space_group_crystal_system       triclinic
_cell_length_a                    10.70942
_cell_length_b                    10.683134
_cell_length_c                    10.007068
_cell_angle_alpha                 91.031815
_cell_angle_beta                  89.511818
_cell_angle_gamma                 89.437401
_cell_volume                      1144.62619815

loop_
_atom_site_label
_atom_site_type_symbol
_atom_type_description
_atom_site_fract_x
_atom_site_fract_y
_atom_site_fract_z
_atom_type_partial_charge
C1    C     C_R   0.503169 0.262440 0.498474 0.918562
C2    C     C_3   0.877833 0.497181 0.501428 0.020141
C3    C     C_3   0.923363 0.633513 0.536686 -0.039757
C4    C     C_3   0.930361 0.464224 0.359411 -0.493483
C5    C     C_2   0.461206 0.932668 0.392957 -0.172318
C6    C     C_2   0.452948 0.867388 0.506128 0.035677
C7    C     C_2   0.455891 0.067400 0.394366 -0.171078
C8    C     C_2   0.511260 0.130127 0.493334 -0.334534
C9    C     C_2   0.570485 0.572687 0.925625 -0.135260
C10   C     C_2   0.576263 0.566613 0.075599 -0.135407
C11   C     C_R   0.257713 0.497667 0.501042 0.885757
C12   C     C_R   0.490439 0.737674 0.501530 0.884160
C13   C     C_R   0.741873 0.497279 0.499509 0.919500
C14   C     C_3   0.072330 0.377557 0.586459 0.381806
C15   C     C_3   0.927750 0.398178 0.604911 0.029443
C16   C     C_3   0.068090 0.630668 0.561913 0.361479
C17   C     C_3   0.071821 0.480257 0.358073 -0.495472
C18   C     C_3   0.120937 0.497064 0.505394 0.058113
N1    N     N_2   0.501360 0.501330 0.852150 -0.194369
N2    N     N_2   0.501390 0.501360 0.147810 -0.191644
O1    O     O_R   0.499980 0.319060 0.613040 -0.625670
O2    O     O_R   0.500020 0.319100 0.386900 -0.609233
O3    O     O_R   0.314770 0.499960 0.613070 -0.624443
O4    O     O_R   0.314820 0.500000 0.386930 -0.628315
O5    O     O_R   0.499980 0.680900 0.613100 -0.605309
O6    O     O_R   0.500020 0.680940 0.386960 -0.627231
O7    O     O_R   0.685180 0.500000 0.613070 -0.618088
O8    O     O_R   0.685230 0.500040 0.386930 -0.627950
Zn1   Zn    Zn3+2 0.499970 0.499970 0.650990 0.914875
Zn2   Zn    Zn3+2 0.500030 0.500030 0.349010 0.922675
C19   C     C_3   0.132391 0.355125 0.726381 -0.910282
H1    H     H_    0.228177 0.314788 0.716363 0.265567
H2    H     H_    0.139495 0.437366 0.792448 0.234107
H3    H     H_    0.077503 0.285437 0.782544 0.226100
H4    H     H_    0.890287 0.526971 0.282714 0.194246
C20   C     C_3   0.127050 0.742341 0.485633 -0.908332
H5    H     H_    0.229831 0.740371 0.492718 0.244328
H6    H     H_    0.102746 0.744105 0.378470 0.214099
H7    H     H_    0.093570 0.833551 0.528275 0.243874
H8    H     H_    0.905910 0.688509 0.444830 0.167266
H9    H     H_    0.486158 0.888082 0.297866 0.152593
C21   C     C_3   0.393909 0.918136 0.635358 -0.891321
H10   H     H_    0.327420 0.849132 0.675992 0.242491
H11   H     H_    0.467208 0.934416 0.711314 0.237147
H12   H     H_    0.338925 0.005343 0.620743 0.256306
H13   H     H_    0.411926 0.114534 0.311394 0.166814
H14   H     H_    0.561136 0.083873 0.572823 0.167451
H15   H     H_    0.629920 0.639798 0.876604 0.159128
H16   H     H_    0.450400 0.432716 0.897026 0.161368
H17   H     H_    0.646385 0.622489 0.125773 0.153516
C22   C     C_3   0.104998 0.252681 0.507099 -0.858865
H18   H     H_    0.046514 0.236712 0.418062 0.231278
H19   H     H_    0.204333 0.251492 0.474194 0.213732
H20   H     H_    0.092521 0.168709 0.569681 0.241175
H21   H     H_    0.430042 0.454398 0.101842 0.159095
C23   C     C_3   0.853448 0.273676 0.606803 -0.938481
H22   H     H_    0.899854 0.203901 0.670896 0.245259
H23   H     H_    0.759117 0.287864 0.651034 0.258369
H24   H     H_    0.842534 0.233172 0.504797 0.241075
H25   H     H_    0.911213 0.440794 0.705838 0.164944
C24   C     C_3   0.097342 0.657466 0.712532 -0.871926
H26   H     H_    0.036762 0.604100 0.780292 0.216898
H27   H     H_    0.196331 0.642310 0.737811 0.258383
H28   H     H_    0.079476 0.757163 0.740309 0.235139
C25   C     C_3   0.844923 0.708337 0.642946 -0.920529
H29   H     H_    0.835706 0.656848 0.737691 0.252431
H30   H     H_    0.886602 0.801376 0.663021 0.243911
H31   H     H_    0.750074 0.728608 0.604744 0.244557
H32   H     H_    0.096299 0.560381 0.294674 0.198463
H33   H     H_    0.116189 0.399347 0.304189 0.204360
H34   H     H_    0.904906 0.367417 0.328836 0.201637

loop_
_geom_bond_atom_site_label_1
_geom_bond_atom_site_label_2
_ccdc_geom_bond_type
O1    Zn1   S    
C24   H28   S    
C2    C4    S    
C19   H2    S    
C13   O8    A    
C1    O1    A    
C10   N2    D    
O7    Zn1   S    
C1    C8    S    
C22   H19   S    
C9    C10   S    
C14   C18   S    
C19   H1    S    
C23   H24   S    
C14   C19   S    
C22   H20   S    
C15   C23   S    
C25   H31   S    
O8    Zn2   S    
C2    C3    S    
C8    H14   S    
C1    O2    A    
C11   C18   S    
C16   C18   S    
N2    Zn2   S    
C16   C20   S    
C17   H32   S    
C2    C15   S    
C10   H17   S    
C3    C25   S    
C21   H11   S    
N2    H21   S    
C5    C6    D    
C4    C17   S    
O3    Zn1   S    
C6    C12   S    
C20   H6    S    
C20   H5    S    
C23   H23   S    
C3    H8    S    
O6    Zn2   S    
C20   H7    S    
O5    Zn1   S    
C24   H26   S    
O4    Zn2   S    
C4    H4    S    
C16   C24   S    
C12   O5    A    
C22   H18   S    
N1    Zn1   S    
C7    H13   S    
C11   O4    A    
C7    C8    D    
C19   H3    S    
C23   H22   S    
C9    H15   S    
C17   C18   S    
C25   H29   S    
C15   H25   S    
C11   O3    A    
C5    C7    S    
C2    C13   S    
N1    H16   S    
C14   C15   S    
C13   O7    A    
C5    H9    S    
O2    Zn2   S    
C25   H30   S    
C17   H33   S    
C9    N1    D    
C4    H34   S    
C3    C16   S    
C14   C22   S    
C21   H10   S    
C12   O6    A    
C24   H27   S    
C21   H12   S    
C6    C21   S    
