data_mof_unit_17939.cif
_audit_creation_date              2012-12-10T17:36:43-0500
_audit_creation_method            fapswitch 2.2
_symmetry_space_group_name_H-M    P1
_symmetry_Int_Tables_number       1
_space_group_crystal_system       triclinic
_cell_length_a                    11.978304
_cell_length_b                    12.865918
_cell_length_c                    15.725834
_cell_angle_alpha                 90.126548
_cell_angle_beta                  86.499901
_cell_angle_gamma                 93.274986
_cell_volume                      2415.06455277

loop_
_atom_site_label
_atom_site_type_symbol
_atom_type_description
_atom_site_fract_x
_atom_site_fract_y
_atom_site_fract_z
_atom_type_partial_charge
C1    C     C_R   0.522031 0.700447 0.498395 0.885695
C2    C     C_R   0.551541 0.025667 0.509396 0.184757
C3    C     C_R   0.954286 0.403994 0.418489 0.415178
C4    C     C_R   0.046418 0.601785 0.576550 0.419313
C5    C     C_R   0.837697 0.411541 0.428674 -0.083152
C6    C     C_R   0.162380 0.589448 0.570495 -0.079764
C7    C     C_R   0.858269 0.543254 0.533075 -0.047003
C8    C     C_R   0.141941 0.458258 0.465590 -0.052256
C9    C     C_R   0.975993 0.537760 0.526989 -0.100343
C10   C     C_R   0.024500 0.465993 0.469737 -0.099903
C11   C     C_R   0.500435 0.500120 0.662096 0.902374
C12   C     C_R   0.477993 0.299530 0.501581 0.886234
C13   C     C_R   0.499561 0.499877 0.337941 0.902487
C14   C     C_3   0.469164 0.591853 0.029430 0.419677
C15   C     C_3   0.530551 0.408315 0.970868 0.424791
C16   C     C_3   0.572487 0.574949 0.969662 0.496587
C17   C     C_3   0.427228 0.425246 0.030638 0.496641
C18   C     C_1   0.501091 0.500308 0.750921 -0.172932
C19   C     C_1   0.498874 0.499740 0.249189 -0.186633
C20   C     C_3   0.393849 0.517847 0.976916 -0.496508
C21   C     C_3   0.605871 0.482352 0.023366 -0.494186
C22   C     C_3   0.499139 0.500569 0.917061 -0.059435
C23   C     C_R   0.645951 0.969771 0.521764 -0.216985
C24   C     C_3   0.500604 0.499609 0.083172 -0.058137
C25   C     C_1   0.500581 0.500486 0.826190 0.091981
C26   C     C_1   0.499286 0.499628 0.173968 0.083471
C27   C     C_R   0.464766 0.188201 0.501452 -0.053464
C28   C     C_R   0.535410 0.811729 0.498236 -0.046665
C29   C     C_3   0.710358 0.702330 0.991613 -0.288209
C30   C     C_3   0.288390 0.298543 0.009371 -0.315318
C31   C     C_3   0.401327 0.752723 0.006186 0.088124
C32   C     C_3   0.388870 0.860663 0.045036 -0.317338
C33   C     C_3   0.347303 0.936357 0.981076 -0.977957
C34   C     C_R   0.354683 0.030159 0.477057 -0.226732
C35   C     C_3   0.598812 0.247749 0.994471 0.090007
C36   C     C_3   0.612647 0.139970 0.955696 -0.314268
C37   C     C_3   0.654502 0.064750 0.019895 -0.980847
C38   C     C_3   0.032256 0.380074 0.283706 0.074202
C39   C     C_3   0.938284 0.370312 0.221727 -0.365486
C40   C     C_3   0.978536 0.410736 0.133292 -0.941156
C41   C     C_3   0.984150 0.766145 0.593472 0.059132
C42   C     C_3   0.081114 0.846372 0.606259 -0.345834
C43   C     C_3   0.056608 0.952837 0.571525 -0.955581
C44   C     C_R   0.637918 0.862325 0.516091 -0.203207
C45   C     C_R   0.362476 0.137568 0.483141 -0.198882
C46   C     C_R   0.441948 0.867617 0.483749 -0.282286
C47   C     C_R   0.558333 0.132327 0.515759 -0.274099
C48   C     C_R   0.448933 0.974278 0.489789 0.187389
H1    H     H_    0.690291 0.468138 0.044765 0.169816
H2    H     H_    0.818591 0.597152 0.576583 0.169278
H3    H     H_    0.216677 0.636581 0.609577 0.148736
H4    H     H_    0.783067 0.362435 0.391317 0.148665
H5    H     H_    0.768803 0.647665 0.017001 0.167123
H6    H     H_    0.657775 0.735711 0.044433 0.184898
H7    H     H_    0.761810 0.767701 0.960646 0.186929
H8    H     H_    0.340170 0.265377 0.955975 0.193499
H9    H     H_    0.229682 0.353541 0.984810 0.168849
H10   H     H_    0.237140 0.233146 0.040489 0.184780
H11   H     H_    0.318010 0.721845 0.986724 0.145222
H12   H     H_    0.309415 0.532162 0.955622 0.173548
H13   H     H_    0.460834 0.760424 0.948952 0.173221
H14   H     H_    0.328584 0.854827 0.101671 0.230370
H15   H     H_    0.471291 0.891240 0.066110 0.228647
H16   H     H_    0.406428 0.943376 0.923884 0.267292
H17   H     H_    0.341261 0.014388 0.010792 0.268669
H18   H     H_    0.263133 0.908953 0.961364 0.266596
H19   H     H_    0.539018 0.239589 0.051500 0.172713
H20   H     H_    0.681739 0.279302 0.014226 0.143303
H21   H     H_    0.530704 0.108675 0.934251 0.228613
H22   H     H_    0.673316 0.146299 0.899319 0.232328
H23   H     H_    0.637155 0.171774 0.530904 0.165950
H24   H     H_    0.738192 0.092959 0.040045 0.266554
H25   H     H_    0.661667 0.986817 0.990215 0.268706
H26   H     H_    0.594951 0.057190 0.076799 0.267182
H27   H     H_    0.104999 0.338823 0.256119 0.186898
H28   H     H_    0.062179 0.463407 0.290207 0.126713
H29   H     H_    0.908277 0.287288 0.216722 0.234208
H30   H     H_    0.866956 0.415773 0.245955 0.210452
H31   H     H_    0.007669 0.494099 0.136613 0.267288
H32   H     H_    0.908458 0.403185 0.090181 0.256048
H33   H     H_    0.048215 0.364937 0.106437 0.271734
H34   H     H_    0.363030 0.828183 0.468791 0.157610
H35   H     H_    0.905967 0.796133 0.623464 0.170333
H36   H     H_    0.970364 0.757408 0.524094 0.116138
H37   H     H_    0.094801 0.853649 0.675346 0.238998
H38   H     H_    0.159046 0.820097 0.573016 0.204593
H39   H     H_    0.046981 0.948290 0.501782 0.262627
H40   H     H_    0.127002 0.009797 0.583617 0.271378
H41   H     H_    0.978742 0.980842 0.603592 0.265980
H42   H     H_    0.289891 0.180866 0.471657 0.170114
H43   H     H_    0.710531 0.818990 0.527459 0.150193
H44   H     H_    0.725021 0.008875 0.536465 0.143226
H45   H     H_    0.275990 0.991005 0.461629 0.151373
H46   H     H_    0.181500 0.403600 0.422698 0.167633
N1    N     N_R   0.207800 0.519340 0.515560 -0.129846
N2    N     N_R   0.792200 0.480660 0.484440 -0.130442
O1    O     O_R   0.421700 0.658830 0.504150 -0.630048
O2    O     O_3   0.355150 0.346874 0.070420 -0.610670
O3    O     O_3   0.440843 0.686773 0.067795 -0.640405
O4    O     O_3   0.558894 0.313273 0.932726 -0.637852
O5    O     O_3   0.997471 0.331392 0.362382 -0.658281
O6    O     O_3   0.002796 0.671587 0.634912 -0.645280
O7    O     O_R   0.578300 0.341170 0.495850 -0.624460
O8    O     O_R   0.609310 0.646410 0.494170 -0.629281
O9    O     O_R   0.390690 0.353590 0.505830 -0.623100
O10   O     O_R   0.406210 0.506220 0.628210 -0.615739
O11   O     O_R   0.593790 0.493780 0.371790 -0.622131
O12   O     O_R   0.593830 0.493800 0.618230 -0.602756
O13   O     O_R   0.406170 0.506200 0.381770 -0.612311
O14   O     O_3   0.644662 0.653434 0.930149 -0.602548
Zn1   Zn    Zn3+2 0.374730 0.508290 0.506660 0.948068
Zn2   Zn    Zn3+2 0.625270 0.491710 0.493340 0.948582

loop_
_geom_bond_atom_site_label_1
_geom_bond_atom_site_label_2
_ccdc_geom_bond_type
C37   H26   S    
C11   C18   S    
C16   C21   S    
O11   Zn2   S    
C31   H13   S    
C35   C36   S    
C34   H45   S    
C15   O4    S    
C13   O11   A    
C21   H1    S    
C16   O14   S    
C14   O3    S    
C38   H28   S    
C7    N2    A    
N2    Zn2   S    
C28   C46   A    
C43   H41   S    
C43   H40   S    
C39   H29   S    
C36   C37   S    
C24   C26   S    
C38   O5    S    
O13   Zn1   S    
C38   C39   S    
O1    Zn1   S    
C29   H6    S    
C14   C24   S    
C41   H35   S    
C30   H9    S    
C17   C20   S    
C41   O6    S    
C15   C17   S    
C41   C42   S    
C31   H11   S    
C19   C26   T    
C13   O13   A    
C46   H34   S    
C15   C22   S    
C22   C25   S    
C4    O6    S    
C1    C28   S    
C40   H32   S    
C5    H4    S    
C42   H38   S    
C31   O3    S    
C6    H3    S    
C20   H12   S    
C9    C10   A    
O10   Zn1   S    
C3    O5    S    
O9    Zn1   S    
C18   C25   T    
C36   H22   S    
C33   H18   S    
C38   H27   S    
C46   C48   A    
C17   C24   S    
C13   C19   S    
C12   C27   S    
C33   H17   S    
C39   H30   S    
C14   C20   S    
C29   O14   S    
C8    H46   S    
C7    H2    S    
C12   O7    A    
C4    C6    A    
C1    O1    A    
C39   C40   S    
C34   C45   A    
C29   H7    S    
C2    C48   A    
C41   H36   S    
C30   H8    S    
C28   C44   A    
C8    N1    A    
C23   C44   A    
O12   Zn2   S    
O7    Zn2   S    
C31   C32   S    
C35   H19   S    
C11   O10   A    
C40   H31   S    
C42   H37   S    
C45   H42   S    
C1    O8    A    
C47   H23   S    
C44   H43   S    
C20   C22   S    
C14   C16   S    
C21   C24   S    
C34   C48   A    
C42   C43   S    
C35   O4    S    
C11   O12   A    
C5    N2    A    
C36   H21   S    
O8    Zn2   S    
C17   O2    S    
C27   C47   A    
C7    C9    A    
C37   H25   S    
C16   C22   S    
C40   H33   S    
C32   H15   S    
C3    C5    A    
C2    C47   A    
C30   O2    S    
C43   H39   S    
C32   C33   S    
C32   H14   S    
C3    C10   A    
N1    Zn1   S    
C27   C45   A    
C12   O9    A    
C29   H5    S    
C35   H20   S    
C33   H16   S    
C30   H10   S    
C15   C21   S    
C8    C10   A    
C6    N1    A    
C37   H24   S    
C2    C23   A    
C23   H44   S    
C4    C9    A    
