data_mof_unit_52192.cif
_audit_creation_date              2012-10-26T20:48:29-0400
_audit_creation_method            fapswitch 2.2
_symmetry_space_group_name_H-M    P1
_symmetry_Int_Tables_number       1
_space_group_crystal_system       triclinic
_cell_length_a                    15.140254
_cell_length_b                    13.836631
_cell_length_c                    19.363857
_cell_angle_alpha                 89.991656
_cell_angle_beta                  90.146388
_cell_angle_gamma                 89.99699
_cell_volume                      4056.52320243

loop_
_atom_site_label
_atom_site_type_symbol
_atom_type_description
_atom_site_fract_x
_atom_site_fract_y
_atom_site_fract_z
_atom_type_partial_charge
C1    C     C_R   0.329836 0.500008 0.499967 0.547576
C2    C     C_R   0.567255 0.892102 0.533253 -0.143014
C3    C     C_R   0.539226 0.209384 0.552782 0.042728
C4    C     C_R   0.434333 0.790561 0.466973 0.045306
C5    C     C_R   0.460732 0.209395 0.447246 0.044005
C6    C     C_R   0.565640 0.790541 0.533060 0.043806
C7    C     C_R   0.499963 0.054643 0.500034 0.025128
C8    C     C_R   0.499967 0.945297 0.500037 0.026201
C9    C     C_R   0.499938 0.499996 0.367351 0.549800
C10   C     C_R   0.500129 0.499983 0.632673 0.550510
C11   C     C_R   0.515200 0.585640 0.255035 -0.145034
C12   C     C_R   0.670163 0.500005 0.500027 0.547475
C13   C     C_R   0.506459 0.412643 0.744985 -0.142509
C14   C     C_R   0.494743 0.587050 0.745097 -0.142947
C15   C     C_R   0.485061 0.414103 0.255078 -0.143837
C16   C     C_R   0.515396 0.586561 0.182881 -0.030099
C17   C     C_R   0.507889 0.411543 0.817186 -0.025014
C18   C     C_R   0.493828 0.587932 0.817304 -0.026242
C19   C     C_R   0.485548 0.412869 0.182926 -0.028312
C20   C     C_R   0.500655 0.499642 0.145783 0.018574
C21   C     C_R   0.500939 0.499675 0.853904 0.021035
C22   C     C_R   0.500012 0.499936 0.291437 -0.015117
C23   C     C_R   0.233395 0.500041 0.499939 0.015853
C24   C     C_R   0.500418 0.499899 0.708637 -0.014563
C25   C     C_R   0.500982 0.499532 0.929730 0.325396
C26   C     C_R   0.500825 0.499539 0.069451 0.332442
C27   C     C_R   0.095151 0.582683 0.478905 -0.120655
C28   C     C_R   0.904742 0.417527 0.478926 -0.122279
C29   C     C_R   0.904846 0.582673 0.521039 -0.120395
C30   C     C_R   0.095259 0.417512 0.521003 -0.121974
C31   C     C_R   0.186962 0.582867 0.479358 -0.130257
C32   C     C_R   0.812943 0.417266 0.479433 -0.131408
C33   C     C_R   0.813035 0.582854 0.520608 -0.130589
C34   C     C_R   0.766605 0.500037 0.500035 0.015792
C35   C     C_R   0.187058 0.417256 0.520519 -0.131696
C36   C     C_R   0.527826 0.680737 0.148319 0.046963
C37   C     C_R   0.612055 0.722905 0.145452 -0.074747
C38   C     C_R   0.623464 0.813261 0.114360 -0.101137
C39   C     C_R   0.550752 0.862553 0.087060 -0.090807
C40   C     C_R   0.466538 0.821479 0.090749 -0.099413
C41   C     C_R   0.455052 0.730369 0.120677 -0.077096
C42   C     C_R   0.521267 0.317554 0.852461 0.043598
C43   C     C_R   0.595568 0.302737 0.894786 -0.071206
C44   C     C_R   0.610030 0.212800 0.925647 -0.103844
C45   C     C_R   0.048553 0.500112 0.499961 0.033866
C46   C     C_R   0.550423 0.137174 0.914755 -0.102923
C47   C     C_R   0.476356 0.151288 0.872756 -0.108302
C48   C     C_R   0.461945 0.240976 0.841370 -0.085528
C49   C     C_R   0.480845 0.681844 0.852702 0.045224
C50   C     C_R   0.406812 0.696742 0.895001 -0.068893
C51   C     C_R   0.392734 0.786628 0.925975 -0.102040
C52   C     C_R   0.452445 0.862126 0.915202 -0.101257
C53   C     C_R   0.526255 0.847924 0.873239 -0.107189
C54   C     C_R   0.540292 0.758285 0.841756 -0.084498
C55   C     C_R   0.473542 0.318508 0.148467 0.047177
C56   C     C_R   0.951446 0.500115 0.499968 0.033849
C57   C     C_R   0.389838 0.274955 0.146551 -0.079555
C58   C     C_R   0.378891 0.184407 0.115618 -0.103771
C59   C     C_R   0.451579 0.136287 0.087532 -0.091185
C60   C     C_R   0.535304 0.178714 0.090291 -0.097858
C61   C     C_R   0.546290 0.270028 0.120042 -0.074516
C62   C     C_R   0.539304 0.107824 0.554098 -0.143662
C63   C     C_R   0.432687 0.892119 0.466816 -0.142143
C64   C     C_R   0.460622 0.107836 0.445961 -0.142936
Cu1   Cu    Cu3+1 0.500000 0.596430 0.500000 0.932802
Cu2   Cu    Cu3+1 0.500000 0.403570 0.500000 0.931258
H1    H     H_    0.526452 0.652623 0.282761 0.135626
H2    H     H_    0.778273 0.352834 0.462791 0.127638
H3    H     H_    0.778440 0.647261 0.537272 0.114536
H4    H     H_    0.221729 0.352814 0.537164 0.127192
H5    H     H_    0.569143 0.071758 0.597873 0.087713
H6    H     H_    0.378137 0.928189 0.441493 0.085649
H7    H     H_    0.430759 0.071779 0.402201 0.088141
H8    H     H_    0.621788 0.928158 0.558597 0.085550
H9    H     H_    0.570492 0.248670 0.594457 0.119120
H10   H     H_    0.382499 0.751161 0.440730 0.115774
H11   H     H_    0.429446 0.248688 0.405573 0.117481
H12   H     H_    0.512295 0.344963 0.717163 0.124159
H13   H     H_    0.617472 0.751126 0.559306 0.114776
H14   H     H_    0.668666 0.685641 0.167032 0.107836
H15   H     H_    0.688574 0.845320 0.111787 0.101647
H16   H     H_    0.559663 0.932646 0.063273 0.091500
H17   H     H_    0.410136 0.860347 0.070496 0.091469
H18   H     H_    0.389559 0.699095 0.123166 0.102832
H19   H     H_    0.642804 0.360376 0.903110 0.114663
H20   H     H_    0.667584 0.201698 0.957945 0.096675
H21   H     H_    0.561657 0.067728 0.938942 0.089116
H22   H     H_    0.430319 0.092625 0.864258 0.102844
H23   H     H_    0.488785 0.654813 0.717357 0.133799
H24   H     H_    0.404598 0.250857 0.808568 0.105896
H25   H     H_    0.359488 0.639210 0.903221 0.115254
H26   H     H_    0.335389 0.797794 0.958257 0.096724
H27   H     H_    0.441495 0.931544 0.939454 0.089137
H28   H     H_    0.572382 0.906481 0.864840 0.100479
H29   H     H_    0.597440 0.748339 0.808981 0.101583
H30   H     H_    0.333264 0.311286 0.168756 0.105090
H31   H     H_    0.314171 0.151285 0.113787 0.100694
H32   H     H_    0.443042 0.066038 0.063878 0.091546
H33   H     H_    0.591733 0.140702 0.069507 0.092408
H34   H     H_    0.473615 0.347217 0.282843 0.124584
H35   H     H_    0.611416 0.302332 0.121821 0.104173
H36   H     H_    0.060681 0.646709 0.461288 0.102648
H37   H     H_    0.939115 0.353535 0.461281 0.103589
H38   H     H_    0.939314 0.646690 0.538655 0.103341
H39   H     H_    0.060888 0.353510 0.538636 0.104218
H40   H     H_    0.221556 0.647284 0.462709 0.114688
N1    N     N_R   0.440468 0.446960 0.033645 -0.220906
N2    N     N_R   0.561216 0.552369 0.965281 -0.224083
N3    N     N_R   0.440689 0.446670 0.964974 -0.222953
N4    N     N_R   0.561283 0.552079 0.033952 -0.221546
N5    N     N_R   0.500000 0.258690 0.500000 -0.220324
N6    N     N_R   0.500000 0.741310 0.500000 -0.219325
O1    O     O_R   0.371460 0.581430 0.500010 -0.509785
O2    O     O_R   0.628540 0.418570 0.499990 -0.501288
O3    O     O_R   0.628540 0.581430 0.499990 -0.510760
O4    O     O_R   0.371460 0.418570 0.500010 -0.502428
O5    O     O_R   0.499990 0.581460 0.400140 -0.501414
O6    O     O_R   0.500010 0.418540 0.599860 -0.511177
O7    O     O_R   0.500010 0.581460 0.599860 -0.501292
O8    O     O_R   0.499990 0.418540 0.400140 -0.510421

loop_
_geom_bond_atom_site_label_1
_geom_bond_atom_site_label_2
_ccdc_geom_bond_type
C18   C21   A    
C9    O5    A    
C14   C18   A    
C30   C45   A    
C19   C20   A    
C15   H34   S    
C60   H33   S    
C28   C56   A    
C7    C8    S    
C7    C62   A    
C53   C54   A    
C15   C19   A    
C4    C63   A    
Cu2   O4    S    
C30   C35   A    
C36   C37   A    
C38   C39   A    
C9    C22   S    
C49   C54   A    
C29   C33   A    
C14   C24   A    
C17   C42   S    
C10   O7    A    
C46   C47   A    
C15   C22   A    
C35   H4    S    
C44   C46   A    
C57   H30   S    
C64   H7    S    
C1    O4    A    
Cu2   N5    S    
C3    H9    S    
C26   N4    A    
C2    H8    S    
C25   N3    A    
C32   H2    S    
C12   O3    A    
C27   C45   A    
C4    N6    A    
C59   C60   A    
C48   H24   S    
N1    N3    A    
C40   H17   S    
C36   C41   A    
C2    C6    A    
C58   H31   S    
C1    O1    A    
C44   H20   S    
C11   H1    S    
C33   C34   A    
C12   O2    A    
C37   H14   S    
C27   C31   A    
C51   C52   A    
C43   H19   S    
C28   C32   A    
C45   C56   S    
C3    N5    A    
C39   C40   A    
C6    N6    A    
C5    N5    A    
C10   C24   S    
C58   C59   A    
C41   H18   S    
C17   C21   A    
C5    C64   A    
C60   C61   A    
C32   C34   A    
C61   H35   S    
C43   C44   A    
C14   H23   S    
C37   C38   A    
C10   O6    A    
C51   H26   S    
C11   C16   A    
C47   C48   A    
C16   C20   A    
C50   C51   A    
Cu1   O7    S    
C52   H27   S    
C42   C48   A    
C54   H29   S    
C40   C41   A    
C1    C23   S    
C23   C35   A    
C55   C57   A    
C30   H39   S    
C13   C24   A    
C31   H40   S    
C42   C43   A    
Cu1   N6    S    
C12   C34   S    
C52   C53   A    
C46   H21   S    
C3    C62   A    
C19   C55   S    
C59   H32   S    
C21   C25   S    
C13   H12   S    
Cu2   O2    S    
C53   H28   S    
Cu1   O1    S    
C2    C8    A    
C39   H16   S    
C26   N1    A    
C29   C56   A    
C33   H3    S    
C18   C49   S    
C27   H36   S    
C13   C17   A    
C47   H22   S    
Cu1   O3    S    
C38   H15   S    
C16   C36   S    
C28   H37   S    
C6    H13   S    
C20   C26   S    
C55   C61   A    
N2    N4    A    
C62   H5    S    
Cu1   Cu2   S    
C7    C64   A    
C4    H10   S    
C8    C63   A    
C50   H25   S    
C63   H6    S    
C29   H38   S    
C11   C22   A    
C49   C50   A    
Cu2   O6    S    
C9    O8    A    
Cu1   O5    S    
Cu2   O8    S    
C57   C58   A    
C5    H11   S    
C25   N2    A    
C23   C31   A    
