data_mof_unit_38808.cif
_audit_creation_date              2012-12-10T20:51:44-0500
_audit_creation_method            fapswitch 2.2
_symmetry_space_group_name_H-M    P1
_symmetry_Int_Tables_number       1
_space_group_crystal_system       triclinic
_cell_length_a                    8.109948
_cell_length_b                    8.934096
_cell_length_c                    16.843805
_cell_angle_alpha                 89.535443
_cell_angle_beta                  93.874146
_cell_angle_gamma                 90.009229
_cell_volume                      1217.5898679

loop_
_atom_site_label
_atom_site_type_symbol
_atom_type_description
_atom_site_fract_x
_atom_site_fract_y
_atom_site_fract_z
_atom_type_partial_charge
C1    C     C_R   0.499966 0.218005 0.500004 0.940587
C2    C     C_R   0.589818 0.515554 0.136036 -0.136653
C3    C     C_R   0.553164 0.592545 0.900642 0.179130
C4    C     C_R   0.458425 0.601379 0.100006 0.188687
C5    C     C_R   0.694024 0.606043 0.857098 0.354771
C6    C     C_R   0.333602 0.654763 0.146486 0.374436
C7    C     C_R   0.683587 0.570974 0.776673 -0.285895
C8    C     C_R   0.338368 0.616987 0.226900 -0.265589
C9    C     C_1   0.499969 0.065187 0.499979 -0.173547
C10   C     C_1   0.500020 0.934803 0.499966 -0.170439
C11   C     C_R   0.500028 0.781995 0.499965 0.938645
C12   C     C_R   0.520621 0.501222 0.653748 0.900009
C13   C     C_R   0.479504 0.504521 0.346447 0.901398
C14   C     C_R   0.532960 0.525094 0.739022 -0.114198
C15   C     C_R   0.468505 0.530882 0.261570 -0.102916
C16   C     C_R   0.391824 0.514520 0.781880 -0.192886
C17   C     C_R   0.595459 0.482335 0.216364 -0.197985
C18   C     C_R   0.401659 0.547045 0.862147 -0.138672
H1    H     H_    0.697556 0.416810 0.242943 0.183230
H2    H     H_    0.274111 0.480135 0.753565 0.192990
H3    H     H_    0.686252 0.470364 0.101753 0.208136
H4    H     H_    0.291583 0.532452 0.894322 0.235638
H5    H     H_    0.792409 0.581778 0.743185 0.207802
H6    H     H_    0.242694 0.658391 0.262963 0.199078
H7    H     H_    0.800533 0.891719 0.923851 0.346139
H8    H     H_    0.291126 0.908186 0.022535 0.354028
N1    N     N_1   0.073640 0.500030 0.499990 -0.026080
N2    N     N_1   0.926360 0.499970 0.500010 -0.026231
N3    N     N_2   0.572310 0.605306 0.984147 -0.112233
N4    N     N_2   0.439594 0.616912 0.016564 -0.125141
O1    O     O_R   0.636850 0.285340 0.500000 -0.613667
O2    O     O_2   0.002560 0.710345 0.841617 -0.314746
O3    O     O_3   0.850763 0.814790 0.960623 -0.423242
O4    O     O_2   0.012717 0.682887 0.106184 -0.191782
O5    O     O_2   0.154999 0.902588 0.161545 -0.302977
O6    O     O_3   0.201473 0.833208 0.015326 -0.435306
O7    O     O_R   0.363150 0.714660 0.500000 -0.613395
O8    O     O_R   0.363100 0.285350 0.500000 -0.611633
O9    O     O_R   0.636900 0.714650 0.500000 -0.612619
O10   O     O_R   0.652140 0.498630 0.616140 -0.623234
O11   O     O_R   0.347860 0.501370 0.383860 -0.617929
O12   O     O_R   0.378390 0.498650 0.616130 -0.620810
O13   O     O_R   0.621610 0.501350 0.383870 -0.616000
O14   O     O_2   0.958170 0.541599 0.953427 -0.230411
S1    S     S_3+6 0.884157 0.666850 0.902752 0.076575
S2    S     S_3+6 0.170757 0.770789 0.107646 0.097421
Zn1   Zn    Zn3+2 0.682780 0.499990 0.500010 1.008199
Zn2   Zn    Zn3+2 0.317220 0.500010 0.499990 1.009320

loop_
_geom_bond_atom_site_label_1
_geom_bond_atom_site_label_2
_ccdc_geom_bond_type
N1    Zn2   S    
C12   O10   A    
O10   Zn1   S    
C2    C4    A    
N2    Zn1   S    
O6    S2    S    
N3    N4    D    
O4    S2    D    
O3    S1    S    
O2    S1    D    
O8    Zn2   S    
C1    O1    A    
C16   H2    S    
C3    C5    A    
C2    H3    S    
C13   O11   A    
C16   C18   A    
O12   Zn2   S    
O7    Zn2   S    
C11   O9    A    
C3    N3    S    
C5    S1    S    
C1    O8    A    
C7    H5    S    
C15   C17   A    
H8    O6    S    
C8    H6    S    
O11   Zn2   S    
C12   C14   S    
C8    C15   A    
C13   C15   S    
C14   C16   A    
C4    C6    A    
C10   C11   S    
C12   O12   A    
O1    Zn1   S    
C13   O13   A    
C1    C9    S    
O14   S1    D    
C3    C18   A    
O9    Zn1   S    
C9    C10   T    
N1    N2    T    
C5    C7    A    
C6    C8    A    
C6    S2    S    
C17   H1    S    
C18   H4    S    
O5    S2    D    
O13   Zn1   S    
C11   O7    A    
C7    C14   A    
C4    N4    S    
H7    O3    S    
C2    C17   A    
