data_mof_unit_66944.cif
_audit_creation_date              2013-03-05T15:57:30-0500
_audit_creation_method            fapswitch 2.2
_symmetry_space_group_name_H-M    P1
_symmetry_Int_Tables_number       1
_space_group_crystal_system       triclinic
_cell_length_a                    17.138778
_cell_length_b                    18.466523
_cell_length_c                    8.42188
_cell_angle_alpha                 90.067958
_cell_angle_beta                  101.585152
_cell_angle_gamma                 89.930601
_cell_volume                      2611.1655338

loop_
_atom_site_label
_atom_site_type_symbol
_atom_site_description
_atom_site_fract_x
_atom_site_fract_y
_atom_site_fract_z
_atom_type_partial_charge
P1    P     P_3+3 0.834140 0.419320 0.003900 0.424496
P2    P     P_3+3 0.834140 0.580680 0.503900 0.468096
P3    P     P_3+3 0.334140 0.919320 0.003900 0.474608
P4    P     P_3+3 0.334140 0.080680 0.503900 0.426571
O1    O     O_2   0.841960 0.394640 0.833410 -0.349706
O2    O     O_2   0.841960 0.605360 0.333410 -0.350992
O3    O     O_2   0.341960 0.894640 0.833410 -0.347099
O4    O     O_2   0.341960 0.105360 0.333410 -0.349444
O5    O     O_3   0.907950 0.463080 0.102990 -0.432084
O6    O     O_3   0.907950 0.536920 0.602990 -0.367233
O7    O     O_3   0.407950 0.963080 0.102990 -0.364985
O8    O     O_3   0.407950 0.036920 0.602990 -0.432132
O9    O     O_3   0.972780 0.329600 0.629720 -0.361078
O10   O     O_3   0.972780 0.670400 0.129720 -0.388688
O11   O     O_3   0.472780 0.829600 0.629720 -0.393216
O12   O     O_3   0.472780 0.170400 0.129720 -0.369615
O13   O     O_2   0.839434 0.271362 0.686202 -0.344790
O14   O     O_2   0.836663 0.723571 0.185708 -0.339173
O15   O     O_2   0.334879 0.778835 0.682640 -0.314402
O16   O     O_2   0.340288 0.229771 0.189289 -0.350166
O17   O     O_3   0.749430 0.474451 0.968034 -0.628443
O18   O     O_3   0.750506 0.523914 0.472666 -0.627134
O19   O     O_3   0.250719 0.976506 0.973353 -0.624935
O20   O     O_3   0.249032 0.026246 0.467829 -0.622895
O21   O     O_3   0.944078 0.178456 0.629110 -0.554318
O22   O     O_3   0.939211 0.819571 0.144227 -0.515143
O23   O     O_3   0.435633 0.680619 0.648814 -0.504911
O24   O     O_3   0.445572 0.320852 0.127415 -0.544665
H1    H     H_    0.058229 0.207634 0.741713 0.161972
H2    H     H_    0.058628 0.812248 0.139589 0.116956
H3    H     H_    0.555041 0.685123 0.642664 0.120845
H4    H     H_    0.558537 0.288648 0.242141 0.157555
C1    C     C_3   0.057270 0.106448 0.613662 -0.984691
C2    C     C_3   0.009259 0.916147 0.055636 -0.936345
C3    C     C_3   0.504084 0.580538 0.570179 -0.922770
C4    C     C_3   0.561304 0.388793 0.113507 -0.987318
H5    H     H_    0.554965 0.563348 0.516358 0.212534
H6    H     H_    0.626429 0.385762 0.119262 0.219055
H7    H     H_    0.122304 0.107650 0.617287 0.231568
H8    H     H_    0.059574 0.930620 0.996917 0.218479
H9    H     H_    0.043391 0.071763 0.711681 0.270187
H10   H     H_    0.018902 0.939172 0.179412 0.330907
H11   H     H_    0.512318 0.560184 0.696065 0.317026
H12   H     H_    0.547502 0.424534 0.209975 0.283746
P5    P     P_3+3 0.165830 0.418670 0.685610 0.446511
P6    P     P_3+3 0.165830 0.581330 0.185610 0.442286
P7    P     P_3+3 0.665830 0.918670 0.685610 0.429343
P8    P     P_3+3 0.665830 0.081330 0.185610 0.474572
P9    P     P_3+3 0.100471 0.262758 0.113088 0.441351
P10   P     P_3+3 0.099755 0.737898 0.611621 0.498328
P11   P     P_3+3 0.601998 0.764375 0.114022 0.532701
P12   P     P_3+3 0.600633 0.237059 0.612680 0.438265
O25   O     O_2   0.157990 0.394030 0.856030 -0.335094
O26   O     O_2   0.157990 0.605970 0.356030 -0.349567
O27   O     O_2   0.657990 0.894030 0.856030 -0.344803
O28   O     O_2   0.657990 0.105970 0.356030 -0.340486
O29   O     O_3   0.027110 0.329490 0.059550 -0.401245
O30   O     O_3   0.027110 0.670510 0.559550 -0.405213
O31   O     O_3   0.527110 0.829490 0.059550 -0.341540
O32   O     O_3   0.527110 0.170510 0.559550 -0.404649
O33   O     O_2   0.165342 0.278999 0.014928 -0.330295
O34   O     O_2   0.159915 0.728613 0.498684 -0.316958
O35   O     O_2   0.666794 0.779844 0.015134 -0.325167
O36   O     O_2   0.665200 0.220895 0.513593 -0.332144
O37   O     O_3   0.250810 0.473278 0.721304 -0.601310
O38   O     O_3   0.250622 0.526478 0.223840 -0.625460
O39   O     O_3   0.751309 0.972459 0.724234 -0.634174
O40   O     O_3   0.749284 0.023930 0.214769 -0.616009
O41   O     O_3   0.065239 0.178380 0.036241 -0.566188
O42   O     O_3   0.056384 0.822254 0.555890 -0.516980
O43   O     O_3   0.562765 0.681919 0.035079 -0.531174
O44   O     O_3   0.565429 0.321728 0.537501 -0.567479
C5    C     C_3   0.982444 0.173261 0.023219 0.241752
C6    C     C_3   0.976303 0.821269 0.572440 0.528197
C7    C     C_3   0.490185 0.669154 0.084170 0.357081
C8    C     C_3   0.482379 0.326309 0.520705 0.215605
H13   H     H_    0.960546 0.135262 0.923141 0.146914
H14   H     H_    0.938305 0.801595 0.458047 0.118267
H15   H     H_    0.440756 0.675148 0.977545 0.141367
H16   H     H_    0.461245 0.365370 0.422351 0.149979
H17   H     H_    0.949441 0.224544 0.990186 0.106390
H18   H     H_    0.965902 0.786017 0.672923 -0.122973
H19   H     H_    0.477227 0.706593 0.179170 -0.062426
H20   H     H_    0.450091 0.275151 0.482845 0.114610
C9    C     C_3   0.963420 0.141304 0.177056 -0.047477
C10   C     C_3   0.951092 0.897639 0.608299 -0.082156
C11   C     C_3   0.491408 0.592350 0.149062 -0.082117
C12   C     C_3   0.461115 0.356096 0.674816 -0.017655
H21   H     H_    0.437000 0.582753 0.198602 0.137503
H22   H     H_    0.395726 0.356255 0.662568 0.141101
H23   H     H_    0.898179 0.139148 0.167245 0.141082
H24   H     H_    0.886663 0.897553 0.613747 0.077417
C13   C     C_3   0.234605 0.461139 0.294328 0.992415
C14   C     C_3   0.236878 0.537702 0.798706 0.922939
C15   C     C_3   0.737349 0.958028 0.290443 0.916262
C16   C     C_3   0.736044 0.038089 0.794870 0.984118
H25   H     H_    0.198531 0.469266 0.388847 0.020887
H26   H     H_    0.195056 0.530491 0.882762 0.027321
H27   H     H_    0.748489 0.966553 0.423573 0.014863
H28   H     H_    0.698822 0.030806 0.887618 0.025030
C17   C     C_3   0.313536 0.428323 0.374610 -0.929557
C18   C     C_3   0.315837 0.562635 0.898157 -0.741031
C19   C     C_3   0.797909 0.903738 0.253036 -0.808754
C20   C     C_3   0.815295 0.069196 0.878107 -0.936843
H29   H     H_    0.341894 0.462045 0.479535 0.252003
H30   H     H_    0.338701 0.521013 0.990889 0.248308
H31   H     H_    0.856726 0.929630 0.262436 0.270571
H32   H     H_    0.842415 0.034636 0.982498 0.246814
H33   H     H_    0.304374 0.372612 0.416190 0.206605
H34   H     H_    0.308768 0.614662 0.959231 0.162536
H35   H     H_    0.802564 0.856937 0.337013 0.191699
H36   H     H_    0.806924 0.124948 0.920793 0.208593
Ba1   Ba    Ba6+2 0.000000 0.447380 0.844850 1.551710
Ba2   Ba    Ba6+2 1.000000 0.552620 0.344850 1.587257
Ba3   Ba    Ba6+2 0.500000 0.947380 0.844850 1.589184
Ba4   Ba    Ba6+2 0.500000 0.052620 0.344850 1.567643
C21   C     C_3   0.763367 0.538095 0.888349 0.976322
C22   C     C_3   0.763258 0.456097 0.405672 0.924029
C23   C     C_3   0.263665 0.043889 0.905152 0.924729
C24   C     C_3   0.262736 0.961861 0.390445 0.969945
C25   C     C_3   0.684538 0.562403 0.787142 -0.916616
C26   C     C_3   0.702928 0.403990 0.450315 -0.836767
C27   C     C_3   0.202626 0.096388 0.946326 -0.835444
C28   C     C_3   0.183356 0.936279 0.294098 -0.879930
H37   H     H_    0.659487 0.517849 0.704014 0.223151
H38   H     H_    0.643226 0.429344 0.427722 0.220336
H39   H     H_    0.143165 0.070696 0.924395 0.225800
H40   H     H_    0.159355 0.978113 0.202863 0.217475
H41   H     H_    0.692117 0.611099 0.715486 0.213859
H42   H     H_    0.701806 0.352862 0.380562 0.220504
H43   H     H_    0.201117 0.146661 0.873727 0.215148
H44   H     H_    0.190161 0.884518 0.231739 0.206155
H45   H     H_    0.642548 0.575954 0.866978 0.265476
H46   H     H_    0.718906 0.391396 0.581145 0.267554
H47   H     H_    0.218149 0.110599 0.076486 0.267918
H48   H     H_    0.140862 0.928000 0.376219 0.292837
O45   O     O_3   0.092100 0.536880 0.086720 -0.420377
O46   O     O_3   0.092100 0.463120 0.586720 -0.424486
O47   O     O_3   0.592100 0.036880 0.086720 -0.362958
O48   O     O_3   0.592100 0.963120 0.586720 -0.431676
P13   P     P_3+3 0.898346 0.736009 0.077781 0.469969
P14   P     P_3+3 0.900269 0.262591 0.574387 0.493695
P15   P     P_3+3 0.400148 0.237317 0.075054 0.493354
P16   P     P_3+3 0.397493 0.764531 0.577817 0.496650
C29   C     C_3   0.025900 0.182510 0.627900 0.389352
C30   C     C_3   0.002505 0.834669 0.066617 0.410681
C31   C     C_3   0.498502 0.662285 0.572575 0.394757
C32   C     C_3   0.527378 0.314167 0.127818 0.414223
H49   H     H_    0.038672 0.214800 0.525303 0.042779
H50   H     H_    0.993908 0.812649 0.941580 0.001454
H51   H     H_    0.489598 0.681424 0.445435 -0.008716
H52   H     H_    0.539314 0.281404 0.024906 0.038036
H53   H     H_    0.448413 0.557384 0.497670 0.268131
H54   H     H_    0.533047 0.412100 0.996010 0.315330
H55   H     H_    0.027734 0.082408 0.497602 0.305194
H56   H     H_    0.953181 0.939042 0.983886 0.260448
H57   H     H_    0.544254 0.585128 0.248552 0.121250
H58   H     H_    0.486506 0.320993 0.778524 0.095611
H59   H     H_    0.988221 0.176365 0.281109 0.097024
H60   H     H_    0.986117 0.915224 0.726872 0.139768
C33   C     C_R   0.136461 0.678292 0.924619 -0.477256
C34   C     C_R   0.134335 0.320666 0.427053 -0.495369
C35   C     C_R   0.635269 0.178632 0.925733 -0.497383
C36   C     C_R   0.629791 0.815391 0.435335 -0.425270
C37   C     C_R   0.868471 0.316828 0.255365 -0.464209
C38   C     C_R   0.863838 0.677697 0.764148 -0.456622
C39   C     C_R   0.363411 0.822071 0.263702 -0.466166
C40   C     C_R   0.368216 0.182960 0.755883 -0.469376
C41   C     C_R   0.789397 0.213670 0.300595 -0.231214
C42   C     C_R   0.792218 0.787574 0.799065 -0.214840
C43   C     C_R   0.291061 0.712866 0.299538 -0.197350
C44   C     C_R   0.288681 0.285856 0.801757 -0.217403
C45   C     C_R   0.849306 0.263811 0.358764 0.252220
C46   C     C_R   0.848573 0.734832 0.861735 0.252415
C47   C     C_R   0.347973 0.765214 0.361526 0.232964
C48   C     C_R   0.348739 0.235783 0.859719 0.251991
C49   C     C_R   0.818135 0.331357 0.106418 0.254441
C50   C     C_R   0.817955 0.667362 0.608832 0.253893
C51   C     C_R   0.317381 0.832594 0.108589 0.256858
C52   C     C_R   0.318007 0.168507 0.606751 0.255881
C53   C     C_R   0.754792 0.281435 0.046937 -0.073200
C54   C     C_R   0.756374 0.718603 0.546942 -0.079344
C55   C     C_R   0.256180 0.780976 0.045971 -0.079452
C56   C     C_R   0.254363 0.218185 0.547619 -0.074994
C57   C     C_R   0.243419 0.719656 0.142644 -0.072546
C58   C     C_R   0.241406 0.279399 0.644513 -0.100331
C59   C     C_R   0.742053 0.220125 0.143494 -0.092536
C60   C     C_R   0.743758 0.780096 0.643405 -0.067098
C61   C     C_R   0.182278 0.668027 0.080245 0.269245
C62   C     C_R   0.180792 0.331333 0.581734 0.270697
C63   C     C_R   0.681464 0.168166 0.080674 0.253519
C64   C     C_R   0.680636 0.830179 0.583737 0.258835
C65   C     C_R   0.151668 0.735302 0.826700 0.242685
C66   C     C_R   0.148835 0.263021 0.329893 0.265278
C67   C     C_R   0.649494 0.236424 0.829051 0.273877
C68   C     C_R   0.648141 0.761512 0.332631 0.207564
C69   C     C_R   0.208331 0.787880 0.889229 -0.193109
C70   C     C_R   0.205920 0.210731 0.391989 -0.196030
C71   C     C_R   0.706301 0.288843 0.891445 -0.197392
C72   C     C_R   0.708064 0.711288 0.390844 -0.229011
H61   H     H_    0.091347 0.638948 0.875045 0.156697
H62   H     H_    0.089250 0.360085 0.377719 0.155102
H63   H     H_    0.590377 0.139132 0.876091 0.152801
H64   H     H_    0.578925 0.849867 0.392903 0.160803
H65   H     H_    0.353285 0.425882 0.285558 0.267047
H66   H     H_    0.359391 0.570246 0.818067 0.290792
H67   H     H_    0.779554 0.883852 0.126960 0.267276
H68   H     H_    0.855757 0.071062 0.790387 0.262584
H69   H     H_    0.805497 0.530051 0.805284 0.033038
H70   H     H_    0.752213 0.460889 0.271620 0.009524
H71   H     H_    0.253638 0.038241 0.771355 0.016707
H72   H     H_    0.303612 0.969306 0.304659 0.025212
O49   O     O_3   0.790522 0.591709 0.002828 -0.721594
H73   H     H_    0.848663 0.584172 0.036603 0.334530
O50   O     O_3   0.838807 0.427581 0.468147 -0.692346
H74   H     H_    0.874180 0.445714 0.397352 0.312065
O51   O     O_3   0.338864 0.072668 0.969206 -0.694319
H75   H     H_    0.374830 0.054631 0.899381 0.311545
O52   O     O_3   0.291588 0.909539 0.506694 -0.716583
H76   H     H_    0.349969 0.916500 0.535151 0.332132
H77   H     H_    0.283789 0.668205 0.377563 0.202836
H78   H     H_    0.280571 0.329621 0.881493 0.218848
H79   H     H_    0.781281 0.169921 0.380153 0.215512
H80   H     H_    0.785325 0.832735 0.875856 0.176374
H81   H     H_    0.713635 0.333737 0.814813 0.172088
H82   H     H_    0.716792 0.667806 0.310753 0.208397
H83   H     H_    0.215108 0.833016 0.812063 0.203852
H84   H     H_    0.213576 0.165989 0.314880 0.172283
H85   H     H_    0.920296 0.350236 0.296539 0.166391
H86   H     H_    0.908810 0.638232 0.814011 0.151074
H87   H     H_    0.408488 0.861408 0.313494 0.148651
H88   H     H_    0.420240 0.149683 0.796724 0.166544
O53   O     O_3   0.993735 0.070920 0.200507 -0.713638
H89   H     H_    0.052503 0.075299 0.233764 0.356123
O54   O     O_3   0.965992 0.945602 0.489513 -0.682992
H90   H     H_    0.935374 0.990176 0.502054 0.346634
O55   O     O_3   0.493579 0.542681 0.024545 -0.701575
H91   H     H_    0.549793 0.539915 0.012067 0.358785
O56   O     O_3   0.488509 0.427227 0.701660 -0.708521
H92   H     H_    0.547558 0.424832 0.730229 0.349377
O57   O     O_3   0.197817 0.413534 0.173672 -0.704028
H93   H     H_    0.139836 0.417707 0.168315 0.328650
O58   O     O_3   0.209397 0.590528 0.682435 -0.729228
H94   H     H_    0.150909 0.584483 0.652903 0.334712
O59   O     O_3   0.661806 0.928704 0.231851 -0.702280
H95   H     H_    0.626681 0.948019 0.302017 0.313259
O60   O     O_3   0.701246 0.086449 0.674031 -0.705099
H96   H     H_    0.642955 0.082435 0.664495 0.330439

loop_
_geom_bond_atom_site_label_1
_geom_bond_atom_site_label_2
_geom_bond_distance
_ccdc_geom_bond_type
C24   H72   1.111502 S    
C39   C51   1.397482 A    
C18   H34   1.107194 S    
P1    O17   1.748298 S    
O15   P16   1.542725 D    
C11   O55   1.398463 S    
C37   C49   1.398343 A    
P3    O19   1.753498 S    
O56   H92   0.993064 S    
C2    H10   1.106656 S    
P3    O7    1.589518 S    
C34   C62   1.397485 A    
O44   C8    1.404291 S    
C8    H20   1.109074 S    
C53   C59   1.436963 A    
C4    H54   1.098632 S    
C41   H79   1.077019 S    
O49   H73   0.989514 S    
P7    Ba3   3.418022 S    
C2    H56   1.110854 S    
C44   C48   1.396335 A    
C35   H63   1.081785 S    
C22   H70   1.110224 S    
C55   C69   1.413037 A    
C7    H15   1.109386 S    
P1    Ba1   3.417298 S    
C34   H62   1.081662 S    
C9    O53   1.398603 S    
O5    Ba2   2.842463 S    
C39   C47   1.393349 A    
C3    H5    1.106529 S    
C19   H67   1.107447 S    
P6    O38   1.746676 S    
P3    O3    1.537180 D    
P11   C68   1.852887 S    
C55   C57   1.437814 A    
H1    C29   1.107821 S    
C19   H31   1.104585 S    
P4    O20   1.747920 S    
P10   C65   1.851425 S    
C15   H27   1.109956 S    
C32   H52   1.108491 S    
P9    C66   1.847468 S    
C14   H26   1.112160 S    
C37   C45   1.393698 A    
O58   H94   0.989560 S    
O26   Ba2   2.866223 S    
O11   Ba3   2.807927 S    
P9    O29   1.752884 S    
C28   H44   1.107342 S    
C19   H35   1.110008 S    
O57   H93   0.988572 S    
C22   C26   1.515185 S    
Ba2   O45   2.945803 S    
O3    Ba3   2.862822 S    
P7    C64   1.885185 S    
O22   C30   1.402719 S    
C21   C25   1.513350 S    
O42   C6    1.407263 S    
O2    Ba2   2.860666 S    
P8    C63   1.877167 S    
O17   C21   1.398451 S    
P12   O32   1.753374 S    
C10   H60   1.105417 S    
C30   H50   1.110306 S    
P1    C49   1.886477 S    
C4    C32   1.510710 S    
C26   H46   1.105615 S    
O21   P14   1.746412 S    
C44   C58   1.411857 A    
P7    O48   1.593927 S    
P2    O18   1.753344 S    
C52   C56   1.435230 A    
O54   H90   0.992515 S    
O41   C5    1.404401 S    
C22   O50   1.398595 S    
C38   C50   1.397303 A    
C12   H58   1.104732 S    
P4    O8    1.588967 S    
O22   P13   1.740106 S    
C36   H64   1.080324 S    
O53   H89   0.993120 S    
C8    C12   1.519124 S    
C16   O60   1.395003 S    
C59   C63   1.435067 A    
P8    O28   1.536495 D    
C4    H12   1.107778 S    
P4    O4    1.538287 D    
P8    Ba4   3.419584 S    
O8    Ba3   2.843050 S    
C27   H43   1.109638 S    
Ba2   O46   2.843023 S    
O10   P13   1.749303 S    
P5    O25   1.537599 D    
C38   H86   1.082096 S    
P9    O41   1.747650 S    
O59   H95   0.990286 S    
C36   C64   1.399416 A    
C37   H85   1.080233 S    
O16   P15   1.547464 D    
P6    O26   1.536495 D    
P2    O2    1.538287 D    
P12   C67   1.846378 S    
P11   O43   1.741618 S    
P15   C48   1.850441 S    
C6    H18   1.110811 S    
O12   Ba4   2.810380 S    
C5    H17   1.109203 S    
C43   H77   1.077936 S    
C15   C19   1.519761 S    
H2    C30   1.111993 S    
P14   C45   1.850428 S    
C67   C71   1.398795 A    
C21   H69   1.111395 S    
C9    H23   1.105276 S    
O20   C24   1.397329 S    
C17   H29   1.109860 S    
P9    O33   1.542738 D    
C43   C57   1.412510 A    
C33   C65   1.394767 A    
O40   C15   1.408496 S    
C51   C55   1.437346 A    
C3    H53   1.110157 S    
P2    Ba2   3.415772 S    
O12   P15   1.748145 S    
P1    O5    1.589518 S    
C41   C59   1.411424 A    
O30   Ba2   2.807217 S    
C33   C61   1.399017 A    
P12   O36   1.542582 D    
C13   C17   1.511961 S    
O52   H76   0.989476 S    
C20   H36   1.108720 S    
P6    Ba2   3.419584 S    
C28   H48   1.111280 S    
O29   Ba1   2.809670 S    
O51   H75   0.990632 S    
O10   Ba2   2.810380 S    
C12   O56   1.398240 S    
C43   C47   1.398212 A    
C6    C10   1.522090 S    
P3    C51   1.879073 S    
C27   H47   1.106179 S    
O13   P14   1.547159 D    
P10   O30   1.753336 S    
C26   H38   1.105992 S    
C31   H51   1.108982 S    
C14   O58   1.395792 S    
P3    Ba3   3.417298 S    
C25   H37   1.109122 S    
P12   O44   1.748206 S    
P5    Ba1   3.418022 S    
C40   H88   1.080244 S    
C18   H66   1.111148 S    
O25   Ba1   2.864046 S    
C27   H39   1.105933 S    
C35   C67   1.394202 A    
C72   H82   1.077516 S    
Ba3   O47   2.842436 S    
C34   C66   1.394080 A    
C36   C68   1.394079 A    
O23   P16   1.740323 S    
O28   Ba4   2.866223 S    
P11   O35   1.543142 D    
C68   C72   1.397081 A    
P7    O39   1.746435 S    
O24   P15   1.744585 S    
C1    H7    1.109127 S    
O9    P14   1.750016 S    
P8    O40   1.756555 S    
C39   H87   1.082090 S    
O7    Ba4   2.842463 S    
C71   H81   1.074125 S    
C5    C9    1.518247 S    
C50   C54   1.434850 A    
O6    Ba1   2.843050 S    
C17   H65   1.110702 S    
C13   O57   1.394553 S    
P6    O45   1.594486 S    
C42   H80   1.075584 S    
C69   H83   1.078154 S    
O23   C31   1.401554 S    
O37   C14   1.399027 S    
C12   H22   1.104601 S    
C56   C70   1.410308 A    
O38   C13   1.396986 S    
P5    O37   1.748012 S    
O39   C16   1.396844 S    
P10   O34   1.546048 D    
P1    O1    1.537180 D    
O32   Ba4   2.807217 S    
P11   O31   1.750639 S    
P6    C61   1.880165 S    
P2    O6    1.588967 S    
C13   H25   1.111579 S    
C20   H32   1.110310 S    
C3    H11   1.107217 S    
P7    O27   1.537599 D    
Ba1   Ba2   4.635673 S    
C42   C46   1.397940 A    
C33   H61   1.082120 S    
C40   C48   1.393603 A    
O18   C22   1.407718 S    
C41   C45   1.396698 A    
P8    O47   1.594486 S    
O1    Ba1   2.862822 S    
O24   C32   1.406651 S    
O9    Ba1   2.807927 S    
P4    Ba4   3.415772 S    
O14   P13   1.543890 D    
C8    H16   1.103585 S    
C25   H41   1.105786 S    
O21   C29   1.406499 S    
O60   H96   0.988925 S    
C1    H55   1.099766 S    
C57   C61   1.436398 A    
H4    C32   1.108253 S    
C23   C27   1.515593 S    
P2    C50   1.874624 S    
C38   C46   1.393114 A    
C23   H71   1.110010 S    
C10   O54   1.398480 S    
C56   C58   1.436326 A    
C28   H40   1.109094 S    
C60   C64   1.434782 A    
Ba1   O45   2.842436 S    
C1    H9    1.108496 S    
Ba4   O47   2.945803 S    
C16   C20   1.511550 S    
P4    C52   1.883867 S    
H3    C31   1.111722 S    
C40   C52   1.398158 A    
C15   O59   1.399095 S    
O43   C7    1.407614 S    
C2    C30   1.513576 S    
C7    H19   1.112264 S    
Ba3   Ba4   4.635673 S    
C66   C70   1.398749 A    
O27   Ba3   2.864046 S    
C24   O52   1.393999 S    
C49   C53   1.436078 A    
C54   C72   1.412353 A    
C16   H28   1.111664 S    
P16   C47   1.848702 S    
C4    H6    1.108803 S    
P5    O46   1.593927 S    
C65   C69   1.399571 A    
C18   H30   1.109976 S    
C3    C31   1.512870 S    
C20   H68   1.110740 S    
O50   H74   0.990610 S    
P10   O42   1.748792 S    
C24   C28   1.513184 S    
O55   H91   0.991151 S    
C44   H78   1.076749 S    
P13   C46   1.848062 S    
O4    Ba4   2.860666 S    
C10   H24   1.114362 S    
O11   P16   1.753801 S    
C11   H57   1.111458 S    
P5    C62   1.875627 S    
C21   O49   1.394632 S    
Ba3   O48   2.946688 S    
C14   C18   1.513331 S    
O31   Ba3   2.809670 S    
C6    H14   1.109952 S    
C70   H84   1.074379 S    
C42   C60   1.410670 A    
C23   O51   1.398656 S    
C11   H21   1.109889 S    
C5    H13   1.102636 S    
Ba1   O46   2.946688 S    
C2    H8    1.109849 S    
O19   C23   1.407494 S    
C35   C63   1.397211 A    
C58   C62   1.434118 A    
C9    H59   1.103415 S    
C25   H45   1.107297 S    
C54   C60   1.436658 A    
C17   H33   1.108619 S    
C26   H42   1.109545 S    
C29   H49   1.107957 S    
C7    C11   1.519165 S    
C1    C29   1.516578 S    
Ba4   O48   2.843023 S    
C53   C71   1.409726 A    
