data_mof_unit_44320.cif
_audit_creation_date              2012-10-26T21:05:24-0400
_audit_creation_method            fapswitch 2.2
_symmetry_space_group_name_H-M    P1
_symmetry_Int_Tables_number       1
_space_group_crystal_system       triclinic
_cell_length_a                    9.582672
_cell_length_b                    10.867708
_cell_length_c                    13.887924
_cell_angle_alpha                 92.448346
_cell_angle_beta                  84.743276
_cell_angle_gamma                 89.89591
_cell_volume                      1438.89023229

loop_
_atom_site_label
_atom_site_type_symbol
_atom_type_description
_atom_site_fract_x
_atom_site_fract_y
_atom_site_fract_z
_atom_type_partial_charge
Br1   Br    Br    0.257083 0.456747 0.040907 -0.474636
C1    C     C_R   0.499688 0.737295 0.493392 0.548090
C2    C     C_R   0.621278 0.936172 0.492305 -0.159262
C3    C     C_R   0.620568 0.063314 0.500602 -0.161043
C4    C     C_R   0.477154 0.499817 0.682891 0.554456
C5    C     C_R   0.493576 0.128502 0.512333 -0.000501
C6    C     C_R   0.873060 0.334371 0.373320 -0.136296
C7    C     C_R   0.952914 0.251731 0.312299 -0.159613
C8    C     C_R   0.098499 0.248551 0.313101 0.273868
C9    C     C_R   0.160874 0.333386 0.373468 -0.035610
C10   C     C_R   0.083021 0.417833 0.438040 0.098831
C11   C     C_R   0.933590 0.417987 0.438088 0.140415
C12   C     C_1   0.462981 0.496347 0.785927 -0.017226
C13   C     C_R   0.918133 0.578411 0.558666 0.000536
C14   C     C_R   0.066142 0.578403 0.558623 -0.001558
C15   C     C_R   0.498350 0.262738 0.506416 0.539448
C16   C     C_R   0.522780 0.499809 0.317131 0.541533
C17   C     C_1   0.536249 0.501028 0.214073 0.022414
C18   C     C_2   0.552910 0.504945 0.023748 -0.093920
C19   C     C_2   0.438746 0.487857 0.976107 0.177791
C20   C     C_1   0.451171 0.492550 0.872619 -0.009676
C21   C     C_1   0.545405 0.502613 0.127316 0.015498
C22   C     C_3   0.125570 0.057292 0.229851 -0.091499
C23   C     C_R   0.240152 0.883652 0.461665 -0.092008
C24   C     C_R   0.112162 0.943964 0.484151 -0.136257
C25   C     C_R   0.108129 0.058984 0.531658 -0.122427
C26   C     C_R   0.232844 0.118418 0.548372 -0.086486
C27   C     C_R   0.364512 0.063375 0.516797 0.035735
C28   C     C_R   0.366986 0.937603 0.487657 0.033035
C29   C     C_R   0.495773 0.871599 0.486776 -0.007288
Cu1   Cu    Cu3+1 0.359340 0.500010 0.500010 0.930365
Cu2   Cu    Cu3+1 0.640660 0.499990 0.499990 0.932418
H1    H     H_    0.764192 0.329094 0.365561 0.193299
H2    H     H_    0.223672 0.205735 0.588555 0.152126
H3    H     H_    0.720251 0.110484 0.498612 0.134029
H4    H     H_    0.856336 0.642709 0.606689 0.118518
H5    H     H_    0.056559 0.065806 0.170409 0.135688
H6    H     H_    0.067443 0.018044 0.294434 0.105230
H7    H     H_    0.210371 0.991106 0.203797 0.154052
H8    H     H_    0.899538 0.191945 0.263490 0.114701
H9    H     H_    0.271741 0.328278 0.366326 0.207942
H10   H     H_    0.115048 0.642731 0.606559 0.126806
H11   H     H_    0.654011 0.522048 0.984620 0.107089
H12   H     H_    0.721041 0.888461 0.489437 0.132848
H13   H     H_    0.237629 0.796909 0.421059 0.151464
H14   H     H_    0.015866 0.900368 0.466133 0.101772
H15   H     H_    0.008450 0.103655 0.553436 0.112760
N1    N     N_R   0.852210 0.498790 0.499090 -0.234087
N2    N     N_R   0.148080 0.498710 0.499060 -0.249981
O1    O     O_R   0.381190 0.680360 0.500010 -0.513485
O2    O     O_R   0.618760 0.680340 0.500000 -0.503330
O3    O     O_R   0.364420 0.499990 0.637850 -0.488944
O4    O     O_R   0.601990 0.499960 0.637840 -0.492928
O5    O     O_R   0.381240 0.319660 0.500000 -0.538795
O6    O     O_R   0.618810 0.319640 0.499990 -0.523324
O7    O     O_R   0.398010 0.500040 0.362160 -0.506009
O8    O     O_R   0.635580 0.500010 0.362150 -0.514488
O9    O     O_3   0.186971 0.171893 0.251706 -0.542079

loop_
_geom_bond_atom_site_label_1
_geom_bond_atom_site_label_2
_ccdc_geom_bond_type
C2    C29   A    
C10   C11   A    
C4    O3    A    
C28   C29   A    
C10   N2    A    
Cu1   O7    S    
C22   O9    S    
C22   H6    S    
Cu2   N1    S    
C8    C9    A    
Cu2   O6    S    
C4    C12   S    
Cu1   Cu2   S    
C11   N1    A    
Cu1   O3    S    
C1    C29   S    
C16   C17   S    
C15   O6    A    
C12   C20   T    
C6    C7    A    
Cu1   O5    S    
C22   H5    S    
C19   C20   S    
C9    H9    S    
C6    H1    S    
C16   O7    A    
C25   C26   A    
C25   H15   S    
Cu1   N2    S    
C22   H7    S    
C23   H13   S    
Cu2   O8    S    
C4    O4    A    
C27   C28   A    
C18   H11   S    
C14   N2    A    
C26   H2    S    
C13   H4    S    
C6    C11   A    
C15   O5    A    
C2    H12   S    
C3    H3    S    
C9    C10   A    
Cu1   O1    S    
C5    C15   S    
C2    C3    A    
Cu2   O4    S    
C23   C28   A    
C18   C21   S    
C7    H8    S    
C23   C24   A    
C3    C5    A    
C8    O9    S    
C1    O2    A    
Cu2   O2    S    
C26   C27   A    
C13   C14   A    
Br1   C19   S    
C13   N1    A    
C1    O1    A    
C24   C25   A    
C17   C21   T    
C24   H14   S    
C5    C27   A    
C18   C19   D    
C14   H10   S    
C16   O8    A    
C7    C8    A    
