data_mof_unit_64222.cif
_audit_creation_date              2012-12-10T18:44:09-0500
_audit_creation_method            fapswitch 2.2
_symmetry_space_group_name_H-M    P1
_symmetry_Int_Tables_number       1
_space_group_crystal_system       triclinic
_cell_length_a                    18.137911
_cell_length_b                    18.107672
_cell_length_c                    22.113454
_cell_angle_alpha                 114.222097
_cell_angle_beta                  114.30477
_cell_angle_gamma                 89.909978
_cell_volume                      5912.84494487

loop_
_atom_site_label
_atom_site_type_symbol
_atom_type_description
_atom_site_fract_x
_atom_site_fract_y
_atom_site_fract_z
_atom_type_partial_charge
Br1   Br    Br    0.404576 0.637092 0.456170 -0.490995
Br2   Br    Br    0.595424 0.362908 0.543829 -0.490995
Br3   Br    Br    0.918169 0.832805 0.340864 -0.535804
Br4   Br    Br    0.081831 0.167194 0.659136 -0.535804
Br5   Br    Br    0.689419 0.100414 0.576364 -0.502390
Br6   Br    Br    0.310581 0.899586 0.423635 -0.502390
Br7   Br    Br    0.551724 0.135576 0.671371 -0.430800
Br8   Br    Br    0.448275 0.864424 0.328629 -0.430800
C1    C     C_R   0.349766 0.349756 0.699523 0.845461
C2    C     C_1   0.889596 0.889256 0.778833 -0.126236
C3    C     C_3   0.060728 0.962966 0.024531 0.151599
C4    C     C_3   0.939272 0.037034 0.975469 0.151599
C5    C     C_3   0.036413 0.036815 0.073232 0.130294
C6    C     C_3   0.963587 0.963185 0.926768 0.130294
C7    C     C_1   0.076932 0.077444 0.154387 -0.075111
C8    C     C_1   0.923068 0.922556 0.845613 -0.075111
C9    C     C_3   0.039124 0.504203 0.568124 -0.173532
C10   C     C_3   0.960876 0.495796 0.431876 -0.173532
C11   C     C_3   0.944529 0.479211 0.518898 -0.175630
C12   C     C_R   0.650234 0.650244 0.300477 0.845459
C13   C     C_3   0.055471 0.520788 0.481102 -0.175631
C14   C     C_3   0.949248 0.551212 0.500176 0.049814
C15   C     C_3   0.050752 0.448788 0.499824 0.049814
C16   C     C_R   0.150232 0.150320 0.300584 0.823604
C17   C     C_R   0.849768 0.849680 0.699416 0.823606
C18   C     C_3   0.043017 0.577148 0.549450 -0.132573
C19   C     C_3   0.956983 0.422852 0.450550 -0.132573
C20   C     C_3   0.577494 0.537749 0.024830 -0.153321
C21   C     C_3   0.422506 0.462251 0.975170 -0.153321
C22   C     C_3   0.542186 0.443825 0.975298 -0.152177
C23   C     C_3   0.564702 0.538542 0.568064 -0.251991
C24   C     C_3   0.457814 0.556175 0.024702 -0.152177
C25   C     C_1   0.389513 0.389513 0.779013 -0.109590
C26   C     C_1   0.610486 0.610487 0.220987 -0.109590
C27   C     C_3   0.498188 0.556798 0.975279 -0.160183
C28   C     C_3   0.501812 0.443202 0.024720 -0.160183
C29   C     C_3   0.463525 0.463518 0.927037 0.184604
C30   C     C_3   0.536475 0.536482 0.072963 0.184604
C31   C     C_1   0.422930 0.422925 0.845843 -0.056218
C32   C     C_1   0.577070 0.577075 0.154157 -0.056218
C33   C     C_3   0.060298 0.962024 0.490380 0.030270
C34   C     C_3   0.435298 0.461458 0.431936 -0.251991
C35   C     C_3   0.939702 0.037976 0.509619 0.030271
C36   C     C_3   0.967797 0.931293 0.435435 0.276176
C37   C     C_3   0.032203 0.068707 0.564565 0.276176
C38   C     C_3   0.948139 0.950176 0.500868 -0.115864
C39   C     C_3   0.051861 0.049824 0.499132 -0.115864
C40   C     C_R   0.392086 0.108828 0.500347 0.927101
C41   C     C_R   0.607914 0.891171 0.499652 0.927101
C42   C     C_3   0.040769 0.980508 0.556369 -0.233834
C43   C     C_3   0.959231 0.019492 0.443631 -0.233834
C44   C     C_3   0.521359 0.055195 0.569996 0.273808
C45   C     C_3   0.055583 0.005343 0.975259 -0.198250
C46   C     C_3   0.478641 0.944804 0.430004 0.273809
C47   C     C_3   0.576942 0.041689 0.530878 0.254949
C48   C     C_3   0.423058 0.958311 0.469122 0.254949
C49   C     C_3   0.550623 0.948103 0.499696 -0.188270
C50   C     C_3   0.449377 0.051897 0.500304 -0.188270
C51   C     C_3   0.495281 0.960819 0.539217 -0.275941
C52   C     C_3   0.504719 0.039181 0.460783 -0.275941
C53   C     C_R   0.108203 0.391699 0.499992 0.784264
C54   C     C_R   0.891797 0.608300 0.500008 0.784263
C55   C     C_R   0.108611 0.107413 0.499308 0.855585
C56   C     C_3   0.944417 0.994657 0.024741 -0.198250
C57   C     C_R   0.891389 0.892587 0.500692 0.855584
C58   C     C_R   0.391708 0.391797 0.500084 0.852502
C59   C     C_R   0.608291 0.608203 0.499916 0.852503
C60   C     C_3   0.473193 0.543175 0.550314 -0.201573
C61   C     C_3   0.526806 0.456825 0.449686 -0.201572
C62   C     C_3   0.460880 0.555649 0.482096 0.320747
C63   C     C_3   0.539120 0.444351 0.517904 0.320747
C64   C     C_3   0.551120 0.550775 0.499705 -0.062507
C65   C     C_3   0.448880 0.449224 0.500295 -0.062507
C66   C     C_3   0.129622 0.918625 0.479856 -0.343699
C67   C     C_3   0.031158 0.080211 0.024859 -0.202162
C68   C     C_3   0.125011 0.837266 0.485630 -0.382843
C69   C     C_3   0.191405 0.791538 0.471666 -0.718444
C70   C     C_3   0.870377 0.081375 0.520144 -0.343698
C71   C     C_3   0.874989 0.162734 0.514370 -0.382843
C72   C     C_3   0.808595 0.208461 0.528334 -0.718444
C73   C     C_3   0.868904 0.078118 0.945228 -0.413649
C74   C     C_3   0.860655 0.150118 0.008296 -0.363968
C75   C     C_3   0.790295 0.190960 0.977833 -0.812717
C76   C     C_3   0.131096 0.921882 0.054772 -0.413650
C77   C     C_3   0.139345 0.849881 0.991703 -0.363968
C78   C     C_3   0.968842 0.919789 0.975141 -0.202162
C79   C     C_3   0.209705 0.809040 0.022167 -0.812717
C80   C     C_1   0.110404 0.110744 0.221167 -0.126236
H1    H     H_    0.576364 0.397153 0.954002 0.152778
H2    H     H_    0.508225 0.071874 0.428868 0.215511
H3    H     H_    0.450176 0.578040 0.591215 0.182234
H4    H     H_    0.549824 0.421960 0.408785 0.182234
H5    H     H_    0.618741 0.570491 0.623631 0.171288
H6    H     H_    0.381259 0.429509 0.376369 0.171288
H7    H     H_    0.056568 0.146401 0.045982 0.144973
H8    H     H_    0.943431 0.853599 0.954018 0.144973
H9    H     H_    0.100830 0.008844 0.954230 0.146308
H10   H     H_    0.899170 0.991156 0.045770 0.146308
H11   H     H_    0.898002 0.463205 0.534355 0.144772
H12   H     H_    0.423636 0.602847 0.045997 0.152778
H13   H     H_    0.101998 0.536795 0.465645 0.144772
H14   H     H_    0.072259 0.506568 0.623935 0.143110
H15   H     H_    0.927741 0.493431 0.376065 0.143110
H16   H     H_    0.077481 0.641365 0.590033 0.151706
H17   H     H_    0.922518 0.358635 0.409967 0.151706
H18   H     H_    0.182589 0.774866 0.414545 0.295008
H19   H     H_    0.253774 0.830590 0.512656 0.282983
H20   H     H_    0.187036 0.733817 0.477444 0.238875
H21   H     H_    0.133529 0.850268 0.542019 0.222934
H22   H     H_    0.063573 0.796378 0.444485 0.258125
H23   H     H_    0.641688 0.569278 0.046237 0.152196
H24   H     H_    0.124402 0.906485 0.424604 0.236518
H25   H     H_    0.190000 0.960295 0.523421 0.231278
H26   H     H_    0.746226 0.169410 0.487344 0.282983
H27   H     H_    0.817411 0.225134 0.585455 0.295008
H28   H     H_    0.812964 0.266183 0.522556 0.238875
H29   H     H_    0.936427 0.203621 0.555515 0.258125
H30   H     H_    0.866471 0.149732 0.457981 0.222934
H31   H     H_    0.810000 0.039705 0.476579 0.231278
H32   H     H_    0.875598 0.093515 0.575396 0.236518
H33   H     H_    0.801907 0.215793 0.943520 0.272594
H34   H     H_    0.358312 0.430722 0.953763 0.152196
H35   H     H_    0.730735 0.145593 0.943437 0.267814
H36   H     H_    0.785727 0.242823 0.024642 0.245049
H37   H     H_    0.848310 0.127252 0.043497 0.225698
H38   H     H_    0.919156 0.197133 0.043586 0.226552
H39   H     H_    0.881363 0.100985 0.910091 0.215803
H40   H     H_    0.810461 0.031055 0.909995 0.212624
H41   H     H_    0.269265 0.854407 0.056562 0.267814
H42   H     H_    0.198093 0.784207 0.056480 0.272594
H43   H     H_    0.214273 0.757177 0.975358 0.245049
H44   H     H_    0.080844 0.802867 0.956414 0.226552
H45   H     H_    0.503799 0.397014 0.046034 0.145915
H46   H     H_    0.151690 0.872748 0.956503 0.225698
H47   H     H_    0.189539 0.968945 0.090005 0.212624
H48   H     H_    0.118637 0.899015 0.089909 0.215803
H49   H     H_    0.496201 0.602986 0.953966 0.145915
H50   H     H_    0.073370 0.964789 0.602998 0.181674
H51   H     H_    0.926630 0.035211 0.397002 0.181674
H52   H     H_    0.491775 0.928126 0.571132 0.215511
O1    O     O_3   0.250010 0.250010 0.500010 -0.503114
O2    O     O_R   0.893710 0.832180 0.664370 -0.639229
O3    O     O_R   0.332200 0.393690 0.664400 -0.642489
O4    O     O_R   0.667800 0.606310 0.335600 -0.642489
O5    O     O_R   0.229300 0.167820 0.335610 -0.634474
O6    O     O_R   0.770700 0.832180 0.664390 -0.634474
O7    O     O_R   0.358130 0.123520 0.543120 -0.612752
O8    O     O_R   0.641870 0.876480 0.456880 -0.612752
O9    O     O_R   0.080390 0.314990 0.456920 -0.649069
O10   O     O_R   0.919610 0.685010 0.543080 -0.649069
O11   O     O_R   0.185040 0.123520 0.543150 -0.623494
O12   O     O_3   0.749990 0.749990 0.499990 -0.503115
O13   O     O_R   0.814960 0.876480 0.456850 -0.623494
O14   O     O_R   0.358080 0.419590 0.543080 -0.647915
O15   O     O_R   0.641920 0.580410 0.456920 -0.647915
O16   O     O_R   0.080420 0.141920 0.456950 -0.648362
O17   O     O_R   0.919580 0.858080 0.543050 -0.648362
O18   O     O_R   0.376490 0.315000 0.456880 -0.620308
O19   O     O_R   0.623510 0.685000 0.543120 -0.620309
O20   O     O_R   0.376520 0.141930 0.456900 -0.631620
O21   O     O_R   0.623480 0.858070 0.543100 -0.631620
O22   O     O_R   0.184990 0.419580 0.543110 -0.641257
O23   O     O_R   0.815010 0.580420 0.456890 -0.641257
O24   O     O_R   0.332220 0.270690 0.664420 -0.608466
O25   O     O_R   0.667780 0.729310 0.335580 -0.608466
O26   O     O_R   0.106290 0.167820 0.335630 -0.639229
Zn1   Zn    Zn3+2 0.307090 0.219220 0.438420 1.016069
Zn2   Zn    Zn3+2 0.692910 0.780780 0.561580 1.016069
Zn3   Zn    Zn3+2 0.280820 0.192930 0.561610 1.042502
Zn4   Zn    Zn3+2 0.719180 0.807070 0.438390 1.042502
Zn5   Zn    Zn3+2 0.131340 0.219220 0.438450 0.973212
Zn6   Zn    Zn3+2 0.868660 0.780780 0.561550 0.973212
Zn7   Zn    Zn3+2 0.280790 0.368660 0.561580 0.985940
Zn8   Zn    Zn3+2 0.719210 0.631340 0.438420 0.985940

loop_
_geom_bond_atom_site_label_1
_geom_bond_atom_site_label_2
_ccdc_geom_bond_type
C1    C25   S    
C13   C18   S    
C40   O7    A    
C76   H47   S    
C61   C64   S    
C10   C13   S    
C3    C5    S    
C12   O4    A    
C16   O26   A    
C17   O2    A    
O1    Zn5   S    
C28   H45   S    
C73   C74   S    
C1    O3    A    
C67   H7    S    
O22   Zn7   S    
C46   C52   S    
C35   C70   S    
C12   O25   A    
C40   O20   A    
C21   C28   S    
C25   C31   T    
C66   C68   S    
C26   C32   T    
C9    C18   S    
C37   C42   S    
C79   H42   S    
O2    Zn6   S    
C69   H18   S    
C27   C29   S    
C55   O16   A    
C21   C24   S    
C16   O5    A    
C77   H44   S    
C39   C55   S    
O12   Zn6   S    
C49   C51   S    
C19   H17   S    
C3    C78   S    
C50   C52   S    
C71   H30   S    
C34   C62   S    
C60   H3    S    
C41   C49   S    
O19   Zn2   S    
C59   O15   A    
C59   C64   S    
O20   Zn1   S    
C79   H43   S    
C61   C63   S    
C74   H38   S    
C57   O13   A    
C18   H16   S    
C33   C66   S    
O10   Zn6   S    
C5    C67   S    
C20   C27   S    
C48   C50   S    
C68   H21   S    
O13   Zn4   S    
O8    Zn4   S    
C17   O6    A    
C24   C30   S    
C75   H36   S    
C61   H4    S    
C11   C19   S    
C41   O21   A    
C3    C45   S    
C44   C47   S    
C77   H46   S    
C12   C26   S    
C56   H10   S    
O26   Zn5   S    
C34   H6    S    
C47   C52   S    
C73   H39   S    
O1    Zn7   S    
O24   Zn3   S    
C45   C67   S    
C22   H1    S    
C56   C78   S    
O12   Zn2   S    
C36   C38   S    
O18   Zn1   S    
Br4   C37   S    
C37   C39   S    
C20   H23   S    
C23   C60   S    
C44   C50   S    
C46   C48   S    
Br3   C36   S    
O1    Zn1   S    
C77   C79   S    
C53   O22   A    
C24   C27   S    
C72   H28   S    
C69   H19   S    
C11   C14   S    
C76   C77   S    
C6    C78   S    
C38   C57   S    
C57   O17   A    
Br8   C46   S    
C63   C65   S    
C11   H11   S    
C70   C71   S    
C39   C43   S    
C45   H9    S    
C60   C65   S    
C23   H5    S    
C58   C65   S    
C34   C61   S    
C24   H12   S    
C41   O8    A    
C1    O24   A    
C70   H32   S    
C9    H14   S    
C74   H37   S    
C5    C7    S    
C44   C51   S    
C14   C54   S    
O12   Zn4   S    
C54   O23   A    
C72   H27   S    
C20   C30   S    
C21   H34   S    
O1    Zn3   S    
C33   C39   S    
C9    C15   S    
C75   H33   S    
C35   C37   S    
C16   C80   S    
C55   O11   A    
C78   H8    S    
C36   C43   S    
C68   H22   S    
C23   C64   S    
C72   H26   S    
C15   C19   S    
C13   C15   S    
C73   H40   S    
C33   C36   S    
C6    C8    S    
O3    Zn7   S    
C21   C29   S    
Br2   C63   S    
C33   C42   S    
C58   O18   A    
O15   Zn8   S    
C58   O14   A    
O5    Zn1   S    
C15   C53   S    
O25   Zn4   S    
O6    Zn2   S    
C76   H48   S    
C34   C65   S    
C54   O10   A    
O14   Zn7   S    
O9    Zn5   S    
Br5   C47   S    
C69   H20   S    
C10   C19   S    
Br6   C48   S    
Br7   C44   S    
C59   O19   A    
C42   H50   S    
C40   C50   S    
C10   C14   S    
C52   H2    S    
C3    C76   S    
C38   C42   S    
O16   Zn5   S    
Br1   C62   S    
O11   Zn3   S    
C48   C51   S    
C22   C28   S    
C79   H41   S    
C47   C49   S    
C70   H31   S    
C4    C6    S    
O12   Zn8   S    
C13   H13   S    
O17   Zn6   S    
C2    C8    T    
C27   H49   S    
C28   C30   S    
C30   C32   S    
C68   C69   S    
C66   H25   S    
C35   C43   S    
C5    C56   S    
C51   H52   S    
C4    C56   S    
C71   H29   S    
C23   C63   S    
C9    C11   S    
C20   C22   S    
C4    C73   S    
C10   H15   S    
C35   C38   S    
O21   Zn2   S    
C2    C17   S    
C71   C72   S    
C29   C31   S    
C6    C45   S    
C22   C29   S    
C60   C62   S    
C74   C75   S    
C14   C18   S    
C4    C67   S    
O4    Zn8   S    
C62   C64   S    
C75   H35   S    
O23   Zn8   S    
C53   O9    A    
C66   H24   S    
O7    Zn3   S    
C7    C80   T    
C46   C49   S    
C43   H51   S    
