data_mof_unit_58954.cif
_audit_creation_date              2012-12-11T15:31:31-0500
_audit_creation_method            fapswitch 2.2
_symmetry_space_group_name_H-M    P1
_symmetry_Int_Tables_number       1
_space_group_crystal_system       triclinic
_cell_length_a                    6.939885
_cell_length_b                    14.73569
_cell_length_c                    21.300383
_cell_angle_alpha                 74.858458
_cell_angle_beta                  90.466524
_cell_angle_gamma                 90.258573
_cell_volume                      2102.56447281

loop_
_atom_site_label
_atom_site_type_symbol
_atom_type_description
_atom_site_fract_x
_atom_site_fract_y
_atom_site_fract_z
_atom_type_partial_charge
O1    O     O_R   0.648150 0.130050 0.214300 -0.537965
O2    O     O_R   0.351850 0.869950 0.785700 -0.537980
O3    O     O_R   0.320490 0.006660 0.340150 -0.543531
O4    O     O_R   0.679510 0.993340 0.659850 -0.543535
O5    O     O_R   0.146100 0.869940 0.285700 -0.542864
O6    O     O_R   0.853900 0.130060 0.714300 -0.542901
C1    C     C_R   0.489318 0.002172 0.366968 0.686813
C2    C     C_R   0.510682 0.997827 0.633032 0.686786
O7    O     O_R   0.318690 0.137980 0.218120 -0.540270
O8    O     O_R   0.681310 0.862020 0.781880 -0.540272
O9    O     O_R   0.144280 0.002190 0.162800 -0.539894
O10   O     O_R   0.855720 0.997810 0.837200 -0.539947
C3    C     C_R   0.487347 0.175746 0.206368 0.699933
C4    C     C_R   0.512653 0.824254 0.793635 0.699909
O11   O     O_R   0.649960 0.997790 0.337200 -0.540036
O12   O     O_R   0.350040 0.002210 0.662800 -0.540051
O13   O     O_3   0.479300 0.955290 0.231990 -0.371567
O14   O     O_3   0.520700 0.044710 0.768010 -0.371559
V1    V     V_3+5 0.206040 0.008290 0.253340 1.405070
V2    V     V_3+5 0.793960 0.991710 0.746660 1.405013
O15   O     O_R   0.814320 0.993320 0.159850 -0.544226
O16   O     O_R   0.185680 0.006680 0.840150 -0.544077
C5    C     C_R   0.982396 0.998259 0.132851 0.683666
C6    C     C_R   0.017604 0.001741 0.867149 0.683752
O17   O     O_R   0.816120 0.862000 0.281880 -0.542236
O18   O     O_R   0.183880 0.138000 0.718120 -0.542148
C7    C     C_R   0.985108 0.824213 0.293626 0.711203
C8    C     C_R   0.014893 0.175782 0.706345 0.711082
V3    V     V_3+5 0.705540 0.991700 0.246660 1.402411
V4    V     V_3+5 0.294460 0.008300 0.753340 1.402588
O19   O     O_3   0.982150 0.044700 0.268010 -0.368733
O20   O     O_3   0.017850 0.955300 0.731990 -0.368750
C9    C     C_R   0.995190 0.722080 0.320314 -0.060369
C10   C     C_R   0.004775 0.277913 0.679656 -0.060788
C11   C     C_R   0.035403 0.564304 0.308841 -0.196148
C12   C     C_R   0.964559 0.435683 0.691143 -0.195822
C13   C     C_R   0.022600 0.661059 0.280087 0.136146
C14   C     C_R   0.977290 0.338924 0.719883 0.136153
C15   C     C_R   0.984029 0.686318 0.387863 -0.260305
C16   C     C_R   0.015983 0.313682 0.612111 -0.260209
C17   C     C_R   0.999846 0.588864 0.417717 0.087044
C18   C     C_R   0.000166 0.411138 0.582264 0.087085
C19   C     C_R   0.023891 0.528137 0.376570 0.112444
C20   C     C_R   0.976110 0.471860 0.623414 0.112332
C21   C     C_R   0.992827 0.549832 0.486766 0.067982
C22   C     C_R   0.007199 0.450171 0.513216 0.067987
C23   C     C_R   0.027357 0.392963 0.469731 -0.194683
C24   C     C_R   0.972676 0.607039 0.530253 -0.194644
C25   C     C_R   0.036544 0.431394 0.403057 -0.201013
C26   C     C_R   0.963479 0.568606 0.596929 -0.201044
H1    H     H_    0.053628 0.384538 0.371800 0.121205
H2    H     H_    0.946398 0.615459 0.628188 0.121199
H3    H     H_    0.035933 0.262844 0.584486 0.098804
H4    H     H_    0.964117 0.737158 0.415489 0.098816
H5    H     H_    0.036738 0.317548 0.485358 0.128305
H6    H     H_    0.963302 0.682454 0.514625 0.128301
C27   C     C_3   0.920990 0.920924 0.991171 -0.142001
C28   C     C_3   0.079011 0.079076 0.008829 -0.142012
C29   C     C_3   0.096529 0.925210 0.035770 -0.142689
C30   C     C_3   0.903471 0.074790 0.964231 -0.142751
H7    H     H_    0.855783 0.855687 0.983488 0.102164
H8    H     H_    0.144218 0.144313 0.016512 0.102172
C31   C     C_3   0.990527 0.998820 0.062224 -0.001462
C32   C     C_3   0.009474 0.001180 0.937776 -0.001547
C33   C     C_3   0.814806 0.994543 0.018436 -0.119149
C34   C     C_3   0.185195 0.005458 0.981565 -0.119186
H9    H     H_    0.662005 0.989878 0.034010 0.105976
H10   H     H_    0.337996 0.010122 0.965991 0.105989
C35   C     C_3   0.650216 0.051364 0.469661 -0.166061
C36   C     C_3   0.349786 0.948634 0.530339 -0.166064
C37   C     C_3   0.487076 0.087206 0.505932 0.180894
C38   C     C_3   0.512927 0.912792 0.494068 0.180893
H11   H     H_    0.773046 0.093806 0.444496 0.110239
H12   H     H_    0.226956 0.906192 0.555504 0.110238
C39   C     C_3   0.503146 0.998271 0.562573 -0.080019
C40   C     C_3   0.496856 0.001727 0.437427 -0.080025
C41   C     C_3   0.666773 0.961390 0.526980 -0.157521
C42   C     C_3   0.333229 0.038608 0.473020 -0.157525
H13   H     H_    0.803334 0.928898 0.549417 0.113175
H14   H     H_    0.196668 0.071100 0.450583 0.113176
C43   C     C_R   0.493802 0.277360 0.178752 -0.034808
C44   C     C_R   0.506198 0.722640 0.821251 -0.034803
C45   C     C_R   0.458292 0.434549 0.190999 -0.166643
C46   C     C_R   0.541751 0.565451 0.809006 -0.166783
C47   C     C_R   0.467034 0.337972 0.218451 -0.177603
C48   C     C_R   0.533013 0.662028 0.781553 -0.177560
C49   C     C_R   0.511055 0.313073 0.111482 -0.215758
C50   C     C_R   0.488894 0.686926 0.888518 -0.215785
C51   C     C_R   0.498601 0.410833 0.081982 0.085410
C52   C     C_R   0.501373 0.589165 0.918019 0.085476
C53   C     C_R   0.472377 0.471311 0.123361 0.144275
C54   C     C_R   0.527625 0.528689 0.876642 0.144227
C55   C     C_R   0.508243 0.450217 0.013095 0.058930
C56   C     C_R   0.491727 0.549782 0.986908 0.058924
C57   C     C_R   0.466914 0.606597 0.030471 -0.187712
C58   C     C_R   0.533073 0.393401 0.969531 -0.187589
C59   C     C_R   0.457746 0.567949 0.097107 -0.210719
C60   C     C_R   0.542258 0.432050 0.902896 -0.210923
H15   H     H_    0.437571 0.614434 0.128452 0.114748
H16   H     H_    0.562436 0.385564 0.871552 0.114859
H17   H     H_    0.471013 0.737928 0.916135 0.091766
H18   H     H_    0.528879 0.262070 0.083863 0.091764
H19   H     H_    0.548779 0.689603 0.729456 0.104457
H20   H     H_    0.451308 0.310397 0.270550 0.104457
H21   H     H_    0.437275 0.480583 0.222603 0.113042
H22   H     H_    0.562798 0.519417 0.777404 0.113075
H23   H     H_    0.453200 0.681847 0.014915 0.118967
H24   H     H_    0.546803 0.318152 0.985087 0.118975
C61   C     C_3   0.960208 0.302900 0.793036 -0.380758
C62   C     C_3   0.158310 0.286637 0.825596 -0.751954
H25   H     H_    0.239162 0.232528 0.808959 0.229251
H26   H     H_    0.242312 0.353219 0.814071 0.229907
H27   H     H_    0.141188 0.261913 0.879164 0.213785
H28   H     H_    0.881181 0.354446 0.813066 0.179282
H29   H     H_    0.875070 0.236682 0.806101 0.164640
C63   C     C_3   0.039720 0.697058 0.206929 -0.380991
C64   C     C_3   0.841690 0.714205 0.174369 -0.752034
H30   H     H_    0.755698 0.648226 0.186356 0.229790
H31   H     H_    0.762826 0.769306 0.190533 0.229330
H32   H     H_    0.858871 0.738023 0.120769 0.213764
H33   H     H_    0.126111 0.762892 0.193897 0.164698
H34   H     H_    0.117479 0.645178 0.186858 0.179487
H35   H     H_    0.054720 0.516790 0.278145 0.118356
H36   H     H_    0.945240 0.483181 0.721850 0.118425
H37   H     H_    0.175836 0.863468 0.065686 0.103053
H38   H     H_    0.824165 0.136533 0.934315 0.102971
C65   C     C_3   0.472711 0.186859 0.514297 -0.365083
C66   C     C_3   0.464021 0.260046 0.448783 -0.758190
H39   H     H_    0.596507 0.257136 0.420479 0.221394
H40   H     H_    0.336118 0.247670 0.420416 0.214492
H41   H     H_    0.452907 0.331346 0.456758 0.235307
H42   H     H_    0.341136 0.192205 0.542443 0.170960
H43   H     H_    0.600367 0.201058 0.542128 0.176593
C67   C     C_3   0.527296 0.813140 0.485702 -0.365073
C68   C     C_3   0.535985 0.739951 0.551215 -0.758189
H44   H     H_    0.663883 0.752328 0.579584 0.214492
H45   H     H_    0.403495 0.742858 0.579518 0.221393
H46   H     H_    0.547107 0.668652 0.543240 0.235306
H47   H     H_    0.399643 0.798940 0.457870 0.176593
H48   H     H_    0.658873 0.807795 0.457557 0.170973

loop_
_geom_bond_atom_site_label_1
_geom_bond_atom_site_label_2
_ccdc_geom_bond_type
C28   H8    S    
C68   H46   S    
C34   H10   S    
C31   C33   S    
C55   C56   A    
O11   V3    S    
C36   C42   S    
O13   V3    S    
C35   C41   S    
O4    C2    A    
V1    O19   S    
C66   H39   S    
C50   H17   S    
C54   C60   A    
C68   H44   S    
C23   C25   A    
C13   C63   S    
C21   C22   A    
C7    C9    S    
O9    V1    S    
C9    C15   A    
C63   H34   S    
C10   C16   A    
C12   H36   S    
C40   C42   S    
O3    C1    A    
C64   H31   S    
C29   C34   S    
C67   H48   S    
C42   H14   S    
C27   C29   S    
C15   H4    S    
C28   C30   S    
C3    C43   S    
C63   C64   S    
C35   C40   S    
C24   H6    S    
C18   C22   A    
C30   H38   S    
C35   C37   S    
O7    C3    A    
C65   H42   S    
O5    C7    A    
C38   C67   S    
O7    V1    S    
O6    C8    A    
O8    V2    S    
C25   H1    S    
C58   C60   A    
C36   H12   S    
C26   H2    S    
O3    V1    S    
O14   V4    S    
C51   C53   A    
C11   C19   A    
C38   C40   S    
C5    C31   S    
C58   H24   S    
C8    C10   S    
C6    C32   S    
C17   C19   A    
C37   C65   S    
C18   C20   A    
C48   H19   S    
C59   H15   S    
C28   C34   S    
C52   C56   A    
C46   H22   S    
C41   H13   S    
O17   V3    S    
C63   H33   S    
V4    O20   S    
C15   C17   A    
O8    C4    A    
C64   H32   S    
C67   H47   S    
C19   C25   A    
C1    O11   A    
C33   H9    S    
C44   C48   A    
O15   V3    S    
C2    C39   S    
C9    C13   A    
C45   H21   S    
C32   C34   S    
C38   C41   S    
C49   H18   S    
C52   C54   A    
O10   V2    S    
O1    V3    S    
C62   H25   S    
C53   C59   A    
C14   C61   S    
C35   H11   S    
C24   C26   A    
C39   C41   S    
C62   H27   S    
C43   C49   A    
C47   H20   S    
C57   H23   S    
C61   H28   S    
C45   C47   A    
C50   C52   A    
C30   C33   S    
O18   V4    S    
C55   C58   A    
C60   H16   S    
O15   C5    A    
O16   C6    A    
C12   C20   A    
O1    C3    A    
C4    C44   S    
C65   C66   S    
C66   H41   S    
O6    V2    S    
C27   C32   S    
C23   H5    S    
V2    O20   S    
C21   C24   A    
C20   C26   A    
C28   C31   S    
C68   H45   S    
C22   C23   A    
O16   V4    S    
C11   C13   A    
C10   C14   A    
C29   C31   S    
C65   H43   S    
C27   C33   S    
C16   C18   A    
C66   H40   S    
C57   C59   A    
C27   H7    S    
C1    C40   S    
O5    V1    S    
O17   C7    A    
C45   C53   A    
O10   C6    A    
C67   C68   S    
O18   C8    A    
O2    V4    S    
C30   C32   S    
C11   H35   S    
V3    O19   S    
C29   H37   S    
C12   C14   A    
C37   C39   S    
C44   C50   A    
O9    C5    A    
O13   V1    S    
O14   V2    S    
C51   C55   A    
C56   C57   A    
O2    C4    A    
C62   H26   S    
C61   H29   S    
O4    V2    S    
C2    O12   A    
C16   H3    S    
C61   C62   S    
C36   C39   S    
C49   C51   A    
C17   C21   A    
C46   C48   A    
C36   C38   S    
C46   C54   A    
C64   H30   S    
O12   V4    S    
C37   C42   S    
C43   C47   A    
