data_mof_unit_8338.cif
_audit_creation_date              2012-12-11T16:41:37-0500
_audit_creation_method            fapswitch 2.2
_symmetry_space_group_name_H-M    P1
_symmetry_Int_Tables_number       1
_space_group_crystal_system       triclinic
_cell_length_a                    8.420474
_cell_length_b                    17.38824
_cell_length_c                    18.938192
_cell_angle_alpha                 99.165381
_cell_angle_beta                  91.229589
_cell_angle_gamma                 95.990172
_cell_volume                      2720.47959972

loop_
_atom_site_label
_atom_site_type_symbol
_atom_type_description
_atom_site_fract_x
_atom_site_fract_y
_atom_site_fract_z
_atom_type_partial_charge
Ba1   Ba    Ba6+2 0.849550 0.533890 0.465080 1.818720
Ba2   Ba    Ba6+2 0.340280 0.466170 0.534930 1.807924
C1    C     C_3   0.678476 0.805190 0.273856 -0.281816
C2    C     C_R   0.937241 0.398869 0.091054 -0.086559
C3    C     C_R   0.788828 0.427200 0.955931 0.015484
C4    C     C_3   0.098542 0.677505 0.265110 0.209048
C5    C     C_R   0.949783 0.451333 0.974567 0.047058
C6    C     C_R   0.719228 0.430618 0.889091 -0.007787
C7    C     C_R   0.811252 0.462841 0.835841 -0.026961
C8    C     C_R   0.971361 0.496370 0.856785 -0.004009
C9    C     C_R   0.037870 0.492311 0.927078 0.026671
C10   C     C_R   0.753802 0.464360 0.763815 0.004052
C11   C     C_R   0.859952 0.495240 0.715198 -0.329604
C12   C     C_3   0.616495 0.725142 0.291855 0.258481
C13   C     C_R   0.016322 0.529702 0.735025 0.002619
C14   C     C_R   0.062436 0.539197 0.810020 -0.035150
C15   C     C_R   0.165637 0.487975 0.067871 0.047423
C16   C     C_3   0.076702 0.690064 0.187701 -0.233411
C17   C     C_R   0.223008 0.489697 0.140210 0.022827
C18   C     C_R   0.121083 0.457971 0.190377 -0.014107
C19   C     C_R   0.976258 0.415266 0.164341 -0.101138
C20   C     C_R   0.184294 0.596327 0.843712 0.005398
C21   C     C_R   0.245264 0.592444 0.911989 -0.098064
C22   C     C_R   0.186830 0.534768 0.951638 0.007028
C23   C     C_3   0.507282 0.206070 0.318085 0.214406
C24   C     C_R   0.258111 0.528269 0.020153 -0.029252
C25   C     C_R   0.421066 0.556338 0.041591 -0.041228
C26   C     C_R   0.382531 0.520820 0.161602 -0.084046
C27   C     C_R   0.484366 0.544278 0.108428 -0.029195
C28   C     C_3   0.203882 0.732315 0.655363 0.218982
C29   C     C_R   0.435783 0.523564 0.234585 0.020960
C30   C     C_R   0.331954 0.492347 0.282357 -0.196101
C31   C     C_R   0.173915 0.462240 0.263253 -0.036197
C32   C     C_R   0.422192 0.721070 0.457575 -0.240074
C33   C     C_R   0.556212 0.747615 0.505967 -0.066921
C34   C     C_3   0.652896 0.159622 0.298308 -0.244872
C35   C     C_R   0.602806 0.828656 0.520259 -0.127056
C36   C     C_R   0.508875 0.881669 0.494448 -0.021950
C37   C     C_R   0.362519 0.853818 0.456800 -0.102302
C38   C     C_R   0.316342 0.773065 0.439479 0.001076
C39   C     C_R   0.578059 0.168135 0.498283 -0.169069
C40   C     C_3   0.105316 0.803665 0.660455 -0.228382
C41   C     C_R   0.641891 0.245072 0.494924 -0.049741
C42   C     C_R   0.888147 0.223180 0.554159 -0.014436
C43   C     C_R   0.826596 0.144468 0.556705 -0.112305
C44   C     C_R   0.670318 0.116723 0.526938 0.029800
C45   C     C_3   0.084903 0.303352 0.732070 0.180057
C46   C     C_1   0.609070 0.034189 0.517606 0.119767
C47   C     C_1   0.561610 0.964929 0.507883 0.101488
C48   C     C_R   0.796386 0.271354 0.522107 -0.190463
C49   C     C_3   0.112119 0.281072 0.299231 0.231944
C50   C     C_3   0.069396 0.258098 0.218615 -0.448862
C51   C     C_3   0.607289 0.699440 0.698375 0.142734
C52   C     C_3   0.615055 0.783515 0.740734 -0.279043
C53   C     C_2   0.167270 0.863214 0.615086 0.482791
C54   C     C_2   0.102674 0.844261 0.736763 0.612979
C55   C     C_2   0.113580 0.208107 0.332568 0.472837
C56   C     C_3   0.145570 0.288412 0.805463 -0.263362
C57   C     C_2   0.649802 0.648345 0.751235 0.463721
C58   C     C_2   0.614893 0.844967 0.693712 0.642972
C59   C     C_2   0.635630 0.811475 0.197865 0.560099
C60   C     C_2   0.418951 0.204365 0.247772 0.460699
C61   C     C_2   0.599562 0.075349 0.265283 0.521301
C62   C     C_2   0.768866 0.162676 0.359648 0.475819
C63   C     C_2   0.907952 0.307604 0.730830 0.473744
C64   C     C_2   0.087199 0.208087 0.820415 0.675079
C65   C     C_2   0.384236 0.122858 0.659099 0.420452
C66   C     C_2   0.524701 0.174429 0.776863 0.829861
C67   C     C_3   0.514843 0.263095 0.680605 0.212999
C68   C     C_2   0.801975 0.497764 0.642636 0.566511
C69   C     C_2   0.546039 0.405000 0.883798 0.511868
C70   C     C_2   0.205180 0.675613 0.826113 0.572796
C71   C     C_2   0.654778 0.531455 0.112700 0.531809
C72   C     C_2   0.831462 0.325100 0.066712 0.501766
C73   C     C_2   0.534996 0.588981 0.992042 0.567587
C74   C     C_2   0.926505 0.092232 0.588730 0.570067
C75   C     C_2   0.387320 0.640166 0.421763 0.771628
C76   C     C_2   0.211386 0.744639 0.167441 0.525639
C77   C     C_2   0.232183 0.698126 0.582004 0.474203
C78   C     C_3   0.519830 0.178572 0.697709 -0.273137
C79   C     C_R   0.015863 0.445396 0.043770 0.054268
H1    H     H_    0.650163 0.726260 0.349069 0.068402
H2    H     H_    0.135215 0.300150 0.188764 0.138248
H3    H     H_    0.774429 0.645536 0.765277 0.033385
H4    H     H_    0.488965 0.676368 0.674417 0.015127
H5    H     H_    0.627372 0.851611 0.311084 0.124613
H6    H     H_    0.724780 0.796497 0.776215 0.115412
H7    H     H_    0.512315 0.788606 0.776148 0.095924
H8    H     H_    0.515149 0.844452 0.656934 -0.121895
H9    H     H_    0.484457 0.716290 0.283805 0.001617
H10   H     H_    0.674303 0.770094 0.154209 0.106890
H11   H     H_    0.427640 0.175680 0.353431 0.000137
H12   H     H_    0.317601 0.754375 0.683773 -0.083908
H13   H     H_    0.339919 0.152643 0.225080 -0.036279
H14   H     H_    0.637645 0.052465 0.212401 0.052403
H15   H     H_    0.720609 0.187364 0.257487 0.029103
H16   H     H_    0.823613 0.219241 0.385415 0.035790
H17   H     H_    0.810528 0.814517 0.281813 0.119344
H18   H     H_    0.070967 0.632612 0.151865 0.130145
H19   H     H_    0.144873 0.361395 0.724786 0.058630
H20   H     H_    0.854715 0.330050 0.687091 -0.100865
H21   H     H_    0.276655 0.294178 0.806982 0.124674
H22   H     H_    0.110187 0.334120 0.848513 0.111881
H23   H     H_    0.289145 0.890731 0.622634 0.028196
H24   H     H_    0.111566 0.156424 0.783866 0.061017
H25   H     H_    0.618668 0.276254 0.648129 -0.000254
H26   H     H_    0.409182 0.266709 0.646728 0.105554
H27   H     H_    0.631571 0.157176 0.675984 0.072093
H28   H     H_    0.364573 0.119895 0.601976 0.026451
H29   H     H_    0.007458 0.629669 0.274137 0.127945
H30   H     H_    0.427151 0.192062 0.809738 -0.018221
H31   H     H_    0.736059 0.544868 0.631899 0.008483
H32   H     H_    0.461837 0.442907 0.869501 0.002237
H33   H     H_    0.902395 0.385174 0.199463 0.084757
H34   H     H_    0.980261 0.782114 0.642437 0.144455
H35   H     H_    0.322407 0.702167 0.815822 0.030422
H36   H     H_    0.683891 0.475598 0.124410 -0.041296
H37   H     H_    0.375727 0.491515 0.336236 0.113163
H38   H     H_    0.709302 0.410458 0.996103 0.052024
H39   H     H_    0.744678 0.303347 0.102416 0.020449
H40   H     H_    0.321907 0.642996 0.938405 0.108897
H41   H     H_    0.219074 0.659026 0.272920 -0.003638
H42   H     H_    0.541189 0.560362 0.937397 -0.071081
H43   H     H_    0.460778 0.146686 0.474118 0.106209
H44   H     H_    0.284929 0.894664 0.441255 0.121023
H45   H     H_    0.990769 0.845706 0.763782 0.065647
H46   H     H_    0.055360 0.104181 0.591552 0.047694
H47   H     H_    0.710739 0.850549 0.552401 0.161459
H48   H     H_    0.381233 0.630069 0.364202 -0.892945
H49   H     H_    0.850007 0.328056 0.513727 0.128045
H50   H     H_    0.962332 0.714956 0.180569 0.137690
H51   H     H_    0.233216 0.804179 0.196114 0.078207
H52   H     H_    0.338502 0.670790 0.572148 -0.089514
H53   H     H_    0.100852 0.150318 0.300012 -0.018213
H54   H     H_    0.234036 0.313281 0.307947 0.023261
H55   H     H_    0.938963 0.256395 0.207972 0.124004
H56   H     H_    0.103374 0.199641 0.195714 0.116845
O1    O     O_2   0.878040 0.448040 0.325130 -0.419519
O2    O     O_2   0.217244 0.229879 0.545971 -0.472889
O3    O     O_3   0.126158 0.244186 0.677589 -0.665327
O4    O     O_3   0.126800 0.453980 0.414370 -0.396972
O5    O     O_3   0.569440 0.593820 0.536390 -0.436847
O6    O     O_2   0.359400 0.311980 0.465480 -0.407299
O7    O     O_3   0.550980 0.286152 0.347799 -0.614341
O8    O     O_2   0.411146 0.457717 0.752833 -0.477328
O9    O     O_3   0.514188 0.319069 0.743091 -0.598932
O10   O     O_3   0.651020 0.589120 0.368830 -0.461220
O11   O     O_2   0.769529 0.528760 0.248388 -0.477586
O12   O     O_3   0.723898 0.696624 0.646960 -0.660003
O13   O     O_3   0.996156 0.325271 0.332882 -0.607106
O14   O     O_3   0.686696 0.666058 0.247839 -0.580171
O15   O     O_2   0.830300 0.688050 0.534560 -0.366796
O16   O     O_3   0.068750 0.630380 0.404830 -0.406133
O17   O     O_2   0.978997 0.772724 0.442257 -0.404095
O18   O     O_2   0.079375 0.882436 0.570434 -0.525606
O19   O     O_2   0.225675 0.875665 0.769029 -0.546530
O20   O     O_2   0.128793 0.212597 0.397251 -0.545274
O21   O     O_2   0.546488 0.613531 0.781906 -0.619564
O22   O     O_2   0.726129 0.896572 0.697203 -0.524434
O23   O     O_3   0.077463 0.746790 0.311860 -0.618738
O24   O     O_2   0.558544 0.863452 0.184567 -0.528677
O25   O     O_2   0.443156 0.258153 0.213595 -0.573252
O26   O     O_2   0.515263 0.032464 0.297771 -0.540382
O27   O     O_2   0.808489 0.103430 0.379059 -0.548629
O28   O     O_2   0.825025 0.288824 0.778632 -0.543180
O29   O     O_2   0.012576 0.200434 0.873852 -0.449097
O30   O     O_2   0.297001 0.079896 0.690352 -0.555721
O31   O     O_2   0.637037 0.149413 0.804299 -0.471814
O32   O     O_2   0.825286 0.445503 0.594291 -0.576038
O33   O     O_2   0.494975 0.342948 0.901804 -0.553221
O34   O     O_2   0.311660 0.551990 0.674910 -0.466359
O35   O     O_2   0.092163 0.714547 0.829661 -0.565443
O36   O     O_2   0.761815 0.581855 0.104542 -0.548515
O37   O     O_2   0.846183 0.285772 0.008247 -0.470282
O38   O     O_2   0.616847 0.651355 0.011230 -0.490139
O39   O     O_2   0.866355 0.035897 0.613537 -0.511998
O40   O     O_2   0.338730 0.587416 0.453220 -0.504752
O41   O     O_2   0.296505 0.722700 0.118548 -0.541526
O42   O     O_2   0.123904 0.685666 0.537742 -0.511013
O43   O     O_3   0.062910 0.546080 0.585630 -0.405166
O44   O     O_3   0.538690 0.410940 0.631180 -0.470688
O45   O     O_3   0.125182 0.675612 0.690871 -0.643416
O46   O     O_3   0.620260 0.406250 0.463620 -0.395939
O47   O     O_3   0.120960 0.369680 0.595180 -0.455515
P1    P     P_3+3 0.048060 0.426210 0.336320 1.050560
P2    P     P_3+3 0.655920 0.678120 0.556130 1.016545
P3    P     P_3+3 0.110907 0.731798 0.399998 1.066013
P4    P     P_3+3 0.141640 0.573850 0.663690 1.048162
P5    P     P_3+3 0.087761 0.267508 0.592044 0.967189
P6    P     P_3+3 0.631352 0.575655 0.275151 1.005419
P7    P     P_3+3 0.539502 0.307085 0.442168 1.012922
P8    P     P_3+3 0.553959 0.414728 0.723803 0.985977

loop_
_geom_bond_atom_site_label_1
_geom_bond_atom_site_label_2
_ccdc_geom_bond_type
C66   C78   S    
C37   H44   S    
C61   H14   S    
C25   C27   A    
C39   C41   A    
C28   O45   S    
C34   C62   S    
C17   C18   A    
C58   O22   D    
C63   H20   S    
C54   O19   D    
O13   P1    S    
C67   H26   S    
C21   H40   S    
C38   P3    S    
C52   C58   S    
C43   C44   A    
C73   H42   S    
C53   O18   D    
C29   P6    S    
C24   C25   A    
C39   C44   A    
O34   P4    D    
C3    H38   S    
C43   C74   S    
C32   C38   A    
C15   C24   A    
C70   O35   D    
C39   H43   S    
C26   C27   A    
C33   C35   A    
C68   O32   D    
C22   C24   A    
C72   O37   D    
C28   H12   S    
C32   C75   S    
C36   C37   A    
C42   P5    S    
C57   O21   D    
C27   C71   S    
C11   C68   S    
O10   P6    S    
C42   C48   A    
C13   C14   A    
C63   O28   D    
C9    C22   A    
C69   H32   S    
Ba1   O15   S    
C18   C31   A    
C32   C33   A    
Ba2   O4    S    
C76   H51   S    
C12   H9    S    
Ba1   O5    S    
O43   P4    S    
C40   C54   S    
C49   H54   S    
C65   H28   S    
O14   P6    S    
C2    C79   A    
C49   O13   S    
C6    C7    A    
C23   H11   S    
C45   O3    S    
C21   C22   A    
C49   C55   S    
C54   H45   S    
C34   C61   S    
C48   H49   S    
C7    C8    A    
C61   O26   D    
C2    C72   S    
C62   O27   D    
Ba2   O34   S    
C23   C60   S    
C35   H47   S    
C41   P7    S    
O12   P2    S    
C1    H5    S    
C51   O12   S    
O3    P5    S    
C4    H29   S    
O9    P8    S    
C16   H50   S    
Ba2   O43   S    
C25   C73   S    
C20   C70   S    
C7    C10   A    
C56   C64   S    
C1    C59   S    
C51   C57   S    
C10   P8    S    
C4    C16   S    
C44   C46   S    
C71   H36   S    
C64   O29   D    
C73   O38   D    
C49   C50   S    
C74   O39   D    
O1    P1    D    
C57   H3    S    
O15   P2    D    
C37   C38   A    
C3    C5    A    
C15   C17   A    
Ba2   O47   S    
O16   P3    S    
O11   P6    D    
C51   C52   S    
C53   H23   S    
C75   O40   D    
C45   H19   S    
C66   H30   S    
C12   O14   S    
C50   H2    S    
C5    C9    A    
C35   C36   A    
C40   C53   S    
C34   H15   S    
C29   C30   A    
C16   C76   S    
C50   H56   S    
C69   O33   D    
C75   H48   S    
C10   C11   A    
Ba1   O16   S    
C17   C26   A    
O47   P5    S    
C78   H27   S    
C1    C12   S    
C68   H31   S    
Ba1   O46   S    
C56   H21   S    
C28   C77   S    
C66   O31   D    
C46   C47   T    
C5    C79   A    
C60   H13   S    
O8    P8    D    
C50   H55   S    
O5    P2    S    
C59   O24   D    
C55   H53   S    
Ba1   O10   S    
C23   O7    S    
O4    P1    S    
C16   H18   S    
C12   H1    S    
C64   H24   S    
C36   C47   S    
C42   C43   A    
O17   P3    D    
C65   O30   D    
Ba1   Ba2   S    
C55   O20   D    
C62   H16   S    
C6    C69   S    
C14   C20   A    
Ba2   O6    S    
C76   O41   D    
C26   C29   A    
C65   C78   S    
C30   H37   S    
C19   H33   S    
O2    P5    D    
O46   P7    S    
C3    C6    A    
C4    O23   S    
C67   H25   S    
C41   C48   A    
O7    P7    S    
Ba1   P1    S    
C72   H39   S    
C13   P4    S    
C70   H35   S    
C67   O9    S    
Ba1   O43   S    
O23   P3    S    
C71   O36   D    
C30   C31   A    
C11   C13   A    
C8    C14   A    
C45   C56   S    
C52   H7    S    
C2    C19   A    
C1    H17   S    
Ba1   P2    S    
C52   H6    S    
C33   P2    S    
Ba2   O5    S    
C58   H8    S    
O44   P8    S    
C45   C63   S    
C15   C79   A    
Ba2   O46   S    
C60   O25   D    
C77   H52   S    
Ba2   P4    S    
Ba1   O4    S    
C8    C9    A    
C51   H4    S    
C23   C34   S    
C40   H34   S    
C77   O42   D    
C18   C19   A    
C74   H46   S    
C4    H41   S    
C20   C21   A    
C28   C40   S    
C67   C78   S    
C31   P1    S    
C56   H22   S    
O6    P7    D    
O45   P4    S    
Ba2   O44   S    
Ba1   O1    S    
C59   H10   S    
