data_mof_unit_14722.cif
_audit_creation_date              2012-12-10T18:48:40-0500
_audit_creation_method            fapswitch 2.2
_symmetry_space_group_name_H-M    P1
_symmetry_Int_Tables_number       1
_space_group_crystal_system       triclinic
_cell_length_a                    15.128716
_cell_length_b                    15.068538
_cell_length_c                    9.837512
_cell_angle_alpha                 90.022006
_cell_angle_beta                  90.113483
_cell_angle_gamma                 89.622585
_cell_volume                      2242.58110746

loop_
_atom_site_label
_atom_site_type_symbol
_atom_type_description
_atom_site_fract_x
_atom_site_fract_y
_atom_site_fract_z
_atom_type_partial_charge
C1    C     C_R   0.119825 0.380229 0.499976 0.868638
C2    C     C_R   0.993541 0.422336 0.927978 -0.069710
C3    C     C_R   0.993488 0.422339 0.071894 -0.067897
C4    C     C_R   0.006679 0.577649 0.928106 -0.067776
C5    C     C_R   0.497160 0.077949 0.072013 -0.069539
C6    C     C_R   0.503062 0.922076 0.928038 -0.069091
C7    C     C_R   0.503078 0.922071 0.071924 -0.068218
C8    C     C_R   0.497217 0.077945 0.928092 -0.076120
C9    C     C_R   0.740500 0.324580 0.414992 0.024320
C10   C     C_R   0.247085 0.688044 0.622793 0.031667
C11   C     C_R   0.242633 0.692247 0.373831 0.032991
C12   C     C_R   0.880774 0.620380 0.499828 0.924365
C13   C     C_R   0.825277 0.239845 0.584884 0.059950
C14   C     C_R   0.269221 0.334428 0.554883 0.085392
C15   C     C_R   0.832472 0.769107 0.440375 0.008759
C16   C     C_R   0.732734 0.666109 0.557780 0.088123
C17   C     C_R   0.166452 0.230746 0.443958 0.089233
C18   C     C_R   0.307250 0.756978 0.373771 0.033324
C19   C     C_R   0.760835 0.175285 0.586062 0.018331
C20   C     C_R   0.675808 0.259572 0.415075 0.033731
C21   C     C_R   0.312006 0.752697 0.622691 0.037130
C22   C     C_R   0.667063 0.730373 0.558330 0.005167
C23   C     C_R   0.880282 0.379986 0.499910 0.949631
C24   C     C_R   0.231028 0.165884 0.444710 0.085732
C25   C     C_R   0.333784 0.269537 0.555704 0.087215
C26   C     C_R   0.766811 0.833333 0.440787 0.082315
C27   C     C_R   0.205660 0.665836 0.498980 -0.111567
C28   C     C_R   0.814336 0.313636 0.499744 -0.097761
C29   C     C_R   0.814428 0.686320 0.499306 -0.120006
C30   C     C_R   0.186062 0.314220 0.499684 -0.179886
C31   C     C_R   0.686543 0.185797 0.500873 -0.109105
C32   C     C_R   0.334058 0.794080 0.498839 -0.112726
C33   C     C_R   0.314130 0.186012 0.500168 -0.187066
C34   C     C_R   0.125713 0.614102 0.499907 0.899579
C35   C     C_R   0.685318 0.813383 0.500211 -0.115870
C36   C     C_R   0.619143 0.879515 0.500107 0.902270
C37   C     C_R   0.380289 0.119891 0.500007 0.884586
C38   C     C_R   0.385952 0.874147 0.499786 0.901396
C39   C     C_R   0.620234 0.119610 0.500248 0.916404
C40   C     C_R   0.006686 0.577648 0.072021 -0.064975
H1    H     H_    0.012045 0.639712 0.126602 0.120768
H2    H     H_    0.725859 0.383988 0.230756 0.188218
H3    H     H_    0.278676 0.613026 0.788487 0.178165
H4    H     H_    0.200259 0.692703 0.816930 0.173280
H5    H     H_    0.268128 0.623470 0.199404 0.176558
H6    H     H_    0.188555 0.703734 0.184332 0.170631
H7    H     H_    0.882789 0.226944 0.770061 0.199268
H8    H     H_    0.934313 0.170658 0.643623 0.197132
H9    H     H_    0.249176 0.434324 0.690565 0.209309
H10   H     H_    0.277098 0.468087 0.531540 0.174985
H11   H     H_    0.966042 0.777845 0.456861 0.176324
H12   H     H_    0.988471 0.360252 0.873386 0.136436
H13   H     H_    0.928841 0.748165 0.300197 0.201642
H14   H     H_    0.699561 0.587178 0.716085 0.204047
H15   H     H_    0.663334 0.551554 0.562526 0.193215
H16   H     H_    0.032899 0.224449 0.461141 0.175746
H17   H     H_    0.069847 0.250665 0.303444 0.195906
H18   H     H_    0.295293 0.811175 0.184459 0.180673
H19   H     H_    0.375192 0.731202 0.199059 0.165215
H20   H     H_    0.765620 0.041246 0.613040 0.192880
H21   H     H_    0.726718 0.099856 0.749051 0.216861
H22   H     H_    0.618145 0.271254 0.229231 0.183913
H23   H     H_    0.988267 0.360265 0.126381 0.121766
H24   H     H_    0.565582 0.327353 0.355576 0.173242
H25   H     H_    0.308453 0.799632 0.817084 0.181360
H26   H     H_    0.387187 0.720407 0.787754 0.168756
H27   H     H_    0.533649 0.721254 0.539947 0.179161
H28   H     H_    0.569781 0.750978 0.697131 0.202288
H29   H     H_    0.251022 0.066595 0.308068 0.207240
H30   H     H_    0.223653 0.032086 0.466947 0.174248
H31   H     H_    0.467305 0.275768 0.538128 0.177877
H32   H     H_    0.430521 0.249753 0.695960 0.194368
H33   H     H_    0.798385 0.910965 0.280285 0.208354
H34   H     H_    0.012012 0.639718 0.873608 0.128608
H35   H     H_    0.836756 0.947467 0.431992 0.194709
H36   H     H_    0.494910 0.140251 0.126615 0.136248
H37   H     H_    0.505666 0.859798 0.873564 0.128513
H38   H     H_    0.505718 0.859780 0.126417 0.135547
H39   H     H_    0.495117 0.140242 0.873604 0.120894
H40   H     H_    0.673404 0.436570 0.360970 0.174642
N1    N     N_R   1.000000 0.500000 0.857200 -0.079648
N2    N     N_3   0.917299 0.789680 0.383442 -0.469614
N3    N     N_3   0.716872 0.579655 0.613865 -0.441674
N4    N     N_3   0.081101 0.210397 0.388232 -0.429816
N5    N     N_3   0.345060 0.785341 0.247061 -0.435767
N6    N     N_3   0.773545 0.098713 0.671170 -0.468690
N7    N     N_3   0.598450 0.268334 0.330891 -0.459517
N8    N     N_3   0.355378 0.776350 0.747645 -0.442012
N9    N     N_3   0.581967 0.709524 0.614057 -0.472421
N10   N     N_3   0.210565 0.079494 0.391825 -0.427745
N11   N     N_3   0.419195 0.289941 0.611125 -0.432665
N12   N     N_R   1.000000 0.500000 0.142800 -0.076540
N13   N     N_3   0.782376 0.919323 0.382859 -0.451923
N14   N     N_R   0.500000 1.000000 0.857200 -0.078404
N15   N     N_R   0.500000 0.000000 0.142800 -0.080218
N16   N     N_3   0.731094 0.402894 0.332660 -0.437192
N17   N     N_3   0.223172 0.645134 0.747909 -0.431773
N18   N     N_3   0.214257 0.653921 0.247166 -0.424494
N19   N     N_3   0.902764 0.230417 0.668514 -0.458749
N20   N     N_3   0.289805 0.420945 0.607185 -0.430710
O1    O     O_R   0.091610 0.408380 0.614620 -0.623209
O2    O     O_R   0.408390 0.091620 0.385380 -0.623366
O3    O     O_R   0.408390 0.091620 0.614620 -0.622374
O4    O     O_R   0.591610 0.908380 0.385380 -0.610262
O5    O     O_R   0.408390 0.908380 0.385380 -0.604029
O6    O     O_R   0.591610 0.091620 0.614620 -0.644704
O7    O     O_R   0.591610 0.091620 0.385380 -0.591830
O8    O     O_R   0.408390 0.908380 0.614620 -0.598649
O9    O     O_R   0.908390 0.591620 0.385380 -0.625958
O10   O     O_R   0.908390 0.591620 0.614620 -0.609808
O11   O     O_R   0.091610 0.408380 0.385380 -0.627081
O12   O     O_R   0.908390 0.408380 0.385380 -0.615094
O13   O     O_R   0.091610 0.591620 0.614620 -0.608107
O14   O     O_R   0.091610 0.591620 0.385380 -0.604445
O15   O     O_R   0.908390 0.408380 0.614620 -0.607170
O16   O     O_R   0.591610 0.908380 0.614620 -0.636790
Zn1   Zn    Zn3+2 0.000000 0.500000 0.653120 0.956488
Zn2   Zn    Zn3+2 1.000000 0.500000 0.346880 0.950451
Zn3   Zn    Zn3+2 0.500000 0.000000 0.653120 0.936416
Zn4   Zn    Zn3+2 0.500000 0.000000 0.346880 0.957162

loop_
_geom_bond_atom_site_label_1
_geom_bond_atom_site_label_2
_ccdc_geom_bond_type
C10   C27   A    
C39   O6    A    
C11   C18   A    
O6    Zn3   S    
C35   C36   S    
H33   N13   S    
C19   N6    S    
C19   C31   A    
C12   O10   A    
C34   O13   A    
C39   O7    A    
C22   C35   A    
O11   Zn2   S    
H2    N16   S    
H5    N18   S    
H26   N8    S    
C37   O2    A    
C12   C29   S    
C20   N7    S    
N1    Zn1   S    
H27   N9    S    
H7    N19   S    
H4    N17   S    
N12   Zn2   S    
H14   N3    S    
C4    N1    A    
C4    C40   A    
O15   Zn1   S    
C8    H39   S    
O5    Zn4   S    
H16   N4    S    
C32   C38   S    
H40   N16   S    
H24   N7    S    
C4    H34   S    
C26   N13   S    
H6    N18   S    
C21   N8    S    
C10   C21   A    
C17   C30   A    
O8    Zn3   S    
H30   N10   S    
C14   C30   A    
O10   Zn1   S    
C12   O9    A    
C5    N15   A    
O9    Zn2   S    
C15   C29   A    
C15   N2    S    
C27   C34   S    
C21   C32   A    
C25   N11   S    
C18   N5    S    
C13   C19   A    
C17   C24   A    
C8    N14   A    
C37   O3    A    
H32   N11   S    
H20   N6    S    
C15   C26   A    
C6    N14   A    
C16   C29   A    
C16   N3    S    
C33   C37   S    
H13   N2    S    
C13   N19   S    
C10   N17   S    
H19   N5    S    
C23   O12   A    
N14   Zn3   S    
C9    C20   A    
H11   N2    S    
C11   C27   A    
H28   N9    S    
H17   N4    S    
C13   C28   A    
C23   C28   S    
C40   N12   A    
C9    N16   S    
O14   Zn2   S    
C2    H12   S    
C7    H38   S    
O13   Zn1   S    
C40   H1    S    
C11   N18   S    
C18   C32   A    
H15   N3    S    
H29   N10   S    
C36   O16   A    
H18   N5    S    
C1    O1    A    
O7    Zn4   S    
O2    Zn4   S    
H35   N13   S    
H25   N8    S    
H8    N19   S    
C16   C22   A    
O3    Zn3   S    
H3    N17   S    
C6    H37   S    
C24   N10   S    
C5    C8    A    
C14   N20   S    
C6    C7    A    
C3    H23   S    
N15   Zn4   S    
C34   O14   A    
C7    N15   A    
H22   N7    S    
H10   N20   S    
C24   C33   A    
O16   Zn3   S    
C36   O4    A    
C17   N4    S    
O1    Zn1   S    
C5    H36   S    
C2    C3    A    
C1    O11   A    
H9    N20   S    
O12   Zn2   S    
C38   O5    A    
C1    C30   S    
C22   N9    S    
C31   C39   S    
C14   C25   A    
C38   O8    A    
H21   N6    S    
C23   O15   A    
C26   C35   A    
H31   N11   S    
C3    N12   A    
C2    N1    A    
C9    C28   A    
C25   C33   A    
O4    Zn4   S    
C20   C31   A    
