data_mof_unit_29470.cif
_audit_creation_date              2012-12-10T17:13:41-0500
_audit_creation_method            fapswitch 2.2
_symmetry_space_group_name_H-M    P1
_symmetry_Int_Tables_number       1
_space_group_crystal_system       triclinic
_cell_length_a                    27.830117
_cell_length_b                    10.708502
_cell_length_c                    10.044547
_cell_angle_alpha                 90.458984
_cell_angle_beta                  90.768433
_cell_angle_gamma                 90.352102
_cell_volume                      2993.04069863

loop_
_atom_site_label
_atom_site_type_symbol
_atom_type_description
_atom_site_fract_x
_atom_site_fract_y
_atom_site_fract_z
_atom_type_partial_charge
C1    C     C_R   0.499667 0.262653 0.499417 1.060417
C2    C     C_R   0.278671 0.383575 0.456913 -0.216695
C3    C     C_R   0.252165 0.500279 0.514824 0.064153
C4    C     C_R   0.099176 0.526376 0.544101 -0.076153
C5    C     C_R   0.124178 0.438758 0.623625 -0.084621
C6    C     C_R   0.097490 0.360437 0.709688 0.105415
C7    C     C_R   0.124676 0.610210 0.463191 -0.026732
C8    C     C_R   0.353984 0.500028 0.498354 -0.097766
C9    C     C_R   0.645978 0.504113 0.501378 -0.107164
C10   C     C_R   0.971977 0.448090 0.622324 0.079074
C11   C     C_R   0.973795 0.590237 0.429490 0.021854
C12   C     C_R   0.406375 0.499357 0.499222 1.042281
C13   C     C_R   0.947748 0.518146 0.522502 0.045630
C14   C     C_R   0.944798 0.363202 0.698105 -0.132071
C15   C     C_R   0.895017 0.363317 0.693229 -0.126840
C16   C     C_R   0.870764 0.439760 0.603269 -0.023165
C17   C     C_R   0.897039 0.512328 0.512959 -0.054662
C18   C     C_R   0.872532 0.576786 0.411589 -0.027440
C19   C     C_R   0.822323 0.570798 0.405166 0.607488
C20   C     C_R   0.820589 0.441687 0.597585 0.531536
C21   C     C_R   0.721237 0.402445 0.447246 -0.065175
C22   C     C_R   0.670899 0.398055 0.454996 -0.142228
C23   C     C_R   0.502349 0.737174 0.500487 1.001468
C24   C     C_R   0.670742 0.614571 0.541358 0.082400
C25   C     C_R   0.721565 0.614048 0.546848 0.152280
C26   C     C_R   0.746190 0.508772 0.496421 0.228556
C27   C     C_R   0.022795 0.455700 0.634492 0.002518
C28   C     C_R   0.048425 0.528091 0.542164 0.043513
C29   C     C_R   0.023899 0.605723 0.450483 0.077319
C30   C     C_R   0.049556 0.393234 0.735136 -0.047751
C31   C     C_R   0.099972 0.701523 0.391666 -0.123392
C32   C     C_R   0.948565 0.639042 0.316442 -0.049638
C33   C     C_R   0.898467 0.638760 0.314051 -0.215296
C34   C     C_R   0.593565 0.501741 0.500630 0.956199
C35   C     C_R   0.050196 0.701339 0.388566 -0.133336
C36   C     C_2   0.508398 0.932448 0.388397 -0.163776
C37   C     C_2   0.509202 0.868583 0.501974 -0.288585
C38   C     C_2   0.510919 0.066810 0.390489 -0.114962
C39   C     C_2   0.497211 0.130556 0.497979 -0.219523
C40   C     C_2   0.527294 0.573402 0.928956 0.174273
C41   C     C_2   0.517658 0.589310 0.076010 -0.123666
C42   C     C_R   0.174923 0.440391 0.619384 0.547963
C43   C     C_R   0.174430 0.600868 0.456035 0.548917
C44   C     C_R   0.280667 0.610078 0.561008 -0.138681
C45   C     C_R   0.330341 0.608164 0.549334 -0.066005
C46   C     C_R   0.328444 0.390824 0.452943 -0.059701
H1    H     H_    0.262484 0.691094 0.601002 0.153139
H2    H     H_    0.118958 0.772493 0.336472 0.186943
H3    H     H_    0.879704 0.679944 0.230001 0.185362
H4    H     H_    0.032651 0.776910 0.336927 0.137255
H5    H     H_    0.505281 0.886414 0.291835 0.171768
H6    H     H_    0.516225 0.911780 0.598352 0.142987
H7    H     H_    0.522830 0.113487 0.300964 0.170020
H8    H     H_    0.259528 0.436918 0.484230 0.231178
H9    H     H_    0.482925 0.087049 0.586238 0.138900
H10   H     H_    0.471021 0.460977 0.895620 0.157630
H11   H     H_    0.528824 0.674420 0.126769 0.172902
H12   H     H_    0.493839 0.417154 0.100799 0.167350
H13   H     H_    0.875658 0.300430 0.757616 0.192729
H14   H     H_    0.961379 0.293934 0.760809 0.146212
N1    N     N_R   0.198040 0.515305 0.531408 -0.327514
N2    N     N_R   0.797582 0.507728 0.500249 -0.330728
N3    N     N_2   0.500520 0.501330 0.852150 -0.224670
N4    N     N_2   0.500540 0.501360 0.147810 -0.212077
O1    O     O_R   0.499990 0.319060 0.613040 -0.620235
O2    O     O_2   0.794859 0.378038 0.687942 -0.560883
O3    O     O_2   0.199179 0.675028 0.372986 -0.549825
O4    O     O_2   0.798327 0.625700 0.303975 -0.561998
O5    O     O_R   0.500010 0.319100 0.386900 -0.598902
O6    O     O_R   0.428750 0.500000 0.613050 -0.611855
O7    O     O_R   0.428760 0.500040 0.386920 -0.579389
O8    O     O_R   0.499990 0.680900 0.613100 -0.629844
O9    O     O_R   0.500010 0.680940 0.386960 -0.628162
O10   O     O_R   0.571240 0.499960 0.613080 -0.644692
O11   O     O_R   0.571250 0.500000 0.386950 -0.619165
O12   O     O_2   0.201573 0.374187 0.706261 -0.566066
Zn1   Zn    Zn3+2 0.499990 0.499970 0.650990 0.969802
Zn2   Zn    Zn3+2 0.500010 0.500030 0.349010 0.989609
C47   C     C_2   0.351631 0.275819 0.401405 0.423394
H15   H     H_    0.329639 0.204303 0.352706 0.097413
O13   O     O_2   0.394509 0.256494 0.414900 -0.604352
C48   C     C_2   0.971464 0.672176 0.188763 0.424904
H16   H     H_    0.955074 0.741567 0.124657 0.060247
O14   O     O_2   0.006940 0.616932 0.149963 -0.502543
C49   C     C_3   0.642729 0.734199 0.567195 -0.419609
C50   C     C_3   0.631358 0.800859 0.436624 -0.846560
H17   H     H_    0.615119 0.893139 0.458215 0.263370
H18   H     H_    0.664461 0.815714 0.378299 0.275818
H19   H     H_    0.605537 0.744998 0.375183 0.254478
H20   H     H_    0.608632 0.714429 0.617837 0.190792
H21   H     H_    0.661727 0.799270 0.635943 0.220662
C51   C     C_3   0.750063 0.719977 0.614604 -0.390092
C52   C     C_3   0.755704 0.835548 0.527217 -0.808223
H22   H     H_    0.761823 0.809307 0.421964 0.295940
H23   H     H_    0.723695 0.896182 0.532285 0.255482
H24   H     H_    0.786950 0.891844 0.563427 0.249984
H25   H     H_    0.733479 0.745874 0.710769 0.201444
H26   H     H_    0.786600 0.688926 0.644035 0.201365
C53   C     C_3   0.569546 0.642888 0.869729 -0.329424
C54   C     C_3   0.599411 0.723978 0.966443 -0.953285
H27   H     H_    0.577796 0.803243 0.004212 0.259350
H28   H     H_    0.613224 0.667462 0.050818 0.280139
H29   H     H_    0.630712 0.763427 0.913268 0.262577
H30   H     H_    0.594527 0.573087 0.828084 0.237135
H31   H     H_    0.556298 0.704902 0.790427 0.226128
C55   C     C_3   0.117280 0.239822 0.768715 -0.356216
C56   C     C_3   0.082697 0.129135 0.748242 -0.910135
H32   H     H_    0.049215 0.141417 0.805341 0.247204
H33   H     H_    0.073360 0.117852 0.640894 0.272437
H34   H     H_    0.100197 0.042129 0.783056 0.269365
H35   H     H_    0.150369 0.209651 0.718488 0.269902
H36   H     H_    0.125532 0.253056 0.876383 0.215891
C57   C     C_2   0.644476 0.283224 0.410654 0.381659
H37   H     H_    0.656056 0.231539 0.323589 0.057848
O15   O     O_2   0.610520 0.243215 0.473377 -0.593128
C58   C     C_2   0.748020 0.292604 0.394650 0.446357
H38   H     H_    0.733773 0.198837 0.405939 0.047033
O16   O     O_2   0.785831 0.305506 0.335943 -0.547884
C59   C     C_2   0.032998 0.386646 0.875433 0.403576
H39   H     H_    0.049901 0.323970 0.945843 0.082031
O17   O     O_2   0.002010 0.456964 0.916167 -0.508798
C60   C     C_2   0.356041 0.724637 0.590721 0.405877
H40   H     H_    0.338847 0.790075 0.657810 0.073463
O18   O     O_2   0.395247 0.752282 0.546498 -0.579027

loop_
_geom_bond_atom_site_label_1
_geom_bond_atom_site_label_2
_ccdc_geom_bond_type
C10   C27   A    
C21   C26   A    
C52   H22   S    
C5    C42   A    
C40   C53   S    
C49   H21   S    
C51   H26   S    
C55   H36   S    
C49   C50   S    
C2    C46   A    
C40   N3    D    
C20   O2    S    
C28   C29   A    
C4    C7    A    
C46   C47   S    
C50   H18   S    
C9    C22   A    
C55   C56   S    
C19   N2    A    
C33   H3    S    
C15   C16   A    
C58   H38   S    
C18   C19   A    
C8    C45   A    
C51   C52   S    
C22   C57   S    
C39   H9    S    
C16   C17   A    
O10   Zn1   S    
C1    O1    A    
C56   H32   S    
C7    C43   A    
C24   C49   S    
C44   H1    S    
C16   C20   A    
C34   O11   A    
C3    N1    S    
C53   H30   S    
C52   H23   S    
C21   C22   A    
C27   C30   A    
C56   H33   S    
O5    Zn2   S    
N4    Zn2   S    
C23   O9    A    
C21   C58   S    
C4    C28   A    
C51   H25   S    
C55   H35   S    
C59   O17   D    
H12   N4    S    
C38   C39   D    
C53   H31   S    
C3    C44   A    
O1    Zn1   S    
C7    C31   A    
C24   C25   A    
C10   C14   A    
C47   O13   D    
C37   H6    S    
C50   H17   S    
C25   C26   A    
C23   C37   S    
O9    Zn2   S    
C50   H19   S    
C54   H29   S    
C1    O5    A    
O8    Zn1   S    
C53   C54   S    
C8    C12   S    
C35   H4    S    
C54   H28   S    
C17   C18   A    
C6    C55   S    
H10   N3    S    
C19   O4    S    
C59   H39   S    
C42   N1    A    
C36   H5    S    
C34   O10   A    
C40   C41   S    
C6    C30   A    
C12   O7    A    
C11   C32   A    
C52   H24   S    
C48   O14   D    
C31   H2    S    
C2    H8    S    
C9    C34   S    
C56   H34   S    
C31   C35   A    
C18   C33   A    
C60   O18   D    
C14   H14   S    
C44   C45   A    
C43   N1    A    
C57   H37   S    
N3    Zn1   S    
C12   O6    A    
C36   C37   D    
C25   C51   S    
C15   H13   S    
C23   O8    A    
C4    C5    A    
C10   C13   A    
C49   H20   S    
C9    C24   A    
C45   C60   S    
C32   C48   S    
C29   C35   A    
C42   O12   S    
C13   C17   A    
C32   C33   A    
C36   C38   S    
C2    C3    A    
C26   N2    S    
C41   H11   S    
C11   C13   A    
C5    C6    A    
C38   H7    S    
C54   H27   S    
C58   O16   D    
C20   N2    A    
O11   Zn2   S    
C8    C46   A    
C1    C39   S    
C47   H15   S    
C11   C29   A    
C43   O3    S    
C48   H16   S    
C30   C59   S    
C27   C28   A    
C14   C15   A    
C41   N4    D    
C57   O15   D    
C60   H40   S    
O7    Zn2   S    
O6    Zn1   S    
