data_mof_unit_38862.cif
_audit_creation_date              2012-10-26T19:21:55-0400
_audit_creation_method            fapswitch 2.2
_symmetry_space_group_name_H-M    P1
_symmetry_Int_Tables_number       1
_space_group_crystal_system       triclinic
_cell_length_a                    23.507374
_cell_length_b                    11.032567
_cell_length_c                    9.817062
_cell_angle_alpha                 111.15276
_cell_angle_beta                  97.997225
_cell_angle_gamma                 90.935656
_cell_volume                      2345.2737018

loop_
_atom_site_label
_atom_site_type_symbol
_atom_type_description
_atom_site_fract_x
_atom_site_fract_y
_atom_site_fract_z
_atom_type_partial_charge
C1    C     C_R   0.495867 0.254083 0.440622 0.564169
C2    C     C_R   0.693446 0.492032 0.366926 -0.143426
C3    C     C_R   0.247324 0.508928 0.635092 -0.059678
C4    C     C_R   0.752676 0.491072 0.364908 -0.059678
C5    C     C_R   0.209615 0.504590 0.509545 0.241523
C6    C     C_R   0.790384 0.495410 0.490455 0.241523
C7    C     C_2   0.493610 0.114722 0.407115 -0.122536
C8    C     C_2   0.506390 0.885278 0.592885 -0.122536
C9    C     C_2   0.501059 0.069574 0.516605 -0.155696
C10   C     C_2   0.498941 0.930426 0.483395 -0.155696
C11   C     C_2   0.504763 0.511000 0.081362 -0.025022
C12   C     C_R   0.504133 0.745917 0.559378 0.564169
C13   C     C_2   0.495237 0.488999 0.918638 -0.025022
C14   C     C_R   0.390973 0.500383 0.501585 0.554009
C15   C     C_R   0.609027 0.499617 0.498415 0.554010
C16   C     C_R   0.881219 0.608484 0.506985 0.397053
C17   C     C_R   0.118781 0.391516 0.493014 0.397052
C18   C     C_R   0.877961 0.383035 0.474213 0.412243
C19   C     C_R   0.122038 0.616965 0.525787 0.412245
C20   C     C_R   0.938105 0.381266 0.476824 0.038594
C21   C     C_R   0.061895 0.618734 0.523175 0.038595
C22   C     C_R   0.969785 0.498400 0.497302 -0.085323
C23   C     C_R   0.231237 0.499017 0.381877 -0.058978
C24   C     C_R   0.030215 0.501600 0.502697 -0.085323
C25   C     C_R   0.941095 0.612503 0.512115 -0.015648
C26   C     C_R   0.058905 0.387497 0.487884 -0.015648
C27   C     C_R   0.967419 0.266675 0.458879 0.254567
C28   C     C_R   0.032581 0.733325 0.541120 0.254568
C29   C     C_R   0.027379 0.271682 0.467270 -0.119042
C30   C     C_R   0.972621 0.728318 0.532729 -0.119044
C31   C     C_3   0.932688 0.066906 0.292200 0.010787
C32   C     C_3   0.896266 0.944047 0.269761 -0.321211
C33   C     C_3   0.067309 0.933097 0.707796 0.010784
C34   C     C_R   0.768763 0.500983 0.618123 -0.058978
C35   C     C_3   0.103737 0.055950 0.730237 -0.321210
C36   C     C_R   0.290318 0.497385 0.379259 -0.140327
C37   C     C_R   0.709682 0.502615 0.620741 -0.140326
C38   C     C_R   0.328559 0.501904 0.504881 0.004296
C39   C     C_R   0.671440 0.498096 0.495119 0.004296
C40   C     C_R   0.306554 0.507967 0.633073 -0.143426
Cu1   Cu    Cu3+1 0.509980 0.521810 0.644910 0.942761
Cu2   Cu    Cu3+1 0.490020 0.478190 0.355090 0.942760
H1    H     H_    0.555727 0.624367 0.934771 0.203537
H2    H     H_    0.665004 0.488701 0.268674 0.127468
H3    H     H_    0.230674 0.513121 0.734022 0.122422
H4    H     H_    0.769326 0.486879 0.265978 0.122422
H5    H     H_    0.491204 0.864550 0.368281 0.156926
H6    H     H_    0.508796 0.135450 0.631719 0.156926
H7    H     H_    0.514147 0.951437 0.707801 0.105962
H8    H     H_    0.485853 0.048563 0.292198 0.105962
H9    H     H_    0.462266 0.415562 0.845514 0.145852
H10   H     H_    0.537734 0.584437 0.154485 0.145852
H11   H     H_    0.975530 0.037913 0.260401 0.123452
H12   H     H_    0.444272 0.375633 0.065229 0.203536
H13   H     H_    0.910877 0.114046 0.217894 0.143014
H14   H     H_    0.853057 0.969446 0.300325 0.198467
H15   H     H_    0.891039 0.877849 0.151998 0.096431
H16   H     H_    0.917554 0.892797 0.339471 0.171918
H17   H     H_    0.089116 0.885958 0.782107 0.143009
H18   H     H_    0.024467 0.962097 0.739585 0.123458
H19   H     H_    0.082454 0.107199 0.660519 0.171923
H20   H     H_    0.108960 0.122153 0.847998 0.096430
H21   H     H_    0.146946 0.030544 0.699686 0.198466
H22   H     H_    0.049036 0.183572 0.456635 0.167058
H23   H     H_    0.950964 0.816427 0.543363 0.167057
H24   H     H_    0.202135 0.495405 0.284523 0.124755
H25   H     H_    0.797865 0.504595 0.715477 0.124755
H26   H     H_    0.305991 0.492986 0.279058 0.133633
H27   H     H_    0.694009 0.507014 0.720942 0.133633
H28   H     H_    0.334996 0.511298 0.731326 0.127468
N1    N     N_R   0.851222 0.495345 0.489251 -0.406501
N2    N     N_R   0.148778 0.504655 0.510749 -0.406501
N3    N     N_2   0.475010 0.445410 0.137370 -0.352345
N4    N     N_2   0.524990 0.554590 0.862630 -0.352345
O1    O     O_R   0.505330 0.332340 0.577400 -0.496984
O2    O     O_2   0.146877 0.282910 0.478833 -0.502145
O3    O     O_2   0.846180 0.274058 0.456791 -0.447083
O4    O     O_2   0.153820 0.725943 0.543210 -0.447082
O5    O     O_3   0.938309 0.150887 0.441925 -0.509722
O6    O     O_3   0.061691 0.849112 0.558073 -0.509722
O7    O     O_R   0.494670 0.667660 0.422600 -0.496984
O8    O     O_R   0.488470 0.295500 0.332650 -0.486911
O9    O     O_R   0.511530 0.704500 0.667350 -0.486911
O10   O     O_R   0.426310 0.518390 0.622390 -0.498903
O11   O     O_R   0.573690 0.481610 0.377610 -0.498902
O12   O     O_R   0.409450 0.481550 0.377650 -0.493416
O13   O     O_R   0.590550 0.518450 0.622350 -0.493416
O14   O     O_2   0.853123 0.717089 0.521166 -0.502144

loop_
_geom_bond_atom_site_label_1
_geom_bond_atom_site_label_2
_ccdc_geom_bond_type
C37   H27   S    
C27   C29   A    
C34   C37   A    
Cu1   Cu2   S    
Cu2   O8    S    
C32   H16   S    
C4    H4    S    
C16   N1    A    
C40   H28   S    
C17   C26   A    
C23   H24   S    
C19   C21   A    
C24   C26   A    
C5    N2    S    
C27   O5    S    
Cu1   O1    S    
Cu1   O9    S    
C25   C30   A    
C11   H10   S    
Cu1   N4    S    
C13   H9    S    
C2    C39   A    
C2    H2    S    
C22   C25   A    
C17   O2    S    
Cu2   O12   S    
C14   O10   A    
C9    C10   S    
C15   O11   A    
H1    N4    S    
C29   H22   S    
C33   H17   S    
C19   N2    A    
Cu2   O7    S    
C32   H15   S    
C6    N1    S    
Cu1   O13   S    
C1    O1    A    
C14   O12   A    
C4    C6    A    
C11   N3    D    
C1    O8    A    
Cu1   O10   S    
C3    H3    S    
C6    C34   A    
C12   O9    A    
C19   O4    S    
C2    C4    A    
C17   N2    A    
C18   N1    A    
C14   C38   S    
H12   N3    S    
C31   C32   S    
C5    C23   A    
C8    C12   S    
C35   H19   S    
Cu2   O11   S    
C31   H11   S    
C15   C39   S    
C26   C29   A    
C21   C28   A    
C20   C22   A    
C3    C40   A    
C33   H18   S    
C22   C24   A    
C15   O13   A    
C16   C25   A    
C7    C9    D    
Cu2   N3    S    
C1    C7    S    
C7    H8    S    
C3    C5    A    
C34   H25   S    
C36   H26   S    
C33   O6    S    
C31   O5    S    
C20   C27   A    
C36   C38   A    
C37   C39   A    
C38   C40   A    
C11   C13   S    
C18   O3    S    
C28   C30   A    
C33   C35   S    
C12   O7    A    
C35   H20   S    
C18   C20   A    
C28   O6    S    
C30   H23   S    
C13   N4    D    
C9    H6    S    
C8    C10   D    
C23   C36   A    
C21   C24   A    
C10   H5    S    
C16   O14   S    
C35   H21   S    
C31   H13   S    
C8    H7    S    
C32   H14   S    
