data_mof_unit_55338.cif
_audit_creation_date              2012-12-10T20:02:24-0500
_audit_creation_method            fapswitch 2.2
_symmetry_space_group_name_H-M    P1
_symmetry_Int_Tables_number       1
_space_group_crystal_system       triclinic
_cell_length_a                    10.826806
_cell_length_b                    15.018624
_cell_length_c                    14.151162
_cell_angle_alpha                 89.548084
_cell_angle_beta                  91.09685
_cell_angle_gamma                 90.811389
_cell_volume                      2300.31263265

loop_
_atom_site_label
_atom_site_type_symbol
_atom_type_description
_atom_site_fract_x
_atom_site_fract_y
_atom_site_fract_z
_atom_type_partial_charge
C1    C     C_R   0.501077 0.328096 0.500142 0.975530
C2    C     C_R   0.495603 0.672847 0.499903 0.904131
C3    C     C_R   0.874641 0.512642 0.499733 -0.304043
C4    C     C_R   0.129591 0.522866 0.493783 -0.318311
C5    C     C_R   0.944422 0.527426 0.584114 -0.080893
C6    C     C_R   0.061513 0.512754 0.408511 -0.104899
C7    C     C_R   0.419445 0.092461 0.552819 -0.305906
C8    C     C_R   0.465524 0.909080 0.414642 -0.328947
C9    C     C_R   0.415569 0.185180 0.553433 0.466048
C10   C     C_R   0.451775 0.816154 0.416632 0.492663
C11   C     C_R   0.502269 0.232684 0.499504 -0.253189
C12   C     C_R   0.488219 0.770016 0.500262 -0.271037
C13   C     C_R   0.585391 0.189578 0.440345 0.396459
C14   C     C_R   0.515462 0.817525 0.584659 0.422370
C15   C     C_R   0.585898 0.097008 0.439757 -0.294077
C16   C     C_R   0.528999 0.909595 0.579414 -0.305068
C17   C     C_R   0.503232 0.049621 0.495651 0.046992
C18   C     C_R   0.503657 0.954149 0.495482 0.048213
C19   C     C_R   0.470482 0.419395 0.106742 -0.262522
C20   C     C_R   0.580646 0.552549 0.895997 -0.282853
C21   C     C_R   0.467849 0.423666 0.205867 -0.092937
C22   C     C_R   0.579659 0.553211 0.796950 -0.063051
C23   C     C_R   0.260422 0.506412 0.498406 0.914054
C24   C     C_R   0.741095 0.501809 0.500605 0.947983
C25   C     C_R   0.534155 0.575192 0.203030 0.714823
C26   C     C_R   0.417183 0.445953 0.793253 0.695948
C27   C     C_R   0.530100 0.573768 0.102540 -0.418591
C28   C     C_R   0.419443 0.441213 0.893559 -0.414139
C29   C     C_R   0.500853 0.495556 0.053134 0.111043
C30   C     C_R   0.501051 0.495506 0.946466 0.097941
C31   C     C_R   0.210771 0.571368 0.176411 -0.219921
C32   C     C_R   0.857881 0.396792 0.800463 -0.214569
C33   C     C_R   0.172022 0.576645 0.269644 -0.205660
C34   C     C_R   0.880207 0.419820 0.707068 -0.245606
C35   C     C_R   0.117980 0.502352 0.314126 0.069681
C36   C     C_R   0.898382 0.509108 0.680732 0.083910
C37   C     C_R   0.108183 0.420907 0.265480 0.514515
C38   C     C_R   0.894214 0.577121 0.749210 0.519020
C39   C     C_R   0.142015 0.416989 0.170128 0.404605
C40   C     C_R   0.877670 0.552616 0.845994 0.367976
C41   C     C_R   0.193950 0.492462 0.126236 -0.322319
C42   C     C_R   0.857227 0.462141 0.869484 -0.311278
C43   C     C_R   0.933931 0.515048 0.411176 0.515310
C44   C     C_R   0.069993 0.545441 0.577276 0.471816
H1    H     H_    0.222878 0.489532 0.053567 0.167008
H2    H     H_    0.836144 0.442284 0.941040 0.153181
H3    H     H_    0.652495 0.061860 0.398365 0.153266
H4    H     H_    0.557709 0.947311 0.641133 0.154242
H5    H     H_    0.447601 0.356899 0.072722 0.160552
H6    H     H_    0.644057 0.596658 0.932705 0.206073
H7    H     H_    0.440197 0.365264 0.245538 0.148081
H8    H     H_    0.640840 0.597781 0.759252 0.199618
H9    H     H_    0.547659 0.633406 0.061895 0.142678
H10   H     H_    0.356314 0.396805 0.929683 0.153252
H11   H     H_    0.251811 0.628973 0.142235 0.168532
H12   H     H_    0.841835 0.327757 0.819499 0.167469
H13   H     H_    0.180874 0.639045 0.306980 0.165740
H14   H     H_    0.885788 0.367596 0.654982 0.159645
H15   H     H_    0.357677 0.053228 0.596372 0.149076
H16   H     H_    0.444713 0.947509 0.351498 0.149769
N1    N     N_R   0.500000 0.499980 0.252470 -0.124376
N2    N     N_R   0.500000 0.500020 0.747530 -0.139010
O1    O     O_R   0.500010 0.369070 0.579480 -0.554544
O2    O     O_R   0.499990 0.630930 0.420520 -0.523831
O3    O     O_R   0.500010 0.369060 0.420520 -0.643510
O4    O     O_R   0.499990 0.630940 0.579480 -0.594469
O5    O     O_R   0.316760 0.500010 0.579480 -0.537295
O6    O     O_R   0.683240 0.499990 0.420520 -0.559856
O7    O     O_R   0.316760 0.500000 0.420520 -0.646537
O8    O     O_R   0.683240 0.500000 0.579480 -0.636252
Zn1   Zn    Zn3+2 0.500000 0.500010 0.606140 1.034774
Zn2   Zn    Zn3+2 0.500000 0.499990 0.393860 1.009359
O9    O     O_3   0.572614 0.649318 0.255142 -0.563455
C45   C     C_3   0.606871 0.724954 0.201303 -0.336315
H17   H     H_    0.638543 0.778023 0.250548 0.203433
H18   H     H_    0.526448 0.751253 0.160424 0.178669
H19   H     H_    0.685534 0.710731 0.154823 0.126506
O10   O     O_3   0.337284 0.393331 0.739074 -0.544037
C46   C     C_3   0.215523 0.395225 0.773339 -0.226063
H20   H     H_    0.150410 0.380727 0.713898 0.197169
H21   H     H_    0.190266 0.461512 0.801558 0.154269
H22   H     H_    0.202164 0.342531 0.827834 0.140907
O11   O     O_3   0.055539 0.347071 0.308314 -0.597844
C47   C     C_3   0.150705 0.296402 0.350367 -0.289603
H23   H     H_    0.196245 0.332875 0.409899 0.161192
H24   H     H_    0.220496 0.276617 0.297957 0.167193
H25   H     H_    0.109302 0.234394 0.379626 0.183720
O12   O     O_3   0.894419 0.664804 0.715455 -0.615192
C48   C     C_3   0.955002 0.726058 0.776344 -0.212415
H26   H     H_    0.035166 0.696783 0.815381 0.159887
H27   H     H_    0.887969 0.755333 0.825240 0.215125
H28   H     H_    0.991248 0.782153 0.733136 0.140087
O13   O     O_3   0.130056 0.337373 0.122351 -0.604023
C49   C     C_3   0.032983 0.344301 0.054823 0.107575
H29   H     H_    0.060596 0.388816 0.995387 0.121613
H30   H     H_    0.947259 0.369812 0.087109 0.140102
C50   C     C_3   0.003806 0.252472 0.015151 -0.830079
H31   H     H_    0.977538 0.206153 0.073199 0.261353
H32   H     H_    0.925683 0.256479 0.963484 0.196651
H33   H     H_    0.085834 0.226293 0.979117 0.249972
O14   O     O_3   0.865596 0.618030 0.913778 -0.646266
C51   C     C_3   0.939803 0.600600 0.994893 0.087193
H34   H     H_    0.031153 0.572673 0.976582 0.133407
H35   H     H_    0.890678 0.553991 0.043188 0.150105
C52   C     C_3   0.963001 0.687569 0.047068 -0.882157
H36   H     H_    0.873875 0.719453 0.062568 0.251495
H37   H     H_    0.013175 0.674820 0.114707 0.219775
H38   H     H_    0.019199 0.733699 0.003097 0.241696
O15   O     O_3   0.868502 0.509954 0.326213 -0.583260
C53   C     C_3   0.851828 0.597123 0.290771 -0.288750
H39   H     H_    0.940382 0.634227 0.282668 0.128757
H40   H     H_    0.790727 0.635692 0.337057 0.204496
H41   H     H_    0.808151 0.592250 0.219558 0.195717
O16   O     O_3   0.135366 0.575949 0.656031 -0.602481
C54   C     C_3   0.176125 0.664191 0.637910 -0.270357
H42   H     H_    0.100769 0.706715 0.608841 0.162422
H43   H     H_    0.254575 0.666067 0.588737 0.157508
H44   H     H_    0.208985 0.693900 0.705317 0.168142
O17   O     O_3   0.333376 0.231624 0.608592 -0.554361
C55   C     C_3   0.212817 0.194565 0.602711 -0.308252
H45   H     H_    0.188034 0.170217 0.530561 0.131503
H46   H     H_    0.145873 0.246971 0.619694 0.185295
H47   H     H_    0.202050 0.140283 0.655774 0.162734
O18   O     O_3   0.406453 0.767753 0.339253 -0.550898
C56   C     C_3   0.319299 0.814944 0.283517 -0.364155
H48   H     H_    0.366453 0.863042 0.235824 0.157951
H49   H     H_    0.249709 0.848301 0.327522 0.155092
H50   H     H_    0.268836 0.767252 0.237151 0.178458
O19   O     O_3   0.673860 0.238770 0.392088 -0.587985
C57   C     C_3   0.659236 0.225295 0.293741 0.094847
H51   H     H_    0.560992 0.232409 0.270245 0.119957
H52   H     H_    0.692012 0.158281 0.273919 0.127493
C58   C     C_3   0.736481 0.294480 0.241334 -0.721458
H53   H     H_    0.835962 0.284236 0.257374 0.294245
H54   H     H_    0.720304 0.288058 0.163936 0.175657
H55   H     H_    0.711210 0.362573 0.263199 0.290224
O20   O     O_3   0.532203 0.773498 0.670794 -0.568780
C59   C     C_3   0.453574 0.809584 0.739449 0.110696
H56   H     H_    0.359214 0.822584 0.709838 0.106470
H57   H     H_    0.493897 0.872415 0.768234 0.137968
C60   C     C_3   0.440316 0.745097 0.821887 -0.847320
H58   H     H_    0.377616 0.773185 0.874855 0.193415
H59   H     H_    0.400524 0.680842 0.796861 0.263795
H60   H     H_    0.531976 0.734295 0.856172 0.259720

loop_
_geom_bond_atom_site_label_1
_geom_bond_atom_site_label_2
_ccdc_geom_bond_type
O13   C49   S    
C27   C29   A    
O9    C45   S    
C23   O7    A    
C1    C11   S    
C47   H25   S    
C15   H3    S    
C2    C12   S    
C16   H4    S    
O16   C54   S    
C24   O8    A    
C39   C41   A    
C20   C30   A    
C52   H37   S    
C3    C43   A    
C26   O10   S    
C45   H18   S    
C22   H8    S    
C35   C37   A    
C25   O9    S    
C47   H24   S    
C10   O18   S    
C60   H59   S    
C51   H35   S    
C54   H42   S    
C5    C36   S    
C6    C35   S    
C51   C52   S    
C15   C17   A    
C42   H2    S    
C23   O5    A    
C53   H39   S    
C39   O13   S    
C20   H6    S    
C40   O14   S    
O11   C47   S    
C2    O2    A    
C54   H43   S    
C45   H19   S    
C58   H55   S    
C1    O3    A    
C31   C33   A    
O8    Zn1   S    
C48   H27   S    
C21   N1    A    
C55   H47   S    
C40   C42   A    
C44   O16   S    
C58   H54   S    
C3    C24   S    
C49   H29   S    
C1    O1    A    
C7    H15   S    
C50   H32   S    
C55   H46   S    
C50   H31   S    
C32   C42   A    
C52   H38   S    
C45   H17   S    
O14   C51   S    
C47   H23   S    
C4    C6    A    
C60   H60   S    
C46   H21   S    
C4    C23   S    
C28   H10   S    
O10   C46   S    
C4    C44   A    
C49   C50   S    
C7    C17   A    
C8    C18   A    
C38   O12   S    
C32   C34   A    
O7    Zn2   S    
C57   H52   S    
C29   C30   S    
C22   N2    A    
C19   H5    S    
O4    Zn1   S    
C14   O20   S    
O6    Zn2   S    
C54   H44   S    
C17   C18   S    
C25   N1    A    
C48   H28   S    
C49   H30   S    
C9    C11   A    
C53   H41   S    
O1    Zn1   S    
C10   C12   A    
N1    Zn2   S    
C16   C18   A    
C5    C44   A    
C12   C14   A    
C6    C43   A    
C13   C15   A    
C56   H48   S    
C9    O17   S    
C14   C16   A    
C57   C58   S    
C19   C29   A    
C21   H7    S    
C50   H33   S    
C55   H45   S    
C34   H14   S    
O19   C57   S    
C52   H36   S    
C7    C9    A    
C33   H13   S    
C31   C41   A    
C19   C21   A    
C20   C22   A    
C3    C5    A    
C59   C60   S    
C46   H22   S    
O17   C55   S    
C27   H9    S    
C2    O4    A    
C59   H57   S    
C25   C27   A    
O3    Zn2   S    
O20   C59   S    
C26   C28   A    
C28   C30   A    
C57   H51   S    
C26   N2    A    
C37   C39   A    
C60   H58   S    
C8    H16   S    
C38   C40   A    
C11   C13   A    
C58   H53   S    
C56   H50   S    
C36   C38   A    
C33   C35   A    
C34   C36   A    
N2    Zn1   S    
O5    Zn1   S    
O2    Zn2   S    
C51   H34   S    
C53   H40   S    
C59   H56   S    
C24   O6    A    
C46   H20   S    
O12   C48   S    
C8    C10   A    
C56   H49   S    
C41   H1    S    
C37   O11   S    
C43   O15   S    
C31   H11   S    
C48   H26   S    
O15   C53   S    
C32   H12   S    
C13   O19   S    
O18   C56   S    
