data_mof_unit_40125.cif
_audit_creation_date              2012-12-10T18:32:01-0500
_audit_creation_method            fapswitch 2.2
_symmetry_space_group_name_H-M    P1
_symmetry_Int_Tables_number       1
_space_group_crystal_system       triclinic
_cell_length_a                    10.638015
_cell_length_b                    14.98948
_cell_length_c                    15.429728
_cell_angle_alpha                 82.151255
_cell_angle_beta                  89.503493
_cell_angle_gamma                 104.363638
_cell_volume                      2358.83863404

loop_
_atom_site_label
_atom_site_type_symbol
_atom_type_description
_atom_site_fract_x
_atom_site_fract_y
_atom_site_fract_z
_atom_type_partial_charge
C1    C     C_R   0.478774 0.441613 0.662245 0.852090
C2    C     C_R   0.416749 0.437965 0.901836 0.109036
C3    C     C_R   0.414995 0.344647 0.935020 0.180754
C4    C     C_R   0.742152 0.500459 0.499760 0.915279
C5    C     C_R   0.409781 0.501867 0.959980 0.013214
C6    C     C_R   0.430964 0.477569 0.048840 0.071376
C7    C     C_R   0.418326 0.382886 0.081680 -0.201257
C8    C     C_R   0.408421 0.316858 0.025281 -0.248271
C9    C     C_R   0.382075 0.588491 0.932471 -0.233763
C10   C     C_R   0.382724 0.652305 0.990827 0.197559
C11   C     C_R   0.422341 0.632752 0.076933 0.111104
C12   C     C_3   0.121303 0.498906 0.498755 -0.007507
C13   C     C_R   0.457692 0.547885 0.103175 0.041575
C14   C     C_R   0.427362 0.695321 0.137866 -0.172709
C15   C     C_R   0.463350 0.673003 0.222914 -0.182459
C16   C     C_R   0.517894 0.558265 0.337838 0.937427
C17   C     C_R   0.520737 0.536893 0.182475 0.108571
C18   C     C_R   0.692060 0.842080 0.637706 -0.315169
C19   C     C_R   0.660574 0.753084 0.615175 0.014826
C20   C     C_R   0.515182 0.793965 0.510150 -0.065709
C21   C     C_R   0.542868 0.885769 0.529756 -0.002677
C22   C     C_R   0.633480 0.908812 0.595188 0.181039
C23   C     C_3   0.101551 0.579322 0.429453 0.453271
C24   C     C_R   0.484354 0.954618 0.487168 0.079906
C25   C     C_R   0.517517 0.045906 0.511393 0.082387
C26   C     C_R   0.608642 0.065505 0.576795 -0.241637
C27   C     C_R   0.665185 0.998080 0.617695 -0.210488
C28   C     C_R   0.257979 0.499401 0.499641 0.913173
C29   C     C_R   0.394093 0.935260 0.421212 -0.240071
C30   C     C_R   0.337757 0.002766 0.380191 -0.208904
C31   C     C_R   0.368587 0.091804 0.403273 0.180109
C32   C     C_R   0.458456 0.114611 0.469179 -0.000548
C33   C     C_R   0.310013 0.158578 0.360798 -0.319082
C34   C     C_3   0.075879 0.512931 0.590650 -0.525262
C35   C     C_R   0.340530 0.247289 0.384016 0.005963
C36   C     C_R   0.484793 0.206023 0.489702 -0.066474
C37   C     C_3   0.896220 0.405529 0.476520 -0.356845
C38   C     C_3   0.038723 0.404835 0.476339 -0.373185
C39   C     C_3   0.956932 0.580139 0.429696 0.451307
C40   C     C_3   0.931925 0.513986 0.590680 -0.538509
C41   C     C_3   0.878977 0.500300 0.499006 -0.012863
C42   C     C_3   0.620357 0.479400 0.194229 -0.847699
C43   C     C_3   0.344612 0.741336 0.958956 -0.924507
C44   C     C_R   0.452979 0.405468 0.755152 -0.057785
C45   C     C_R   0.507814 0.592905 0.245838 -0.059395
C46   C     C_R   0.423374 0.281397 0.877395 -0.205722
C47   C     C_R   0.442362 0.311743 0.787584 -0.201175
C48   C     C_R   0.437144 0.466948 0.811949 -0.271937
F1    F     F_    0.908294 0.570622 0.347352 -0.640119
F2    F     F_    0.144556 0.569458 0.346928 -0.634145
H1    H     H_    0.858165 0.393155 0.411010 0.227034
H2    H     H_    0.840916 0.347061 0.525557 0.170513
H3    H     H_    0.413508 0.358995 0.151216 0.165909
H4    H     H_    0.351956 0.605294 0.866872 0.149797
H5    H     H_    0.397629 0.759377 0.121966 0.157756
H6    H     H_    0.734554 0.016102 0.667514 0.143319
H7    H     H_    0.550814 0.230544 0.538618 0.122423
H8    H     H_    0.296366 0.299865 0.351717 0.141151
H9    H     H_    0.269154 0.984966 0.329885 0.148528
H10   H     H_    0.761473 0.858618 0.687769 0.145141
H11   H     H_    0.705052 0.700619 0.647318 0.132306
H12   H     H_    0.134243 0.579734 0.608947 0.194099
H13   H     H_    0.448089 0.769135 0.461905 0.127878
H14   H     H_    0.051676 0.346284 0.525336 0.178164
H15   H     H_    0.639307 0.132582 0.598255 0.133130
H16   H     H_    0.364403 0.868430 0.399142 0.140981
H17   H     H_    0.241457 0.142321 0.310185 0.146527
H18   H     H_    0.069544 0.392457 0.410781 0.222679
H19   H     H_    0.921445 0.581347 0.608584 0.189392
H20   H     H_    0.875755 0.457538 0.641119 0.204560
H21   H     H_    0.089860 0.455913 0.641004 0.205610
H22   H     H_    0.580187 0.411686 0.235990 0.247806
H23   H     H_    0.947518 0.648363 0.446003 0.035604
H24   H     H_    0.655989 0.466871 0.130266 0.243940
H25   H     H_    0.706912 0.517855 0.225561 0.279328
H26   H     H_    0.259474 0.745674 0.998788 0.250083
H27   H     H_    0.427205 0.802081 0.964333 0.237967
H28   H     H_    0.317675 0.745304 0.889396 0.242005
H29   H     H_    0.159383 0.647350 0.445520 0.021930
H30   H     H_    0.402059 0.245118 0.052167 0.147465
H31   H     H_    0.454258 0.717549 0.271087 0.163941
H32   H     H_    0.419655 0.209487 0.901996 0.137541
H33   H     H_    0.452278 0.262786 0.744030 0.155542
H34   H     H_    0.448540 0.539082 0.785560 0.162025
N1    N     N_R   0.573860 0.731700 0.552730 -0.101251
N2    N     N_R   0.426060 0.268290 0.447230 -0.102095
O1    O     O_R   0.462770 0.383110 0.605620 -0.622680
O2    O     O_R   0.510160 0.531900 0.639510 -0.623835
O3    O     O_R   0.661510 0.425600 0.483070 -0.625211
O4    O     O_R   0.708900 0.574390 0.516960 -0.630966
O5    O     O_R   0.489840 0.468100 0.360490 -0.608921
O6    O     O_R   0.537230 0.616890 0.394380 -0.616013
O7    O     O_R   0.291100 0.425610 0.483040 -0.622857
O8    O     O_R   0.338490 0.574400 0.516930 -0.639264
Zn1   Zn    Zn3+2 0.468350 0.400660 0.477370 0.943653
Zn2   Zn    Zn3+2 0.531650 0.599340 0.522630 0.943279

loop_
_geom_bond_atom_site_label_1
_geom_bond_atom_site_label_2
_ccdc_geom_bond_type
C1    O1    A    
O2    Zn2   S    
O6    Zn2   S    
C7    C8    A    
C39   C41   S    
C43   H28   S    
C12   C23   S    
C26   C27   A    
C37   C38   S    
C40   H20   S    
C12   C28   S    
C35   H8    S    
C34   C40   S    
C32   C36   A    
C17   C45   A    
C5    C6    A    
C37   H1    S    
C11   C14   A    
C4    C41   S    
C34   H12   S    
C28   O8    A    
C18   C19   A    
C17   C42   S    
C33   C35   A    
C46   H32   S    
O1    Zn1   S    
C31   C33   A    
C47   H33   S    
C9    C10   A    
C4    O4    A    
C44   C47   A    
C1    O2    A    
C14   H5    S    
O7    Zn1   S    
C21   C22   A    
C30   H9    S    
C12   C38   S    
C35   N2    A    
C38   H14   S    
C42   H24   S    
C40   H19   S    
C24   C25   A    
C15   H31   S    
C36   H7    S    
N2    Zn1   S    
C37   H2    S    
C27   H6    S    
C23   F2    S    
C2    C48   A    
C25   C26   A    
O4    Zn2   S    
C48   H34   S    
C28   O7    A    
O3    Zn1   S    
C5    C9    A    
C29   C30   A    
C1    C44   S    
C31   C32   A    
C20   N1    A    
C42   H22   S    
C42   H25   S    
O8    Zn2   S    
C18   H10   S    
C40   C41   S    
C39   F1    S    
C38   H18   S    
C3    C8    A    
C22   C27   A    
C2    C5    A    
C15   C45   A    
C12   C34   S    
C33   H17   S    
C4    O3    A    
C43   H26   S    
C46   C47   A    
C10   C43   S    
C18   C22   A    
C26   H15   S    
C19   N1    A    
C16   C45   S    
C16   O6    A    
C6    C7    A    
C43   H27   S    
C3    C46   A    
C13   C17   A    
C36   N2    A    
C20   H13   S    
C2    C3    A    
C6    C13   A    
C11   C13   A    
C30   C31   A    
C19   H11   S    
C23   C39   S    
N1    Zn2   S    
C39   H23   S    
C37   C41   S    
C10   C11   A    
O5    Zn1   S    
C29   H16   S    
C24   C29   A    
C20   C21   A    
C16   O5    A    
C21   C24   A    
C8    H30   S    
C7    H3    S    
C14   C15   A    
C9    H4    S    
C23   H29   S    
C34   H21   S    
C44   C48   A    
C25   C32   A    
