data_mof_unit_60540.cif
_audit_creation_date              2012-12-10T17:00:37-0500
_audit_creation_method            fapswitch 2.2
_symmetry_space_group_name_H-M    P1
_symmetry_Int_Tables_number       1
_space_group_crystal_system       triclinic
_cell_length_a                    21.82525
_cell_length_b                    21.82525
_cell_length_c                    21.825251
_cell_angle_alpha                 89.999883
_cell_angle_beta                  89.999883
_cell_angle_gamma                 90.000018
_cell_volume                      10396.273619

loop_
_atom_site_label
_atom_site_type_symbol
_atom_type_description
_atom_site_fract_x
_atom_site_fract_y
_atom_site_fract_z
_atom_type_partial_charge
C1    C     C_R   0.500000 0.118660 0.000000 1.023468
C2    C     C_R   0.000000 0.118660 0.500000 1.023469
C3    C     C_R   0.500000 0.881340 0.000000 1.023468
C4    C     C_R   1.000000 0.881340 0.500000 1.023468
C5    C     C_R   0.881339 1.000000 0.500000 1.023469
C6    C     C_R   0.881340 0.500000 1.000000 1.023468
C7    C     C_R   0.118660 0.000000 0.500000 1.023468
C8    C     C_R   0.118660 0.500000 0.000000 1.023468
C9    C     C_R   1.000000 0.500000 0.881340 1.023468
C10   C     C_R   0.500000 1.000000 0.881340 1.023469
C11   C     C_R   0.000000 0.500000 0.118660 1.023468
C12   C     C_R   0.500000 0.000000 0.118660 1.023468
C13   C     C_R   0.000000 0.618660 0.500000 1.023468
C14   C     C_R   0.500000 0.618660 1.000000 1.023469
C15   C     C_R   1.000000 0.381339 0.500000 1.023468
C16   C     C_R   0.500000 0.381339 0.000000 1.023468
C17   C     C_R   0.381339 0.500000 0.000000 1.023469
C18   C     C_R   0.381339 1.000000 0.500000 1.023468
C19   C     C_R   0.618660 0.500000 1.000000 1.023468
C20   C     C_R   0.618660 0.000000 0.500000 1.023468
C21   C     C_R   0.500000 0.000000 0.381340 1.023468
C22   C     C_R   1.000000 0.500000 0.381340 1.023469
C23   C     C_R   0.500000 1.000000 0.618660 1.023468
C24   C     C_R   1.000000 0.500000 0.618660 1.023468
C25   C     C_R   0.430135 0.908961 0.811933 0.446072
C26   C     C_R   0.188067 0.908961 0.430135 0.446073
C27   C     C_R   0.569865 0.908961 0.188067 0.446074
C28   C     C_R   0.811933 0.908961 0.569865 0.446073
C29   C     C_R   0.430135 0.091039 0.188067 0.446072
C30   C     C_R   0.188067 0.091038 0.569865 0.446071
C31   C     C_R   0.569865 0.091038 0.811933 0.446073
C32   C     C_R   0.811933 0.091039 0.430135 0.446073
C33   C     C_R   0.091038 0.188067 0.430135 0.446072
C34   C     C_R   0.091039 0.569865 0.188067 0.446072
C35   C     C_R   0.091038 0.811933 0.569865 0.446073
C36   C     C_R   0.091038 0.430135 0.811933 0.446073
C37   C     C_R   0.908961 0.811933 0.430135 0.446071
C38   C     C_R   0.908962 0.430135 0.188067 0.446073
C39   C     C_R   0.908961 0.188067 0.569865 0.446073
C40   C     C_R   0.908961 0.569865 0.811933 0.446072
C41   C     C_R   0.811933 0.569865 0.091038 0.446073
C42   C     C_R   0.430135 0.811933 0.091038 0.446073
C43   C     C_R   0.188067 0.430135 0.091038 0.446072
C44   C     C_R   0.569865 0.188067 0.091038 0.446072
C45   C     C_R   0.188067 0.569865 0.908962 0.446073
C46   C     C_R   0.569865 0.811933 0.908961 0.446072
C47   C     C_R   0.811933 0.430135 0.908961 0.446072
C48   C     C_R   0.430135 0.188067 0.908961 0.446073
C49   C     C_R   0.930135 0.408961 0.311933 0.446072
C50   C     C_R   0.688067 0.408961 0.930135 0.446073
C51   C     C_R   0.069865 0.408961 0.688067 0.446074
C52   C     C_R   0.311933 0.408961 0.069865 0.446073
C53   C     C_R   0.930135 0.591039 0.688067 0.446072
C54   C     C_R   0.688067 0.591039 0.069865 0.446071
C55   C     C_R   0.069865 0.591038 0.311933 0.446073
C56   C     C_R   0.311933 0.591039 0.930135 0.446073
C57   C     C_R   0.591039 0.688067 0.930135 0.446072
C58   C     C_R   0.591039 0.069865 0.688067 0.446072
C59   C     C_R   0.591038 0.311933 0.069865 0.446073
C60   C     C_R   0.591039 0.930135 0.311933 0.446073
C61   C     C_R   0.408961 0.311933 0.930135 0.446071
C62   C     C_R   0.408962 0.930135 0.688067 0.446073
C63   C     C_R   0.408961 0.688067 0.069865 0.446073
C64   C     C_R   0.408961 0.069865 0.311933 0.446072
C65   C     C_R   0.311933 0.069865 0.591038 0.446073
C66   C     C_R   0.930135 0.311933 0.591038 0.446073
C67   C     C_R   0.688067 0.930135 0.591039 0.446072
C68   C     C_R   0.069865 0.688067 0.591038 0.446072
C69   C     C_R   0.688067 0.069865 0.408962 0.446073
C70   C     C_R   0.069865 0.311933 0.408961 0.446072
C71   C     C_R   0.311933 0.930135 0.408961 0.446072
C72   C     C_R   0.930135 0.688067 0.408961 0.446073
C73   C     C_R   0.386700 0.874494 0.780492 0.488937
C74   C     C_R   0.219509 0.874494 0.386700 0.488936
C75   C     C_R   0.613300 0.874494 0.219509 0.488936
C76   C     C_R   0.780491 0.874493 0.613300 0.488937
C77   C     C_R   0.386700 0.125506 0.219509 0.488937
C78   C     C_R   0.219509 0.125506 0.613300 0.488937
C79   C     C_R   0.613300 0.125506 0.780491 0.488937
C80   C     C_R   0.780492 0.125507 0.386700 0.488936
C81   C     C_R   0.125506 0.219509 0.386700 0.488937
C82   C     C_R   0.125506 0.613300 0.219508 0.488937
C83   C     C_R   0.125506 0.780491 0.613300 0.488936
C84   C     C_R   0.125506 0.386700 0.780491 0.488936
C85   C     C_R   0.874494 0.780491 0.386700 0.488937
C86   C     C_R   0.874494 0.386700 0.219509 0.488937
C87   C     C_R   0.874493 0.219508 0.613300 0.488936
C88   C     C_R   0.874494 0.613300 0.780491 0.488937
C89   C     C_R   0.780491 0.613300 0.125506 0.488936
C90   C     C_R   0.386700 0.780491 0.125506 0.488935
C91   C     C_R   0.219508 0.386700 0.125506 0.488936
C92   C     C_R   0.613300 0.219509 0.125506 0.488936
C93   C     C_R   0.219509 0.613300 0.874494 0.488935
C94   C     C_R   0.613300 0.780492 0.874494 0.488936
C95   C     C_R   0.780491 0.386700 0.874494 0.488936
C96   C     C_R   0.386700 0.219509 0.874494 0.488936
C97   C     C_R   0.886700 0.374493 0.280492 0.488937
C98   C     C_R   0.719509 0.374494 0.886700 0.488935
C99   C     C_R   0.113300 0.374494 0.719509 0.488936
C100  C     C_R   0.280491 0.374493 0.113300 0.488937
C101  C     C_R   0.886700 0.625506 0.719509 0.488937
C102  C     C_R   0.719509 0.625506 0.113300 0.488937
C103  C     C_R   0.113300 0.625506 0.280491 0.488937
C104  C     C_R   0.280492 0.625507 0.886700 0.488936
C105  C     C_R   0.625506 0.719509 0.886700 0.488937
C106  C     C_R   0.625506 0.113300 0.719508 0.488937
C107  C     C_R   0.625506 0.280491 0.113300 0.488936
C108  C     C_R   0.625506 0.886700 0.280491 0.488936
C109  C     C_R   0.374494 0.280491 0.886700 0.488937
C110  C     C_R   0.374494 0.886700 0.719509 0.488937
C111  C     C_R   0.374493 0.719508 0.113300 0.488936
C112  C     C_R   0.374494 0.113300 0.280491 0.488936
C113  C     C_R   0.280491 0.113300 0.625506 0.488936
C114  C     C_R   0.886700 0.280491 0.625506 0.488935
C115  C     C_R   0.719508 0.886700 0.625506 0.488936
C116  C     C_R   0.113300 0.719509 0.625506 0.488936
C117  C     C_R   0.719509 0.113300 0.374494 0.488935
C118  C     C_R   0.113300 0.280492 0.374494 0.488936
C119  C     C_R   0.280491 0.886700 0.374494 0.488936
C120  C     C_R   0.886700 0.719509 0.374494 0.488936
C121  C     C_R   0.457168 0.962814 0.717842 -0.195409
C122  C     C_R   0.282158 0.962814 0.457168 -0.195408
C123  C     C_R   0.542832 0.962814 0.282158 -0.195409
C124  C     C_R   0.717842 0.962814 0.542832 -0.195408
C125  C     C_R   0.457168 0.037186 0.282158 -0.195408
C126  C     C_R   0.282158 0.037186 0.542832 -0.195409
C127  C     C_R   0.542832 0.037186 0.717842 -0.195408
C128  C     C_R   0.717842 0.037186 0.457168 -0.195409
C129  C     C_R   0.037186 0.282158 0.457168 -0.195408
C130  C     C_R   0.037186 0.542832 0.282158 -0.195409
C131  C     C_R   0.037186 0.717842 0.542832 -0.195408
C132  C     C_R   0.037186 0.457168 0.717842 -0.195409
C133  C     C_R   0.962814 0.717842 0.457168 -0.195409
C134  C     C_R   0.962814 0.457168 0.282158 -0.195408
C135  C     C_R   0.962814 0.282158 0.542832 -0.195409
C136  C     C_R   0.962814 0.542832 0.717842 -0.195408
C137  C     C_R   0.717842 0.542832 0.037186 -0.195408
C138  C     C_R   0.457168 0.717842 0.037186 -0.195407
C139  C     C_R   0.282158 0.457168 0.037186 -0.195408
C140  C     C_R   0.542832 0.282158 0.037186 -0.195408
C141  C     C_R   0.282158 0.542832 0.962814 -0.195408
C142  C     C_R   0.542832 0.717842 0.962814 -0.195408
C143  C     C_R   0.717842 0.457168 0.962814 -0.195408
C144  C     C_R   0.457168 0.282158 0.962814 -0.195408
C145  C     C_R   0.957168 0.462814 0.217842 -0.195409
C146  C     C_R   0.782158 0.462814 0.957168 -0.195408
C147  C     C_R   0.042832 0.462814 0.782158 -0.195409
C148  C     C_R   0.217842 0.462814 0.042832 -0.195408
C149  C     C_R   0.957168 0.537186 0.782158 -0.195408
C150  C     C_R   0.782158 0.537186 0.042832 -0.195409
C151  C     C_R   0.042832 0.537186 0.217842 -0.195408
C152  C     C_R   0.217842 0.537186 0.957168 -0.195409
C153  C     C_R   0.537186 0.782158 0.957168 -0.195408
C154  C     C_R   0.537186 0.042832 0.782158 -0.195409
C155  C     C_R   0.537186 0.217842 0.042832 -0.195408
C156  C     C_R   0.537186 0.957168 0.217842 -0.195409
C157  C     C_R   0.462814 0.217842 0.957168 -0.195409
C158  C     C_R   0.462814 0.957168 0.782158 -0.195408
C159  C     C_R   0.462814 0.782158 0.042832 -0.195409
C160  C     C_R   0.462814 0.042832 0.217842 -0.195408
C161  C     C_R   0.217842 0.042832 0.537186 -0.195408
C162  C     C_R   0.957168 0.217842 0.537186 -0.195407
C163  C     C_R   0.782158 0.957168 0.537186 -0.195408
C164  C     C_R   0.042832 0.782158 0.537186 -0.195408
C165  C     C_R   0.782158 0.042832 0.462814 -0.195408
C166  C     C_R   0.042832 0.217842 0.462814 -0.195408
C167  C     C_R   0.217842 0.957168 0.462814 -0.195408
C168  C     C_R   0.957168 0.782158 0.462814 -0.195408
C169  C     C_R   0.500000 1.000000 0.685634 0.099361
C170  C     C_R   0.314366 1.000000 0.500000 0.099360
C171  C     C_R   0.500000 0.000000 0.314366 0.099361
C172  C     C_R   0.685634 0.000000 0.500000 0.099361
C173  C     C_R   1.000000 0.314366 0.500000 0.099361
C174  C     C_R   0.000000 0.500000 0.314366 0.099361
C175  C     C_R   0.000000 0.685634 0.500000 0.099360
C176  C     C_R   1.000000 0.500000 0.685634 0.099361
C177  C     C_R   0.685634 0.500000 1.000000 0.099360
C178  C     C_R   0.500000 0.685634 1.000000 0.099361
C179  C     C_R   0.314366 0.500000 0.000000 0.099361
C180  C     C_R   0.500000 0.314366 0.000000 0.099360
C181  C     C_R   0.000000 0.500000 0.185634 0.099361
C182  C     C_R   0.814366 0.500000 1.000000 0.099360
C183  C     C_R   1.000000 0.500000 0.814366 0.099361
C184  C     C_R   0.185634 0.500000 0.000000 0.099361
C185  C     C_R   0.500000 0.814366 1.000000 0.099361
C186  C     C_R   0.500000 1.000000 0.814366 0.099361
C187  C     C_R   0.500000 0.185634 0.000000 0.099360
C188  C     C_R   0.500000 0.000000 0.185634 0.099361
C189  C     C_R   0.185634 0.000000 0.500000 0.099360
C190  C     C_R   1.000000 0.185634 0.500000 0.099361
C191  C     C_R   0.814366 0.000000 0.500000 0.099361
C192  C     C_R   1.000000 0.814366 0.500000 0.099360
Cu1   Cu    Cu3+1 0.561820 0.000000 0.000000 1.249583
Cu2   Cu    Cu3+1 1.000000 0.000000 0.561820 1.249583
Cu3   Cu    Cu3+1 0.438180 0.000000 0.000000 1.249584
Cu4   Cu    Cu3+1 1.000000 1.000000 0.438180 1.249583
Cu5   Cu    Cu3+1 0.000000 0.438180 0.000000 1.249583
Cu6   Cu    Cu3+1 1.000000 0.561820 0.000000 1.249584
Cu7   Cu    Cu3+1 0.061820 0.500000 0.500000 1.249583
Cu8   Cu    Cu3+1 0.500000 0.500000 0.061820 1.249583
Cu9   Cu    Cu3+1 0.938180 0.500000 0.500000 1.249584
Cu10  Cu    Cu3+1 0.500000 0.500000 0.938180 1.249583
Cu11  Cu    Cu3+1 0.500000 0.938180 0.500000 1.249583
Cu12  Cu    Cu3+1 0.500000 0.061820 0.500000 1.249584
O1    O     O_R   0.552210 0.090180 0.999970 -0.534374
O2    O     O_R   0.000030 0.090180 0.552210 -0.534374
O3    O     O_R   0.447790 0.090180 0.000030 -0.534373
O4    O     O_R   0.999970 0.090180 0.447790 -0.534373
O5    O     O_R   0.552210 0.909820 0.000030 -0.534374
O6    O     O_R   0.000030 0.909820 0.447790 -0.534374
O7    O     O_R   0.447790 0.909820 0.999970 -0.534373
O8    O     O_R   0.999970 0.909820 0.552210 -0.534373
O9    O     O_R   0.909820 0.000030 0.552210 -0.534373
O10   O     O_R   0.909820 0.447790 0.000030 -0.534374
O11   O     O_R   0.909820 0.999970 0.447790 -0.534374
O12   O     O_R   0.909820 0.552210 0.999970 -0.534373
O13   O     O_R   0.090180 0.999970 0.552210 -0.534374
O14   O     O_R   0.090180 0.552210 0.000030 -0.534373
O15   O     O_R   0.090180 0.000030 0.447790 -0.534373
O16   O     O_R   0.090180 0.447790 0.999970 -0.534374
O17   O     O_R   0.999970 0.447790 0.909820 -0.534374
O18   O     O_R   0.552210 0.999970 0.909820 -0.534373
O19   O     O_R   0.000030 0.552210 0.909820 -0.534373
O20   O     O_R   0.447790 0.000030 0.909820 -0.534374
O21   O     O_R   0.000030 0.447790 0.090180 -0.534373
O22   O     O_R   0.447790 0.999970 0.090180 -0.534373
O23   O     O_R   0.999970 0.552210 0.090180 -0.534374
O24   O     O_R   0.552210 0.000030 0.090180 -0.534374
O25   O     O_R   0.052210 0.590180 0.499970 -0.534374
O26   O     O_R   0.500030 0.590180 0.052210 -0.534374
O27   O     O_R   0.947790 0.590180 0.500030 -0.534373
O28   O     O_R   0.499970 0.590180 0.947790 -0.534373
O29   O     O_R   0.052210 0.409820 0.500030 -0.534374
O30   O     O_R   0.500030 0.409820 0.947790 -0.534374
O31   O     O_R   0.947790 0.409820 0.499970 -0.534373
O32   O     O_R   0.499970 0.409820 0.052210 -0.534373
O33   O     O_R   0.409820 0.500030 0.052210 -0.534373
O34   O     O_R   0.409820 0.947790 0.500030 -0.534374
O35   O     O_R   0.409820 0.499970 0.947790 -0.534374
O36   O     O_R   0.409820 0.052210 0.499970 -0.534373
O37   O     O_R   0.590180 0.499970 0.052210 -0.534374
O38   O     O_R   0.590180 0.052210 0.500030 -0.534373
O39   O     O_R   0.590180 0.500030 0.947790 -0.534373
O40   O     O_R   0.590180 0.947790 0.499970 -0.534374
O41   O     O_R   0.499970 0.947790 0.409820 -0.534374
O42   O     O_R   0.052210 0.499970 0.409820 -0.534373
O43   O     O_R   0.500030 0.052210 0.409820 -0.534373
O44   O     O_R   0.947790 0.500030 0.409820 -0.534374
O45   O     O_R   0.500030 0.947790 0.590180 -0.534373
O46   O     O_R   0.947790 0.499970 0.590180 -0.534373
O47   O     O_R   0.499970 0.052210 0.590180 -0.534374
O48   O     O_R   0.052210 0.500030 0.590180 -0.534374
F1    F     F_    0.644686 0.170376 0.809942 -0.479577
F2    F     F_    0.190057 0.170377 0.644685 -0.479578
F3    F     F_    0.355314 0.170376 0.190057 -0.479578
F4    F     F_    0.809943 0.170377 0.355315 -0.479577
F5    F     F_    0.644685 0.829623 0.190058 -0.479577
F6    F     F_    0.190058 0.829623 0.355314 -0.479577
F7    F     F_    0.355314 0.829623 0.809943 -0.479577
F8    F     F_    0.809942 0.829623 0.644686 -0.479577
F9    F     F_    0.829623 0.190057 0.644685 -0.479577
F10   F     F_    0.829623 0.355314 0.190058 -0.479577
F11   F     F_    0.829623 0.809942 0.355315 -0.479578
F12   F     F_    0.829623 0.644686 0.809942 -0.479578
F13   F     F_    0.170377 0.809942 0.644686 -0.479577
F14   F     F_    0.170377 0.644686 0.190057 -0.479577
F15   F     F_    0.170377 0.190058 0.355314 -0.479577
F16   F     F_    0.170377 0.355314 0.809942 -0.479577
F17   F     F_    0.809942 0.355314 0.829623 -0.479578
F18   F     F_    0.644686 0.809943 0.829623 -0.479577
F19   F     F_    0.190058 0.644686 0.829624 -0.479577
F20   F     F_    0.355314 0.190058 0.829624 -0.479577
F21   F     F_    0.190057 0.355314 0.170377 -0.479577
F22   F     F_    0.355314 0.809942 0.170376 -0.479577
F23   F     F_    0.809942 0.644686 0.170376 -0.479577
F24   F     F_    0.644686 0.190057 0.170377 -0.479578
F25   F     F_    0.144686 0.670376 0.309942 -0.479577
F26   F     F_    0.690057 0.670377 0.144685 -0.479578
F27   F     F_    0.855314 0.670377 0.690058 -0.479578
F28   F     F_    0.309943 0.670377 0.855315 -0.479577
F29   F     F_    0.144685 0.329623 0.690058 -0.479577
F30   F     F_    0.690058 0.329623 0.855314 -0.479577
F31   F     F_    0.855314 0.329623 0.309943 -0.479577
F32   F     F_    0.309942 0.329623 0.144686 -0.479577
F33   F     F_    0.329623 0.690057 0.144685 -0.479577
F34   F     F_    0.329624 0.855314 0.690058 -0.479577
F35   F     F_    0.329623 0.309942 0.855315 -0.479578
F36   F     F_    0.329623 0.144686 0.309942 -0.479578
F37   F     F_    0.670377 0.309942 0.144686 -0.479577
F38   F     F_    0.670377 0.144686 0.690057 -0.479577
F39   F     F_    0.670377 0.690058 0.855314 -0.479577
F40   F     F_    0.670377 0.855315 0.309942 -0.479577
F41   F     F_    0.309943 0.855314 0.329623 -0.479578
F42   F     F_    0.144686 0.309943 0.329623 -0.479577
F43   F     F_    0.690058 0.144686 0.329624 -0.479577
F44   F     F_    0.855314 0.690058 0.329624 -0.479577
F45   F     F_    0.690057 0.855314 0.670377 -0.479577
F46   F     F_    0.855314 0.309942 0.670376 -0.479577
F47   F     F_    0.309942 0.144685 0.670376 -0.479577
F48   F     F_    0.144686 0.690057 0.670377 -0.479578
F49   F     F_    0.441261 0.892197 0.870584 -0.599460
F50   F     F_    0.129416 0.892197 0.441261 -0.599460
F51   F     F_    0.558739 0.892197 0.129416 -0.599460
F52   F     F_    0.870584 0.892197 0.558740 -0.599460
F53   F     F_    0.441260 0.107803 0.129416 -0.599460
F54   F     F_    0.129416 0.107803 0.558739 -0.599460
F55   F     F_    0.558740 0.107803 0.870583 -0.599459
F56   F     F_    0.870584 0.107803 0.441261 -0.599460
F57   F     F_    0.107803 0.129416 0.441260 -0.599460
F58   F     F_    0.107803 0.558739 0.129416 -0.599461
F59   F     F_    0.107803 0.870584 0.558739 -0.599460
F60   F     F_    0.107803 0.441261 0.870584 -0.599460
F61   F     F_    0.892197 0.870584 0.441261 -0.599460
F62   F     F_    0.892197 0.441260 0.129416 -0.599459
F63   F     F_    0.892197 0.129416 0.558739 -0.599460
F64   F     F_    0.892197 0.558740 0.870584 -0.599460
F65   F     F_    0.870584 0.558739 0.107803 -0.599460
F66   F     F_    0.441260 0.870584 0.107803 -0.599459
F67   F     F_    0.129416 0.441260 0.107803 -0.599460
F68   F     F_    0.558739 0.129416 0.107803 -0.599461
F69   F     F_    0.129416 0.558740 0.892197 -0.599459
F70   F     F_    0.558740 0.870584 0.892197 -0.599460
F71   F     F_    0.870584 0.441261 0.892197 -0.599460
F72   F     F_    0.441261 0.129416 0.892197 -0.599460
F73   F     F_    0.941261 0.392197 0.370584 -0.599460
F74   F     F_    0.629416 0.392197 0.941261 -0.599460
F75   F     F_    0.058739 0.392197 0.629416 -0.599460
F76   F     F_    0.370584 0.392197 0.058740 -0.599460
F77   F     F_    0.941260 0.607803 0.629416 -0.599460
F78   F     F_    0.629416 0.607803 0.058739 -0.599460
F79   F     F_    0.058740 0.607803 0.370584 -0.599459
F80   F     F_    0.370584 0.607803 0.941261 -0.599460
F81   F     F_    0.607803 0.629416 0.941260 -0.599460
F82   F     F_    0.607803 0.058739 0.629416 -0.599461
F83   F     F_    0.607803 0.370584 0.058739 -0.599460
F84   F     F_    0.607803 0.941261 0.370584 -0.599460
F85   F     F_    0.392197 0.370584 0.941261 -0.599460
F86   F     F_    0.392197 0.941260 0.629416 -0.599459
F87   F     F_    0.392197 0.629416 0.058739 -0.599460
F88   F     F_    0.392197 0.058740 0.370584 -0.599460
F89   F     F_    0.370584 0.058739 0.607803 -0.599460
F90   F     F_    0.941260 0.370584 0.607803 -0.599459
F91   F     F_    0.629416 0.941260 0.607803 -0.599460
F92   F     F_    0.058739 0.629416 0.607803 -0.599461
F93   F     F_    0.629416 0.058740 0.392197 -0.599459
F94   F     F_    0.058740 0.370584 0.392197 -0.599460
F95   F     F_    0.370584 0.941261 0.392197 -0.599460
F96   F     F_    0.941261 0.629416 0.392197 -0.599460

loop_
_geom_bond_atom_site_label_1
_geom_bond_atom_site_label_2
_ccdc_geom_bond_type
Cu2   Cu4   S    
C36   F60   S    
C71   C122  A    
C33   C166  A    
C11   C181  S    
C39   C87   A    
Cu6   O12   S    
C104  F28   S    
C21   O43   A    
C130  C174  A    
C76   F8    S    
C135  C173  A    
C64   C112  A    
C119  F41   S    
Cu8   O33   S    
Cu11  O34   S    
C32   F56   S    
C42   C159  A    
C31   F55   S    
C122  C170  A    
C66   F90   S    
C91   C100  A    
C29   C160  A    
C134  C174  A    
C14   O28   A    
C44   C92   A    
C19   O39   A    
Cu4   O6    S    
C1    C187  S    
C47   C146  A    
C54   F78   S    
C129  C173  A    
Cu6   O14   S    
Cu8   O26   S    
C85   F11   S    
C27   C75   A    
C54   C102  A    
C37   C168  A    
C123  C156  A    
C18   C170  S    
C139  C148  A    
C15   C173  S    
C83   F13   S    
Cu4   O11   S    
C70   C129  A    
C77   C112  A    
Cu10  O30   S    
C61   C144  A    
C110  F34   S    
C80   F4    S    
C5    O9    A    
C100  F32   S    
C79   F1    S    
C5    C191  S    
C68   C116  A    
C56   C141  A    
C17   O35   A    
Cu1   O18   S    
C20   C172  S    
C46   F70   S    
C72   F96   S    
C78   C113  A    
C2    O4    A    
C24   C176  S    
C162  C190  A    
C27   C156  A    
C13   C175  S    
C46   C153  A    
C80   C117  A    
C122  C167  A    
C48   C96   A    
C38   F62   S    
C65   C113  A    
C2    C190  S    
C109  F35   S    
C73   F7    S    
C96   C109  A    
C168  C192  A    
C71   C119  A    
C115  F45   S    
C40   C88   A    
C106  F38   S    
Cu6   O19   S    
C30   F54   S    
C155  C187  A    
C22   O44   A    
C72   C133  A    
C70   F94   S    
C131  C164  A    
C140  C180  A    
C63   C111  A    
C125  C171  A    
C37   F61   S    
C14   O26   A    
C139  C179  A    
C19   O37   A    
C35   F59   S    
C57   F81   S    
Cu8   Cu10  S    
C64   C125  A    
C89   F23   S    
C58   C106  A    
C86   F10   S    
Cu5   O10   S    
C63   F87   S    
C41   C89   A    
C136  C176  A    
C149  C183  A    
C45   C93   A    
Cu2   O9    S    
C125  C160  A    
C73   C110  A    
C48   F72   S    
C154  C186  A    
C57   C142  A    
C6    C182  S    
C126  C170  A    
C59   C140  A    
Cu5   O17   S    
Cu7   O29   S    
C68   F92   S    
C5    O11   A    
Cu7   O25   S    
C145  C181  A    
C52   C139  A    
C86   C97   A    
C53   F77   S    
C144  C180  A    
C69   C128  A    
C23   C169  S    
C2    O2    A    
Cu5   O16   S    
C19   C177  S    
C67   F91   S    
C124  C163  A    
C17   C179  S    
C33   F57   S    
C90   C111  A    
C3    C185  S    
C127  C154  A    
C18   O36   A    
Cu2   O13   S    
C74   F6    S    
C3    O7    A    
C167  C189  A    
C26   C167  A    
C50   C98   A    
Cu1   O1    S    
C71   F95   S    
C120  F44   S    
C133  C168  A    
C22   O42   A    
C10   O18   A    
Cu11  O40   S    
C49   C97   A    
C52   C100  A    
C59   C107  A    
C79   C106  A    
C42   C90   A    
Cu4   O4    S    
C60   C123  A    
C105  F39   S    
C56   F80   S    
C12   O22   A    
C46   C94   A    
C55   C130  A    
C72   C120  A    
C43   F67   S    
C90   F22   S    
C44   F68   S    
C39   C162  A    
C133  C175  A    
C14   C178  S    
C121  C158  A    
C128  C165  A    
C137  C150  A    
C92   F24   S    
Cu4   O15   S    
C88   F12   S    
Cu7   Cu9   S    
C132  C147  A    
C118  F42   S    
C157  C187  A    
Cu12  O38   S    
C10   O20   A    
C127  C169  A    
C65   C126  A    
C159  C185  A    
C24   O46   A    
C108  F40   S    
C142  C178  A    
C51   F75   S    
C70   C118  A    
C47   F71   S    
C10   C186  S    
C25   C73   A    
C124  C172  A    
C143  C177  A    
Cu5   Cu6   S    
C58   F82   S    
Cu12  O43   S    
Cu7   O48   S    
Cu9   O27   S    
C29   C77   A    
C11   O23   A    
C25   C158  A    
C81   F15   S    
C103  F25   S    
C163  C191  A    
C34   C82   A    
C144  C157  A    
C164  C192  A    
C16   C180  S    
C28   C163  A    
C3    O5    A    
C143  C146  A    
C94   C105  A    
C52   F76   S    
C8    O16   A    
C4    C192  S    
C62   F86   S    
C57   C105  A    
C77   F3    S    
Cu12  O36   S    
C31   C154  A    
C136  C149  A    
C150  C182  A    
C20   O38   A    
C135  C162  A    
C34   F58   S    
C97   F31   S    
Cu3   O20   S    
C12   O24   A    
C54   C137  A    
C94   F18   S    
C76   C115  A    
C84   F16   S    
C132  C176  A    
C23   O47   A    
C43   C148  A    
Cu7   O42   S    
Cu11  O45   S    
Cu12  O47   S    
C75   F5    S    
C53   C101  A    
C65   F89   S    
C38   C86   A    
C126  C161  A    
C87   F9    S    
C60   C108  A    
C50   F74   S    
C39   F63   S    
C75   C108  A    
C113  F47   S    
C32   C165  A    
C158  C186  A    
C151  C181  A    
C156  C188  A    
C146  C182  A    
C93   F19   S    
C24   O48   A    
C56   C104  A    
C26   F50   S    
C41   C150  A    
C21   C171  S    
C81   C118  A    
C9    C183  S    
C36   C147  A    
Cu11  O41   S    
C41   F65   S    
C11   O21   A    
C82   F14   S    
C129  C166  A    
C117  F43   S    
C28   C76   A    
Cu6   O23   S    
Cu10  O28   S    
C20   O40   A    
C134  C145  A    
C64   F88   S    
C35   C83   A    
C66   C114  A    
C141  C179  A    
C84   C99   A    
C101  F27   S    
C51   C132  A    
C98   F30   S    
C48   C157  A    
C42   F66   S    
C35   C164  A    
C45   C152  A    
C23   O45   A    
C49   F73   S    
C69   F93   S    
Cu10  O39   S    
C131  C175  A    
C165  C191  A    
C40   C149  A    
C8    O14   A    
C140  C155  A    
C13   O25   A    
C66   C135  A    
C9    O17   A    
Cu3   O3    S    
C15   O31   A    
C130  C151  A    
C114  F46   S    
C7    C189  S    
C30   C161  A    
Cu8   O37   S    
C123  C171  A    
Cu5   O21   S    
C121  C169  A    
C49   C134  A    
C25   F49   S    
C89   C102  A    
C68   C131  A    
C61   C109  A    
C67   C124  A    
C88   C101  A    
C95   C98   A    
C74   C119  A    
C37   C85   A    
C45   F69   S    
Cu9   O31   S    
C32   C80   A    
C16   O32   A    
C12   C188  S    
C55   C103  A    
C4    O6    A    
C27   F51   S    
C67   C115  A    
C28   F52   S    
C87   C114  A    
C138  C159  A    
C60   F84   S    
Cu1   Cu3   S    
C6    O10   A    
C82   C103  A    
C16   O30   A    
C152  C184  A    
C1    O1    A    
C7    O15   A    
C8    C184  S    
C58   C127  A    
Cu9   O44   S    
C61   F85   S    
C53   C136  A    
C102  F26   S    
C93   C104  A    
C22   C174  S    
C95   F17   S    
C51   C99   A    
Cu2   O2    S    
C78   F2    S    
C91   F21   S    
C161  C189  A    
Cu10  O35   S    
C21   O41   A    
C43   C91   A    
C166  C190  A    
C7    O13   A    
C85   C120  A    
C38   C145  A    
Cu3   O7    S    
C40   F64   S    
C13   O27   A    
C9    O19   A    
C92   C107  A    
Cu1   O5    S    
C62   C110  A    
C148  C184  A    
C15   O29   A    
C111  F33   S    
C6    O12   A    
C29   F53   S    
C141  C152  A    
C128  C172  A    
C63   C138  A    
C160  C188  A    
C138  C178  A    
C99   F29   S    
C50   C143  A    
C147  C183  A    
Cu3   O22   S    
C44   C155  A    
C83   C116  A    
Cu8   O32   S    
Cu1   O24   S    
C34   C151  A    
C31   C79   A    
C96   F20   S    
C4    O8    A    
C55   F79   S    
C153  C185  A    
C36   C84   A    
C69   C117  A    
C26   C74   A    
C142  C153  A    
C1    O3    A    
Cu2   O8    S    
C30   C78   A    
C18   O34   A    
C137  C177  A    
C116  F48   S    
Cu9   O46   S    
C59   F83   S    
C47   C95   A    
C112  F36   S    
Cu11  Cu12  S    
C33   C81   A    
C62   C121  A    
C107  F37   S    
C17   O33   A    
