data_mof_unit_56438.cif
_audit_creation_date              2013-03-05T15:40:33-0500
_audit_creation_method            fapswitch 2.2
_symmetry_space_group_name_H-M    P1
_symmetry_Int_Tables_number       1
_space_group_crystal_system       triclinic
_cell_length_a                    14.969434
_cell_length_b                    8.669923
_cell_length_c                    7.511004
_cell_angle_alpha                 103.511438
_cell_angle_beta                  93.57757
_cell_angle_gamma                 92.376645
_cell_volume                      944.401343725

loop_
_atom_site_label
_atom_site_type_symbol
_atom_site_description
_atom_site_fract_x
_atom_site_fract_y
_atom_site_fract_z
_atom_type_partial_charge
O1    O     O_R   0.506510 0.286130 0.619770 -0.576805
O2    O     O_R   0.493490 0.713870 0.380230 -0.576765
O3    O     O_R   0.489600 0.256770 0.308360 -0.572278
O4    O     O_R   0.510400 0.743230 0.691640 -0.572281
C1    C     C_R   0.496681 0.199789 0.453020 0.884710
C2    C     C_R   0.503321 0.800211 0.546980 0.884755
O5    O     O_R   0.378710 0.514640 0.655720 -0.544786
O6    O     O_R   0.621290 0.485360 0.344280 -0.544781
O7    O     O_R   0.361800 0.485290 0.344300 -0.548938
O8    O     O_R   0.638200 0.514710 0.655700 -0.548947
C3    C     C_R   0.329464 0.501405 0.503524 0.845187
C4    C     C_R   0.670536 0.498596 0.496476 0.845179
Cu1   Cu    Cu3+1 0.510010 0.517380 0.684380 1.155725
Cu2   Cu    Cu3+1 0.489990 0.482620 0.315620 1.155743
C5    C     C_R   0.817544 0.636167 0.571333 -0.161596
C6    C     C_R   0.182455 0.363837 0.428663 -0.161607
C7    C     C_R   0.766629 0.497035 0.489025 -0.138898
C8    C     C_R   0.233371 0.502968 0.510974 -0.138907
C9    C     C_R   0.806971 0.358801 0.402997 0.341027
C10   C     C_R   0.193028 0.641204 0.597001 0.341031
C11   C     C_R   0.901028 0.358539 0.410448 -0.035666
C12   C     C_R   0.098972 0.641466 0.589544 -0.035669
C13   C     C_R   0.952955 0.500238 0.494633 0.003599
C14   C     C_R   0.047044 0.499766 0.505360 0.003598
C15   C     C_R   0.910735 0.642147 0.568683 0.009232
C16   C     C_R   0.089264 0.357857 0.431309 0.009235
C17   C     C_R   0.943944 0.217931 0.343313 -0.104747
C18   C     C_R   0.056055 0.782076 0.656670 -0.104736
C19   C     C_R   0.037227 0.214937 0.356423 0.327912
C20   C     C_R   0.962771 0.785069 0.643561 0.327905
H1    H     H_    0.783226 0.738783 0.638857 0.208794
H2    H     H_    0.216773 0.261222 0.361138 0.208799
C21   C     C_2   0.495147 0.031241 0.427247 -0.218183
C22   C     C_2   0.504856 0.968759 0.572753 -0.218205
H3    H     H_    0.486387 0.958399 0.287595 0.199354
H4    H     H_    0.513617 0.041601 0.712404 0.199335
N1    N     N_2   0.474890 0.456420 0.038520 0.013011
N2    N     N_2   0.525110 0.543580 0.961480 0.013021
N3    N     N_R   0.752470 0.217970 0.316184 0.118696
O9    O     O_R   0.753046 0.159047 0.140301 -0.274099
O10   O     O_R   0.702528 0.148178 0.413075 -0.337282
N4    N     N_R   0.247531 0.782034 0.683817 0.118720
O11   O     O_R   0.246920 0.841005 0.859684 -0.274087
O12   O     O_R   0.297494 0.851798 0.586934 -0.337324
H5    H     H_    0.905170 0.107255 0.286700 0.239108
H6    H     H_    0.094827 0.892754 0.713272 0.239117
N5    N     N_R   0.077403 0.064723 0.301143 0.131203
O13   O     O_R   0.040970 0.956399 0.162541 -0.293971
O14   O     O_R   0.139045 0.024588 0.408954 -0.323462
N6    N     N_R   0.922595 0.935283 0.698835 0.131198
O15   O     O_R   0.959028 0.043613 0.837430 -0.293977
O16   O     O_R   0.860951 0.975412 0.591021 -0.323449
N7    N     N_R   0.388024 0.423990 0.959685 0.256670
O17   O     O_R   0.360251 0.277387 0.886518 -0.313043
O18   O     O_R   0.329324 0.531248 0.998607 -0.290490
N8    N     N_R   0.611967 0.576069 0.040355 0.256673
O19   O     O_R   0.639690 0.722681 0.113630 -0.313064
O20   O     O_R   0.670707 0.468881 0.001407 -0.290495

loop_
_geom_bond_atom_site_label_1
_geom_bond_atom_site_label_2
_geom_bond_distance
_ccdc_geom_bond_type
C4    C7    1.443530 S    
N6    O16   1.301284 A    
C13   C14   1.405958 A    
C3    C8    1.443535 S    
C5    H1    1.082686 S    
N1    N2    1.297120 D    
Cu1   Cu2   2.711286 S    
C16   C19   1.413553 A    
C17   C19   1.395473 A    
C11   C17   1.404008 A    
C10   N4    1.435481 S    
N5    O13   1.301163 A    
O5    Cu1   1.962391 S    
O6    C4    1.299964 A    
N1    N7    1.384317 S    
C17   H5    1.082027 S    
C18   C20   1.395470 A    
C21   C22   1.331296 D    
C20   N6    1.440011 S    
N5    O14   1.301284 A    
C12   C18   1.404013 A    
N7    O17   1.300630 A    
Cu2   N1    2.037304 S    
O5    C3    1.299965 A    
O7    C3    1.297639 A    
C14   C16   1.418142 A    
C18   H6    1.082024 S    
Cu1   N2    2.037304 S    
O2    C2    1.296315 A    
O3    Cu2   1.945839 S    
N4    O12   1.300319 A    
C19   N5    1.440009 S    
O1    C1    1.296315 A    
C9    N3    1.435474 S    
O4    C2    1.294861 A    
C21   H3    1.087519 S    
N8    O20   1.301997 A    
N6    O15   1.301162 A    
C22   H4    1.087519 S    
N7    O18   1.301975 A    
C11   C13   1.417675 A    
C6    C16   1.395391 A    
O2    Cu2   1.947157 S    
C12   C14   1.417677 A    
C5    C15   1.395391 A    
O1    Cu1   1.947157 S    
N4    O11   1.301029 A    
N3    O9    1.301024 A    
O3    C1    1.294860 A    
O4    Cu1   1.945839 S    
C13   C15   1.418141 A    
N2    N8    1.384331 S    
N8    O19   1.300650 A    
N3    O10   1.300317 A    
C8    C10   1.401942 A    
C6    C8    1.390919 A    
C15   C20   1.413550 A    
C5    C7    1.390917 A    
O7    Cu2   1.944782 S    
C6    H2    1.082685 S    
O6    Cu2   1.962391 S    
C7    C9    1.401938 A    
O8    C4    1.297638 A    
C2    C22   1.427536 S    
C10   C12   1.405710 A    
C9    C11   1.405703 A    
O8    Cu1   1.944782 S    
C1    C21   1.427536 S    
