data_mof_unit_29087.cif
_audit_creation_date              2013-03-05T15:58:27-0500
_audit_creation_method            fapswitch 2.2
_symmetry_space_group_name_H-M    P1
_symmetry_Int_Tables_number       1
_space_group_crystal_system       triclinic
_cell_length_a                    7.19916
_cell_length_b                    15.038471
_cell_length_c                    15.399596
_cell_angle_alpha                 89.963187
_cell_angle_beta                  90.008994
_cell_angle_gamma                 90.225584
_cell_volume                      1667.21410183

loop_
_atom_site_label
_atom_site_type_symbol
_atom_site_description
_atom_site_fract_x
_atom_site_fract_y
_atom_site_fract_z
_atom_type_partial_charge
O1    O     O_R   0.388780 0.834790 0.412340 -0.572246
O2    O     O_R   0.111220 0.165210 0.912340 -0.574259
O3    O     O_R   0.888780 0.665210 0.587660 -0.576048
O4    O     O_R   0.611220 0.334790 0.087660 -0.575120
O5    O     O_R   0.059040 0.845930 0.587040 -0.561946
O6    O     O_R   0.440960 0.154070 0.087040 -0.580708
O7    O     O_R   0.559040 0.654070 0.412960 -0.578891
O8    O     O_R   0.940960 0.345930 0.912960 -0.577579
C1    C     C_R   0.228067 0.867240 0.615918 0.967540
C2    C     C_R   0.271442 0.131021 0.114252 0.984344
C3    C     C_R   0.728241 0.631005 0.385719 0.983410
C4    C     C_R   0.771687 0.369927 0.886479 0.962871
O9    O     O_R   0.059070 0.845930 0.412970 -0.597498
O10   O     O_R   0.440930 0.154070 0.912970 -0.596552
O11   O     O_R   0.559070 0.654070 0.587030 -0.587661
O12   O     O_R   0.940930 0.345930 0.087030 -0.593220
O13   O     O_R   0.888760 0.665210 0.412340 -0.577135
O14   O     O_R   0.611240 0.334790 0.912340 -0.572226
O15   O     O_R   0.388760 0.834790 0.587660 -0.580745
O16   O     O_R   0.111240 0.165210 0.087660 -0.577794
C5    C     C_R   0.227432 0.865420 0.382497 0.995676
C6    C     C_R   0.272412 0.133902 0.883045 0.994751
C7    C     C_R   0.727390 0.634147 0.617019 0.960997
C8    C     C_R   0.772842 0.365444 0.117554 0.992092
O17   O     O_3   0.222280 0.690700 0.500000 -0.261627
O18   O     O_3   0.277720 0.309300 0.000000 -0.255927
O19   O     O_3   0.722280 0.809300 0.500000 -0.260873
O20   O     O_3   0.777720 0.190700 0.000000 -0.265736
V1    V     V_3+5 0.947430 0.761000 0.500000 1.286637
V2    V     V_3+5 0.552570 0.239000 0.000000 1.281409
V3    V     V_3+5 0.447430 0.739000 0.500000 1.285358
V4    V     V_3+5 0.052570 0.261000 0.000000 1.286474
C9    C     C_3   0.905297 0.582845 0.751360 -0.257934
C10   C     C_3   0.600691 0.416193 0.254912 -0.218039
C11   C     C_3   0.401712 0.917746 0.246107 -0.220666
C12   C     C_3   0.098713 0.081011 0.746934 -0.235448
H1    H     H_    0.036167 0.577944 0.713264 0.189673
H2    H     H_    0.468198 0.408376 0.218527 0.204264
H3    H     H_    0.533701 0.910898 0.283018 0.200370
H4    H     H_    0.966898 0.089758 0.783529 0.203266
H5    H     H_    0.903244 0.650964 0.778200 0.230693
H6    H     H_    0.626330 0.354509 0.291718 0.258060
H7    H     H_    0.378165 0.855987 0.209116 0.260242
H8    H     H_    0.124574 0.141687 0.708674 0.268691
C13   C     C_3   0.913979 0.514250 0.826372 -0.336072
C14   C     C_3   0.577932 0.491597 0.322209 -0.338062
C15   C     C_3   0.423953 0.993401 0.178963 -0.340321
C16   C     C_3   0.074274 0.004294 0.681349 -0.296177
H9    H     H_    0.905472 0.548360 0.889863 0.227516
H10   H     H_    0.567310 0.463905 0.388837 0.221802
H11   H     H_    0.437277 0.965852 0.112425 0.221445
H12   H     H_    0.058813 0.030898 0.614494 0.207145
H13   H     H_    0.053492 0.482861 0.825974 0.180166
H14   H     H_    0.442673 0.525139 0.310714 0.171979
H15   H     H_    0.557830 0.028371 0.191318 0.170195
H16   H     H_    0.940360 0.970350 0.694986 0.218365
H17   H     H_    0.888776 0.472968 0.606838 0.226795
H18   H     H_    0.604597 0.525269 0.111524 0.221779
H19   H     H_    0.390605 0.027113 0.389609 0.223996
H20   H     H_    0.101653 0.971261 0.887583 0.232037
C17   C     C_3   0.765135 0.471649 0.650199 -0.528923
C18   C     C_3   0.734738 0.527245 0.150451 -0.531987
C19   C     C_3   0.261775 0.027540 0.349726 -0.533065
C20   C     C_3   0.235488 0.971182 0.851292 -0.503749
C21   C     C_3   0.551963 0.561281 0.743685 0.168648
C22   C     C_3   0.949692 0.438303 0.245377 0.154234
C23   C     C_3   0.051796 0.936469 0.253775 0.156317
C24   C     C_3   0.448089 0.061404 0.755258 0.149868
C25   C     C_3   0.736634 0.565315 0.689818 -0.126858
C26   C     C_3   0.765009 0.434076 0.191044 -0.141231
C27   C     C_3   0.235451 0.934058 0.309050 -0.140393
C28   C     C_3   0.264128 0.064586 0.810207 -0.146432
H21   H     H_    0.441413 0.537826 0.698169 0.062353
H22   H     H_    0.060453 0.462881 0.200689 0.052091
H23   H     H_    0.939567 0.960189 0.297859 0.052760
H24   H     H_    0.558779 0.036292 0.799511 0.066280
C29   C     C_3   0.759734 0.442019 0.815894 -0.202652
C30   C     C_3   0.740225 0.559547 0.314825 -0.211393
C31   C     C_3   0.259344 0.059627 0.185242 -0.208594
C32   C     C_3   0.239518 0.938188 0.687158 -0.166007
C33   C     C_3   0.784576 0.399891 0.723183 -0.236270
C34   C     C_3   0.728497 0.601288 0.221587 -0.221980
C35   C     C_3   0.267393 0.101587 0.278471 -0.220281
C36   C     C_3   0.237023 0.896263 0.780989 -0.225473
C37   C     C_3   0.564083 0.488727 0.816499 0.141968
C38   C     C_3   0.930746 0.508613 0.320351 0.139225
C39   C     C_3   0.070565 0.006794 0.178682 0.140347
C40   C     C_3   0.427501 0.992076 0.679500 0.105874
H25   H     H_    0.460815 0.436422 0.798176 0.075389
H26   H     H_    0.042987 0.558618 0.308866 0.080162
H27   H     H_    0.956646 0.055673 0.189334 0.078269
H28   H     H_    0.543022 0.943718 0.688590 0.099802
H29   H     H_    0.645117 0.454275 0.607788 0.205257
H30   H     H_    0.848849 0.542499 0.103906 0.203565
H31   H     H_    0.145897 0.041550 0.395538 0.205565
H32   H     H_    0.346564 0.957908 0.899862 0.196867
H33   H     H_    0.672989 0.349493 0.713265 0.214173
H34   H     H_    0.851363 0.645230 0.211954 0.208609
H35   H     H_    0.142901 0.144146 0.287336 0.207928
H36   H     H_    0.368310 0.858258 0.788797 0.172042
C41   C     C_2   0.967833 0.352708 0.714804 0.694161
H37   H     H_    0.090211 0.386911 0.690295 0.017779
O21   O     O_2   0.981963 0.276488 0.740074 -0.581499
C42   C     C_2   0.558336 0.658328 0.210285 0.663223
H38   H     H_    0.439277 0.635603 0.173029 0.038651
O22   O     O_2   0.549836 0.729755 0.246932 -0.587620
C43   C     C_2   0.435253 0.160587 0.290607 0.661588
H39   H     H_    0.552372 0.140160 0.330178 0.045246
O23   O     O_2   0.444039 0.231174 0.252321 -0.589855
C44   C     C_2   0.082454 0.830328 0.800479 0.641750
H40   H     H_    0.091298 0.790690 0.859266 0.088906
O24   O     O_2   0.947577 0.821035 0.753363 -0.596033
N1    N     N_R   0.492118 0.648842 0.775389 0.255233
O25   O     O_R   0.329189 0.678276 0.753509 -0.474346
O26   O     O_R   0.601647 0.700200 0.820228 -0.352778
N2    N     N_R   0.013621 0.351400 0.277872 0.267578
O27   O     O_R   0.175646 0.346102 0.314806 -0.347669
O28   O     O_R   0.916853 0.278880 0.267644 -0.436580
N3    N     N_R   0.990262 0.848964 0.221352 0.265987
O29   O     O_R   0.828287 0.842078 0.184511 -0.349571
O30   O     O_R   0.088770 0.777379 0.231857 -0.438372
N4    N     N_R   0.513216 0.148776 0.723755 0.266255
O31   O     O_R   0.677997 0.155286 0.689654 -0.356278
O32   O     O_R   0.414507 0.220578 0.732163 -0.420852
N5    N     N_R   0.508045 0.521498 0.902737 0.250048
O33   O     O_R   0.608724 0.578119 0.945975 -0.390874
O34   O     O_R   0.352559 0.494076 0.936672 -0.404676
N6    N     N_R   0.962298 0.470479 0.407250 0.250010
O35   O     O_R   0.860903 0.405228 0.436578 -0.381572
O36   O     O_R   0.102357 0.498067 0.453517 -0.389520
N7    N     N_R   0.042453 0.968218 0.091726 0.249569
O37   O     O_R   0.146180 0.903844 0.063239 -0.396218
O38   O     O_R   0.903563 0.994717 0.044351 -0.389082
N8    N     N_R   0.451883 0.032073 0.592854 0.250618
O39   O     O_R   0.347223 0.096988 0.566272 -0.379664
O40   O     O_R   0.589339 0.006668 0.544059 -0.389375

loop_
_geom_bond_atom_site_label_1
_geom_bond_atom_site_label_2
_geom_bond_distance
_ccdc_geom_bond_type
H18   C18   1.112500 S    
O1    C5    1.332814 A    
C41   H37   1.086049 S    
C39   H27   1.115686 S    
O19   V1    1.778806 S    
O13   V1    2.018263 S    
C7    C25   1.527007 S    
O3    C7    1.329733 A    
C10   H6    1.102939 S    
C15   C31   1.554045 S    
C32   C36   1.576229 S    
O15   V3    2.020722 S    
N6    O35   1.301393 A    
C31   C39   1.574816 S    
C21   H21   1.116715 S    
C33   C41   1.506057 S    
O7    C3    1.335571 A    
C22   N2    1.474441 S    
C5    C27   1.531713 S    
O9    V1    2.015814 S    
C22   C38   1.572385 S    
O4    C8    1.331973 A    
C17   H29   1.113394 S    
C39   N7    1.473320 S    
C22   H22   1.115145 S    
C19   H31   1.113456 S    
O1    V3    2.019367 S    
C9    C13   1.549634 S    
N2    O27   1.300353 A    
C18   C26   1.550050 S    
O2    V4    2.020694 S    
C6    C28   1.532755 S    
H17   C17   1.112926 S    
O3    V1    2.017083 S    
C44   H40   1.085608 S    
C20   C36   1.563083 S    
C44   O24   1.219694 D    
C37   N5    1.473739 S    
C1    O15   1.330675 A    
C40   H28   1.115667 S    
C2    O16   1.329078 A    
O2    C6    1.332884 A    
C43   H39   1.085475 S    
O12   V4    2.020907 S    
C10   C14   1.545877 S    
C29   C33   1.572857 S    
C11   H7    1.102385 S    
C10   C26   1.560947 S    
C9    C25   1.561881 S    
C30   C38   1.575868 S    
O11   C7    1.331889 A    
C18   C34   1.563299 S    
C11   C15   1.544765 S    
O12   C8    1.332118 A    
C35   H35   1.111837 S    
C43   O23   1.215367 D    
O10   V2    2.016738 S    
C42   O22   1.215472 D    
C42   H38   1.085535 S    
O5    V1    2.016753 S    
N3    O30   1.301451 A    
O7    V3    2.020925 S    
C34   H34   1.111936 S    
C38   N6    1.473512 S    
C36   H36   1.112908 S    
C12   H4    1.112043 S    
C20   H32   1.113377 S    
C38   H26   1.115705 S    
C24   N4    1.475139 S    
C14   C30   1.553301 S    
C37   H25   1.116539 S    
O18   V4    1.773587 S    
N8    O40   1.301315 A    
C13   H13   1.111476 S    
C36   C44   1.517424 S    
C19   C35   1.563264 S    
C24   C28   1.572629 S    
C1    C32   1.532821 S    
O8    V4    2.019668 S    
C11   H3    1.112260 S    
O5    C1    1.333471 A    
C3    C30   1.535053 S    
C30   C34   1.569073 S    
C13   H9    1.106245 S    
O8    C4    1.335922 A    
C4    C29   1.537374 S    
C14   H14   1.112508 S    
O9    C5    1.331328 A    
N3    O29   1.300482 A    
O11   V3    2.019652 S    
N2    O28   1.301426 A    
O14   V2    2.017112 S    
O6    V2    2.015830 S    
C19   C27   1.550366 S    
C18   H30   1.113442 S    
N5    O33   1.299785 A    
C24   C40   1.571721 S    
C12   H8    1.101093 S    
C23   H23   1.115195 S    
N4    O32   1.301508 A    
N7    O37   1.301383 A    
C15   H15   1.112546 S    
N1    O25   1.299633 A    
O16   V4    2.019397 S    
C17   C25   1.549797 S    
C16   H16   1.109122 S    
C3    O13   1.327974 A    
C10   H2    1.112032 S    
C21   N1    1.470800 S    
O17   V3    1.773587 S    
N7    O38   1.301292 A    
N6    O36   1.301282 A    
O6    C2    1.334817 A    
C15   H11   1.109799 S    
C2    C31   1.534028 S    
C21   C37   1.566712 S    
N8    O39   1.301334 A    
C24   H24   1.115299 S    
C14   H10   1.109625 S    
H19   C19   1.112344 S    
H20   C20   1.113934 S    
C9    H5    1.105047 S    
C16   C32   1.555845 S    
O20   V2    1.778807 S    
C40   N8    1.473498 S    
C32   C40   1.579046 S    
C17   C33   1.564257 S    
C31   C35   1.569579 S    
O10   C6    1.331645 A    
C8    C26   1.533370 S    
C33   H33   1.112842 S    
C29   C37   1.576457 S    
C21   C25   1.568105 S    
C35   C43   1.508055 S    
C12   C16   1.543342 S    
C23   C27   1.572883 S    
C20   C28   1.553217 S    
C9    H1    1.112670 S    
C11   C27   1.560556 S    
C16   H12   1.110055 S    
C22   C26   1.571916 S    
C41   O21   1.214887 D    
C4    O14   1.329325 A    
N5    O34   1.300919 A    
C34   C42   1.508236 S    
C13   C29   1.558742 S    
N4    O31   1.300709 A    
C23   N3    1.474253 S    
O4    V2    2.018231 S    
C12   C28   1.558901 S    
C23   C39   1.572064 S    
N1    O26   1.300303 A    
