data_mof_unit_29892.cif
_audit_creation_date              2012-12-10T17:53:22-0500
_audit_creation_method            fapswitch 2.2
_symmetry_space_group_name_H-M    P1
_symmetry_Int_Tables_number       1
_space_group_crystal_system       triclinic
_cell_length_a                    23.394346
_cell_length_b                    10.675148
_cell_length_c                    9.883459
_cell_angle_alpha                 88.034647
_cell_angle_beta                  90.349523
_cell_angle_gamma                 92.028717
_cell_volume                      2465.24867942

loop_
_atom_site_label
_atom_site_type_symbol
_atom_type_description
_atom_site_fract_x
_atom_site_fract_y
_atom_site_fract_z
_atom_type_partial_charge
Br1   Br    Br    0.932066 0.096799 0.670955 -0.325135
Br2   Br    Br    0.679000 0.665739 0.723887 -0.408358
Br3   Br    Br    0.575491 0.209694 0.811574 -0.440854
Br4   Br    Br    0.563726 0.873582 0.235230 -0.439563
Br5   Br    Br    0.787541 0.307526 0.259944 -0.347827
C1    C     C_R   0.506971 0.261517 0.503481 0.899545
C2    C     C_R   0.119763 0.565674 0.434706 0.513759
C3    C     C_R   0.238388 0.466005 0.372774 -0.081417
C4    C     C_R   0.389294 0.498174 0.499620 0.846253
C5    C     C_R   0.297619 0.476470 0.374676 -0.221123
C6    C     C_R   0.326942 0.489609 0.498080 -0.038316
C7    C     C_R   0.296247 0.491147 0.619595 -0.219087
C8    C     C_R   0.236878 0.481183 0.617244 -0.085765
C9    C     C_R   0.208019 0.469135 0.493800 0.302994
C10   C     C_R   0.755705 0.405322 0.398056 0.353957
C11   C     C_R   0.696900 0.417972 0.402166 -0.260233
C12   C     C_R   0.967303 0.248974 0.595102 0.316860
C13   C     C_R   0.672496 0.491605 0.500048 -0.157730
C14   C     C_R   0.707657 0.553515 0.594797 0.276711
C15   C     C_R   0.766455 0.539673 0.590807 -0.139881
C16   C     C_R   0.498610 0.740805 0.497700 0.925752
C17   C     C_R   0.790425 0.466303 0.492974 0.165668
C18   C     C_R   0.511392 0.098683 0.766565 0.198746
C19   C     C_R   0.479859 0.036132 0.871874 -0.025612
C20   C     C_R   0.444620 0.931861 0.841055 -0.142129
C21   C     C_R   0.447082 0.880555 0.713693 -0.178712
C22   C     C_R   0.482586 0.937084 0.612251 0.020389
C23   C     C_R   0.026951 0.252619 0.594841 -0.179461
C24   C     C_R   0.504780 0.057703 0.631710 0.049210
C25   C     C_R   0.518785 0.130151 0.513474 -0.145985
C26   C     C_R   0.533150 0.072487 0.394964 -0.187306
C27   C     C_R   0.528115 0.944234 0.388665 0.323239
C28   C     C_R   0.610606 0.500808 0.500282 0.954085
C29   C     C_R   0.499631 0.875736 0.494843 -0.184602
C30   C     C_R   0.420406 0.344699 0.144117 -0.273091
C31   C     C_R   0.379526 0.271544 0.075948 0.001358
C32   C     C_R   0.380672 0.270821 0.935095 -0.185243
C33   C     C_R   0.421792 0.342741 0.863676 -0.232426
C34   C     C_R   0.058012 0.357093 0.541378 -0.071049
C35   C     C_R   0.461039 0.423154 0.929663 0.172535
C36   C     C_R   0.460692 0.423766 0.074269 0.159622
C37   C     C_R   0.538027 0.571534 0.069359 -0.053660
C38   C     C_R   0.537550 0.572707 0.926142 -0.041677
C39   C     C_R   0.880929 0.560319 0.428758 0.559227
C40   C     C_R   0.877135 0.358189 0.541466 0.606089
C41   C     C_R   0.937250 0.352802 0.540740 -0.114215
C42   C     C_R   0.968778 0.457572 0.484042 -0.055289
C43   C     C_R   0.940388 0.561488 0.427146 -0.011463
C44   C     C_2   0.483522 0.077681 0.013450 0.479248
C45   C     C_R   0.028968 0.459559 0.484935 -0.011373
C46   C     C_2   0.337135 0.193018 0.154152 0.482563
C47   C     C_R   0.060121 0.564738 0.430153 -0.009135
C48   C     C_R   0.031195 0.666596 0.373134 -0.136121
C49   C     C_R   0.971848 0.664865 0.371377 -0.116897
C50   C     C_R   0.117855 0.361837 0.542813 0.536850
H1    H     H_    0.670193 0.369824 0.328997 0.200622
H2    H     H_    0.422350 0.330747 0.757216 0.216682
H3    H     H_    0.567927 0.632703 0.870490 0.198833
H4    H     H_    0.054267 0.748133 0.330177 0.203567
H5    H     H_    0.950738 0.745298 0.327196 0.209308
H6    H     H_    0.215930 0.456586 0.277313 0.152451
H7    H     H_    0.320300 0.474120 0.279664 0.163237
H8    H     H_    0.317969 0.500541 0.716006 0.170167
H9    H     H_    0.213208 0.484207 0.710827 0.152128
H10   H     H_    0.510714 0.157406 0.040094 0.100749
H11   H     H_    0.337179 0.194227 0.263964 0.050436
H12   H     H_    0.793996 0.588295 0.661856 0.193080
H13   H     H_    0.548774 0.127304 0.307593 0.192900
H14   H     H_    0.418138 0.884571 0.917922 0.203308
H15   H     H_    0.421720 0.795866 0.695896 0.169350
H16   H     H_    0.569599 0.628502 0.121389 0.200345
H17   H     H_    0.049026 0.172765 0.637362 0.219081
H18   H     H_    0.420055 0.335376 0.251490 0.203577
H19   H     H_    0.350787 0.211640 0.879874 0.200021
N1    N     N_R   0.851018 0.460554 0.486241 -0.352446
N2    N     N_R   0.147141 0.465249 0.490462 -0.361135
N3    N     N_R   0.499460 0.498800 0.142780 -0.123864
N4    N     N_R   0.499440 0.498720 0.857170 -0.119374
O1    O     O_R   0.500000 0.316780 0.614690 -0.615447
O2    O     O_R   0.583850 0.500050 0.614640 -0.561219
O3    O     O_R   0.583840 0.500030 0.385310 -0.619836
O4    O     O_2   0.852873 0.658406 0.374155 -0.500161
O5    O     O_2   0.455244 0.024083 0.102864 -0.568596
O6    O     O_2   0.301689 0.126245 0.097311 -0.534598
O7    O     O_2   0.844533 0.263947 0.597583 -0.443514
O8    O     O_2   0.146660 0.264051 0.595388 -0.535158
O9    O     O_2   0.150329 0.666459 0.385061 -0.533553
O10   O     O_R   0.500000 0.316750 0.385360 -0.647464
O11   O     O_R   0.416160 0.499970 0.614690 -0.650463
O12   O     O_R   0.416150 0.499950 0.385360 -0.636756
O13   O     O_R   0.500000 0.683250 0.614640 -0.618108
O14   O     O_R   0.500000 0.683220 0.385310 -0.569386
Zn1   Zn    Zn3+2 0.500000 0.500020 0.653130 0.987080
Zn2   Zn    Zn3+2 0.500000 0.499980 0.346870 0.980235

loop_
_geom_bond_atom_site_label_1
_geom_bond_atom_site_label_2
_ccdc_geom_bond_type
C32   H19   S    
C22   C24   A    
C15   H12   S    
Br3   C18   S    
C14   C15   A    
C48   H4    S    
C5    H7    S    
C48   C49   A    
C38   N4    A    
C43   C49   A    
C21   C22   A    
C32   C33   A    
C44   H10   S    
C18   C24   A    
C31   C32   A    
C2    C47   A    
O1    Zn1   S    
C39   O4    S    
C36   N3    A    
C25   C26   A    
N4    Zn1   S    
C10   C11   A    
N3    Zn2   S    
C1    O10   A    
C13   C14   A    
C38   H3    S    
C10   C17   A    
C2    O9    S    
C42   C43   A    
C45   C47   A    
C18   C19   A    
C3    H6    S    
C34   C50   A    
C8    C9    A    
C23   H17   S    
C17   N1    S    
O12   Zn2   S    
C42   C45   A    
C22   C29   A    
C26   H13   S    
O10   Zn2   S    
C12   C41   A    
C4    O11   A    
C7    H8    S    
C49   H5    S    
C16   C29   S    
C23   C34   A    
C20   C21   A    
C40   C41   A    
C30   C31   A    
C27   C29   A    
C39   N1    A    
C40   O7    S    
C11   H1    S    
C24   C25   A    
O13   Zn1   S    
C33   H2    S    
C26   C27   A    
O14   Zn2   S    
C19   C20   A    
C4    C6    S    
Br4   C27   S    
C31   C46   S    
C50   N2    A    
C11   C13   A    
C35   C36   A    
C1    C25   S    
C15   C17   A    
C21   H15   S    
C35   N4    A    
C20   H14   S    
C37   C38   A    
C47   C48   A    
C16   O13   A    
C19   C44   S    
C41   C42   A    
C30   H18   S    
C3    C9    A    
Br2   C14   S    
C12   C23   A    
C4    O12   A    
C6    C7    A    
C28   O2    A    
C2    N2    A    
Br1   C12   S    
C40   N1    A    
C44   O5    D    
C50   O8    S    
C33   C35   A    
O3    Zn2   S    
C1    O1    A    
C8    H9    S    
C37   H16   S    
O11   Zn1   S    
C30   C36   A    
C13   C28   S    
Br5   C10   S    
C5    C6    A    
C34   C45   A    
C7    C8    A    
C37   N3    A    
C3    C5    A    
O2    Zn1   S    
C28   O3    A    
C46   O6    D    
C46   H11   S    
C39   C43   A    
C9    N2    S    
C16   O14   A    
