data_mof_unit_25688.cif
_audit_creation_date              2012-12-10T17:05:18-0500
_audit_creation_method            fapswitch 2.2
_symmetry_space_group_name_H-M    P1
_symmetry_Int_Tables_number       1
_space_group_crystal_system       triclinic
_cell_length_a                    10.150037
_cell_length_b                    10.674091
_cell_length_c                    15.342538
_cell_angle_alpha                 90.52307
_cell_angle_beta                  70.798523
_cell_angle_gamma                 90.764659
_cell_volume                      1569.61376265

loop_
_atom_site_label
_atom_site_type_symbol
_atom_type_description
_atom_site_fract_x
_atom_site_fract_y
_atom_site_fract_z
_atom_type_partial_charge
C1    C     C_R   0.501187 0.737011 0.500005 0.879598
C2    C     C_R   0.728865 0.405382 0.037393 -0.312342
C3    C     C_R   0.584550 0.401797 0.087862 -0.194971
C4    C     C_R   0.413826 0.496630 0.675538 0.874822
C5    C     C_R   0.824358 0.449892 0.079309 0.554655
C6    C     C_R   0.779247 0.484126 0.172860 0.349044
C7    C     C_R   0.538201 0.449848 0.178319 0.464230
C8    C     C_2   0.574291 0.067467 0.549184 0.581089
C9    C     C_2   0.479101 0.132992 0.527132 -0.442915
C10   C     C_2   0.561494 0.932426 0.553470 0.398265
C11   C     C_2   0.507597 0.869422 0.496661 0.246106
C12   C     C_R   0.435599 0.390005 0.901999 -0.008419
C13   C     C_2   0.100678 0.438226 0.442023 0.609087
C14   C     C_2   0.945540 0.415534 0.458746 0.541753
C15   C     C_R   0.495379 0.263404 0.506905 0.941757
C16   C     C_R   0.586131 0.499418 0.324255 0.933549
C17   C     C_R   0.366412 0.463329 0.774003 -0.384292
C18   C     C_R   0.635442 0.480521 0.223340 -0.354156
C19   C     C_R   0.200905 0.351334 0.901510 -0.144092
C20   C     C_R   0.230609 0.415279 0.817768 0.454017
C21   C     C_R   0.465192 0.459096 0.820054 0.471654
C22   C     C_3   0.968162 0.201818 0.432074 -0.168562
C23   C     C_R   0.299100 0.345687 0.946531 -0.017535
C24   C     C_3   0.372706 0.598391 0.198089 -0.197252
C25   C     C_3   0.979893 0.457559 0.209771 -0.101428
C26   C     C_3   0.071145 0.547711 0.796195 0.034608
C27   C     C_3   0.564598 0.649679 0.824360 -0.198803
C28   C     C_3   0.705636 0.202160 0.791598 -0.121557
C29   C     C_R   0.535746 0.373368 0.945379 -0.138246
C30   C     C_R   0.490158 0.364728 0.041947 0.053966
C31   C     C_R   0.353508 0.319738 0.087078 -0.092925
C32   C     C_R   0.261525 0.302167 0.037429 -0.207195
C33   C     C_R   0.678727 0.359449 0.896543 0.435626
C34   C     C_R   0.773204 0.370253 0.944074 0.589223
F1    F     F_    0.958975 0.471658 0.027942 -0.688502
F2    F     F_    0.682068 0.123461 0.569175 -0.647234
F3    F     F_    0.609221 0.871371 0.614585 -0.640422
F4    F     F_    0.470763 0.924888 0.428572 -0.690171
F5    F     F_    0.193875 0.387812 0.365460 -0.680820
F6    F     F_    0.056285 0.518222 0.583193 -0.547191
F7    F     F_    0.901167 0.613078 0.509415 -0.527325
F8    F     F_    0.906813 0.343767 0.898290 -0.633967
H1    H     H_    0.157682 0.265269 0.072279 0.151641
H2    H     H_    0.260606 0.618707 0.232639 0.194700
H3    H     H_    0.946739 0.357095 0.217638 0.138803
H4    H     H_    0.017676 0.481900 0.267857 0.186395
H5    H     H_    0.069334 0.472240 0.145707 0.199295
H6    H     H_    0.982285 0.553851 0.769506 0.230667
H7    H     H_    0.148769 0.621144 0.761314 0.098722
H8    H     H_    0.030193 0.568104 0.871425 0.170922
H9    H     H_    0.532273 0.648389 0.901099 0.115173
H10   H     H_    0.485535 0.698719 0.801568 0.158057
H11   H     H_    0.663560 0.704145 0.798725 0.218299
H12   H     H_    0.382274 0.089560 0.525907 0.183819
H13   H     H_    0.592457 0.179557 0.810391 0.133139
H14   H     H_    0.754481 0.143380 0.831986 0.140833
H15   H     H_    0.755502 0.177770 0.717736 0.243774
H16   H     H_    0.101095 0.307022 0.933231 0.262728
H17   H     H_    0.318858 0.294073 0.159192 0.212773
H18   H     H_    0.978477 0.195997 0.502043 0.174401
H19   H     H_    0.071155 0.192945 0.377406 0.191603
H20   H     H_    0.904705 0.119951 0.423965 0.228706
H21   H     H_    0.395023 0.608921 0.122462 0.136100
H22   H     H_    0.434119 0.668422 0.223382 0.161427
N1    N     N_2   0.148330 0.498670 0.499030 0.134673
N2    N     N_2   0.852680 0.498640 0.499000 0.155444
O1    O     O_R   0.386950 0.680940 0.500010 -0.598258
O2    O     O_3   0.398256 0.475204 0.220581 -0.539805
O3    O     O_3   0.870822 0.539638 0.212279 -0.574915
O4    O     O_3   0.127609 0.426003 0.777808 -0.504262
O5    O     O_3   0.588382 0.527594 0.787080 -0.522335
O6    O     O_3   0.727950 0.330980 0.803248 -0.521722
O7    O     O_R   0.613110 0.680900 0.499990 -0.548956
O8    O     O_R   0.322330 0.500030 0.632270 -0.563256
O9    O     O_R   0.548480 0.499990 0.632240 -0.529109
O10   O     O_R   0.386890 0.319100 0.500010 -0.610390
O11   O     O_R   0.613050 0.319060 0.499990 -0.532614
O12   O     O_R   0.451520 0.500010 0.367760 -0.541542
O13   O     O_R   0.677670 0.499970 0.367730 -0.576632
O14   O     O_3   0.900428 0.311886 0.420307 -0.635010
Zn1   Zn    Zn3+2 0.349000 0.500030 0.500020 1.126689
Zn2   Zn    Zn3+2 0.651000 0.499970 0.499980 1.177299

loop_
_geom_bond_atom_site_label_1
_geom_bond_atom_site_label_2
_ccdc_geom_bond_type
C6    O3    S    
C12   C29   A    
C3    C30   A    
C19   C20   A    
C34   F8    S    
C28   H14   S    
C13   N1    D    
C28   H15   S    
C12   C23   A    
C21   O5    S    
C10   F3    S    
C5    C6    A    
C3    C7    A    
C26   H8    S    
C22   H18   S    
C30   C31   A    
N2    Zn2   S    
C29   C33   A    
C17   C20   A    
C8    F2    S    
C31   H17   S    
C4    O9    A    
C33   O6    S    
C7    O2    S    
C8    C9    D    
C1    C11   S    
C14   O14   S    
C25   H5    S    
C4    O8    A    
C26   H6    S    
C2    C34   A    
C15   O10   A    
C24   H22   S    
C13   C14   S    
C20   O4    S    
C28   O6    S    
C28   H13   S    
C27   H9    S    
C19   H16   S    
C6    C18   A    
C26   H7    S    
C12   C21   A    
C17   C21   A    
C11   F4    S    
C19   C23   A    
C29   C30   A    
C22   H20   S    
N1    Zn1   S    
C31   C32   A    
C7    C18   A    
C33   C34   A    
C14   N2    D    
C4    C17   S    
C8    C10   S    
O1    Zn1   S    
C24   H21   S    
F6    N1    S    
C24   H2    S    
C2    C5    A    
C25   O3    S    
O8    Zn1   S    
C25   H3    S    
O7    Zn2   S    
C27   O5    S    
C27   H10   S    
O10   Zn1   S    
O13   Zn2   S    
C27   H11   S    
O9    Zn2   S    
F7    N2    S    
C16   O13   A    
C1    O7    A    
C23   C32   A    
C2    C3    A    
C9    C15   S    
C22   O14   S    
C22   H19   S    
O12   Zn1   S    
C15   O11   A    
O11   Zn2   S    
C26   O4    S    
C5    F1    S    
C1    O1    A    
C32   H1    S    
C16   O12   A    
C13   F5    S    
C10   C11   D    
C24   O2    S    
C16   C18   S    
C9    H12   S    
C25   H4    S    
