data_mof_unit_46466.cif
_audit_creation_date              2012-12-10T16:51:31-0500
_audit_creation_method            fapswitch 2.2
_symmetry_space_group_name_H-M    P1
_symmetry_Int_Tables_number       1
_space_group_crystal_system       triclinic
_cell_length_a                    7.828574
_cell_length_b                    8.570871
_cell_length_c                    12.125342
_cell_angle_alpha                 92.29286
_cell_angle_beta                  101.225832
_cell_angle_gamma                 94.196574
_cell_volume                      794.652111656

loop_
_atom_site_label
_atom_site_type_symbol
_atom_type_description
_atom_site_fract_x
_atom_site_fract_y
_atom_site_fract_z
_atom_type_partial_charge
C1    C     C_R   0.044701 0.794746 0.497389 0.969562
C2    C     C_R   0.159118 0.503821 0.831855 -0.120225
C3    C     C_2   0.068035 0.958519 0.496132 -0.393689
C4    C     C_R   0.106030 0.503632 0.710234 0.852163
C5    C     C_2   0.932452 0.041592 0.504872 -0.386863
C6    C     C_R   0.955466 0.205286 0.502961 0.956276
C7    C     C_R   0.892305 0.488224 0.289762 0.867771
C8    C     C_R   0.810481 0.287895 0.003517 -0.187355
C9    C     C_R   0.829588 0.456572 0.170328 -0.068936
C10   C     C_R   0.072933 0.594319 0.899380 -0.179471
C11   C     C_R   0.143822 0.624051 0.012928 -0.129339
C12   C     C_R   0.395795 0.483166 0.989945 0.080841
C13   C     C_R   0.305544 0.572024 0.057980 -0.200682
C14   C     C_R   0.310496 0.433110 0.879971 0.077947
C15   C     C_R   0.568258 0.442999 0.027082 0.080648
C16   C     C_R   0.641675 0.332665 0.963228 0.166654
C17   C     C_R   0.544191 0.266894 0.861504 -0.245349
C18   C     C_R   0.380429 0.316695 0.820006 -0.202551
C19   C     C_R   0.671005 0.512455 0.125436 -0.269788
C20   C     C_R   0.902887 0.346934 0.108709 -0.182622
H1    H     H_    0.026714 0.302316 0.143723 0.157298
H2    H     H_    0.076414 0.692484 0.065337 0.144900
H3    H     H_    0.308306 0.262003 0.741001 0.169698
H4    H     H_    0.195756 0.010127 0.487885 0.178245
H5    H     H_    0.804774 0.990005 0.513219 0.178888
H6    H     H_    0.469708 0.375244 0.416380 0.189035
H7    H     H_    0.530288 0.624722 0.583641 0.191105
H8    H     H_    0.595706 0.179160 0.813025 0.148284
H9    H     H_    0.867374 0.202800 0.956106 0.136474
H10   H     H_    0.626884 0.606080 0.172231 0.148804
H11   H     H_    0.953955 0.646393 0.863648 0.157303
H12   H     H_    0.354711 0.599620 0.146597 0.140654
N1    N     N_2   0.434800 0.456690 0.470850 -0.174697
N2    N     N_2   0.565200 0.543310 0.529150 -0.171041
O1    O     O_R   0.893060 0.738880 0.507150 -0.611091
O2    O     O_R   0.172250 0.711130 0.488470 -0.624708
O3    O     O_R   0.944700 0.520730 0.667600 -0.612382
O4    O     O_R   0.223890 0.492980 0.648920 -0.616688
O5    O     O_R   0.827750 0.288870 0.511530 -0.624151
O6    O     O_R   0.106940 0.261120 0.492850 -0.617386
O7    O     O_R   0.776110 0.507020 0.351080 -0.617655
O8    O     O_R   0.055300 0.479270 0.332400 -0.619380
Zn1   Zn    Zn3+2 0.813580 0.518530 0.512470 0.934865
Zn2   Zn    Zn3+2 0.186420 0.481470 0.487530 0.928633

loop_
_geom_bond_atom_site_label_1
_geom_bond_atom_site_label_2
_ccdc_geom_bond_type
O3    Zn1   S    
C2    C4    S    
O4    Zn2   S    
O1    Zn1   S    
C14   C18   A    
C13   H12   S    
C12   C15   A    
O6    Zn2   S    
C20   H1    S    
N1    N2    D    
C19   H10   S    
C8    C16   A    
C12   C13   A    
C15   C19   A    
O7    Zn1   S    
C3    H4    S    
C8    C20   A    
O8    Zn2   S    
C5    H5    S    
C8    H9    S    
C12   C14   A    
C17   C18   A    
C7    O7    A    
H7    N2    S    
C5    C6    S    
C2    C14   A    
C9    C20   A    
C6    O6    A    
O2    Zn2   S    
C10   C11   A    
C18   H3    S    
C2    C10   A    
C3    C5    D    
C11   C13   A    
C4    O3    A    
C1    O1    A    
C11   H2    S    
C7    O8    A    
C7    C9    S    
C6    O5    A    
O5    Zn1   S    
H6    N1    S    
C1    C3    S    
C17   H8    S    
C10   H11   S    
C9    C19   A    
N2    Zn1   S    
C15   C16   A    
C1    O2    A    
C4    O4    A    
C16   C17   A    
N1    Zn2   S    
