data_mof_unit_11850.cif
_audit_creation_date              2012-12-11T16:11:53-0500
_audit_creation_method            fapswitch 2.2
_symmetry_space_group_name_H-M    P1
_symmetry_Int_Tables_number       1
_space_group_crystal_system       triclinic
_cell_length_a                    6.938017
_cell_length_b                    14.345057
_cell_length_c                    15.76322
_cell_angle_alpha                 90.003476
_cell_angle_beta                  90.029391
_cell_angle_gamma                 90.105718
_cell_volume                      1568.85128403

loop_
_atom_site_label
_atom_site_type_symbol
_atom_type_description
_atom_site_fract_x
_atom_site_fract_y
_atom_site_fract_z
_atom_type_partial_charge
O1    O     O_R   0.638960 0.835150 0.161940 -0.541372
O2    O     O_R   0.361040 0.164850 0.838060 -0.541372
O3    O     O_R   0.309170 0.846340 0.337470 -0.549377
O4    O     O_R   0.690830 0.153660 0.662530 -0.549377
O5    O     O_R   0.138810 0.664830 0.338070 -0.540288
O6    O     O_R   0.861190 0.335170 0.661930 -0.540288
C1    C     C_R   0.478355 0.868617 0.366576 0.661177
C2    C     C_R   0.521645 0.131383 0.633424 0.661176
O7    O     O_R   0.309250 0.846350 0.162570 -0.528203
O8    O     O_R   0.690750 0.153650 0.837430 -0.528203
O9    O     O_R   0.138880 0.664840 0.161920 -0.522243
O10   O     O_R   0.861120 0.335160 0.838080 -0.522243
C3    C     C_R   0.478212 0.868203 0.133252 0.765632
C4    C     C_R   0.521788 0.131797 0.866748 0.765632
O11   O     O_R   0.638880 0.835150 0.338090 -0.545693
O12   O     O_R   0.361120 0.164850 0.661910 -0.545693
O13   O     O_3   0.472380 0.690440 0.250000 -0.361904
O14   O     O_3   0.527620 0.309560 0.750000 -0.361904
V1    V     V_3+5 0.197550 0.761040 0.250010 1.490317
V2    V     V_3+5 0.802450 0.238960 0.749990 1.490317
O15   O     O_R   0.809160 0.653640 0.162540 -0.540366
O16   O     O_R   0.190840 0.346360 0.837460 -0.540366
C5    C     C_R   0.977864 0.631676 0.133300 0.800861
C6    C     C_R   0.022136 0.368324 0.866699 0.800861
O17   O     O_R   0.809090 0.653640 0.337440 -0.544996
O18   O     O_R   0.190910 0.346360 0.662560 -0.544996
C7    C     C_R   0.977854 0.631312 0.366542 0.690423
C8    C     C_R   0.022146 0.368688 0.633458 0.690423
V3    V     V_3+5 0.697540 0.738950 0.250000 1.480043
V4    V     V_3+5 0.302460 0.261050 0.750000 1.480043
O19   O     O_3   0.972580 0.809550 0.250010 -0.375807
O20   O     O_3   0.027420 0.190450 0.749990 -0.375807
C9    C     C_3   0.077982 0.581206 0.524849 -0.136900
C10   C     C_3   0.922018 0.418793 0.475151 -0.136900
C11   C     C_3   0.904092 0.532373 0.567811 -0.120173
C12   C     C_3   0.095908 0.467627 0.432189 -0.120173
H1    H     H_    0.825210 0.558647 0.624182 0.162136
H2    H     H_    0.174790 0.441353 0.375818 0.162136
H3    H     H_    0.142238 0.648655 0.544858 0.114030
H4    H     H_    0.857762 0.351345 0.455142 0.114030
C13   C     C_3   0.011802 0.438837 0.562641 -0.016875
C14   C     C_3   0.988198 0.561163 0.437359 -0.016875
C15   C     C_3   0.185891 0.486857 0.520481 -0.123762
C16   C     C_3   0.814109 0.513143 0.479519 -0.123762
H5    H     H_    0.339265 0.475765 0.537777 0.117499
H6    H     H_    0.660735 0.524235 0.462223 0.117499
C17   C     C_3   0.912952 0.420173 0.023703 -0.187362
C18   C     C_3   0.087048 0.579827 0.976297 -0.187362
C19   C     C_3   0.086709 0.466342 0.068415 0.443559
C20   C     C_3   0.913291 0.533658 0.931585 0.443559
H7    H     H_    0.841619 0.354623 0.043707 0.218589
H8    H     H_    0.158381 0.645377 0.956293 0.218589
C21   C     C_3   0.988203 0.561784 0.062532 -0.156690
C22   C     C_3   0.011797 0.438215 0.937468 -0.156690
C23   C     C_3   0.813170 0.516855 0.017722 -0.203064
C24   C     C_3   0.186830 0.483145 0.982278 -0.203064
H9    H     H_    0.659401 0.531307 0.031914 0.169460
H10   H     H_    0.340599 0.468693 0.968086 0.169460
C25   C     C_3   0.678565 0.972502 0.479143 -0.114880
C26   C     C_3   0.321435 0.027498 0.520857 -0.114880
C27   C     C_3   0.603816 0.074091 0.474921 -0.136738
C28   C     C_3   0.396183 0.925909 0.525079 -0.136738
H11   H     H_    0.689759 0.135570 0.454762 0.109228
H12   H     H_    0.310241 0.864430 0.545238 0.109229
H13   H     H_    0.826206 0.949695 0.461731 0.113226
H14   H     H_    0.173794 0.050305 0.538269 0.113226
C29   C     C_3   0.510056 0.061271 0.562623 -0.009840
C30   C     C_3   0.489944 0.938729 0.437377 -0.009840
C31   C     C_3   0.584714 0.960500 0.567643 -0.135775
C32   C     C_3   0.415286 0.039500 0.432356 -0.135775
H15   H     H_    0.654700 0.928393 0.623814 0.121123
H16   H     H_    0.345300 0.071607 0.376186 0.121123
C33   C     C_3   0.675719 0.963328 0.013940 -0.177363
C34   C     C_3   0.324281 0.036672 0.986060 -0.177363
C35   C     C_3   0.563039 0.957728 0.928808 -0.203487
C36   C     C_3   0.436961 0.042272 0.071192 -0.203487
H17   H     H_    0.613560 0.922843 0.870042 0.168755
H18   H     H_    0.386440 0.077157 0.129958 0.168755
H19   H     H_    0.821156 0.933928 0.025867 0.191201
H20   H     H_    0.178844 0.066072 0.974133 0.191201
C37   C     C_3   0.510656 0.061766 0.937381 -0.155805
C38   C     C_3   0.489344 0.938234 0.062618 -0.155805
C39   C     C_3   0.621762 0.067311 0.021468 0.439583
C40   C     C_3   0.378238 0.932689 0.978532 0.439583
Cl1   Cl    Cl    0.787972 0.156172 0.050842 -0.680913
Cl2   Cl    Cl    0.212028 0.843828 0.949158 -0.680913
Cl3   Cl    Cl    0.203074 0.421005 0.160234 -0.646970
Cl4   Cl    Cl    0.796925 0.578995 0.839766 -0.646970

loop_
_geom_bond_atom_site_label_1
_geom_bond_atom_site_label_2
_ccdc_geom_bond_type
C27   C32   S    
O13   V3    S    
C19   Cl3   S    
C12   C14   S    
O4    C2    A    
V1    O19   S    
C17   C19   S    
O9    V1    S    
C9    H3    S    
C34   C36   S    
C10   H4    S    
C9    C14   S    
C11   H1    S    
C36   H18   S    
O3    C1    A    
C35   C40   S    
C6    C22   S    
C8    C13   S    
C26   C28   S    
C31   H15   S    
O7    C3    A    
C28   H12   S    
C9    C11   S    
C1    C30   S    
O5    C7    A    
O7    V1    S    
O6    C8    A    
C26   C29   S    
O8    V2    S    
O3    V1    S    
O14   V4    S    
C13   C15   S    
C10   C12   S    
C20   Cl4   S    
C18   C20   S    
C26   H14   S    
C2    O12   A    
C34   H20   S    
C33   C35   S    
C10   C13   S    
C14   C16   S    
O2    C4    A    
C36   C39   S    
C37   C39   S    
C16   H6    S    
O11   V3    S    
C21   C23   S    
O17   V3    S    
C18   C21   S    
C22   C24   S    
C25   C27   S    
C9    C15   S    
C10   C16   S    
O8    C4    A    
C36   C38   S    
C35   C37   S    
C17   H7    S    
C1    O11   A    
O15   V3    S    
C3    C38   S    
C28   C31   S    
C29   C31   S    
C25   C30   S    
C35   H17   S    
C27   C29   S    
C26   C32   S    
O10   V2    S    
O1    V3    S    
C33   H19   S    
C20   C22   S    
C11   C16   S    
C15   H5    S    
C25   C31   S    
C17   C22   S    
C39   Cl1   S    
O18   V4    S    
C38   C40   S    
C23   H9    S    
O16   C6    A    
O1    C3    A    
C34   C37   S    
C12   H2    S    
C33   C38   S    
C17   C23   S    
V2    O20   S    
C18   C24   S    
O16   V4    S    
C27   H11   S    
C34   C40   S    
O5    V1    S    
O17   C7    A    
C19   C24   S    
O6    V2    S    
O10   C6    A    
O18   C8    A    
C20   C23   S    
C28   C30   S    
O2    V4    S    
O15   C5    A    
V3    O19   S    
C25   H13   S    
V4    O20   S    
C7    C14   S    
C19   C21   S    
C5    C21   S    
O9    C5    A    
O13   V1    S    
C24   H10   S    
O14   V2    S    
C11   C13   S    
O4    V2    S    
C18   H8    S    
C2    C29   S    
C30   C32   S    
C40   Cl2   S    
C12   C15   S    
C32   H16   S    
C4    C37   S    
O12   V4    S    
C33   C39   S    
