data_mof_unit_33376.cif
_audit_creation_date              2012-12-10T18:15:14-0500
_audit_creation_method            fapswitch 2.2
_symmetry_space_group_name_H-M    P1
_symmetry_Int_Tables_number       1
_space_group_crystal_system       triclinic
_cell_length_a                    12.648522
_cell_length_b                    13.026705
_cell_length_c                    23.285629
_cell_angle_alpha                 91.903944
_cell_angle_beta                  102.86818
_cell_angle_gamma                 81.429186
_cell_volume                      3698.60908664

loop_
_atom_site_label
_atom_site_type_symbol
_atom_type_description
_atom_site_fract_x
_atom_site_fract_y
_atom_site_fract_z
_atom_type_partial_charge
C1    C     C_R   0.438842 0.690326 0.485663 0.858913
C2    C     C_R   0.703536 0.524302 0.055499 -0.142784
C3    C     C_R   0.699843 0.530617 0.995480 -0.139793
C4    C     C_R   0.615810 0.492752 0.954082 -0.015834
C5    C     C_R   0.535887 0.446692 0.973354 -0.017275
C6    C     C_R   0.452772 0.406135 0.932221 -0.020513
C7    C     C_R   0.372201 0.362345 0.951821 -0.140776
C8    C     C_R   0.372452 0.361281 0.011631 -0.142292
C9    C     C_R   0.608422 0.500954 0.893606 0.486037
C10   C     C_R   0.451534 0.412245 0.872284 0.501439
C11   C     C_R   0.437994 0.544419 0.759054 0.237418
C12   C     C_R   0.501490 0.499861 0.610300 0.874887
C13   C     C_R   0.431008 0.551815 0.698719 -0.221910
C14   C     C_R   0.508252 0.491581 0.672726 -0.104203
C15   C     C_R   0.591303 0.420945 0.705934 -0.185494
C16   C     C_R   0.597110 0.408148 0.765882 -0.015123
C17   C     C_R   0.520724 0.471243 0.792716 0.217601
C18   C     C_R   0.509868 0.552918 0.235249 -0.108280
C19   C     C_R   0.496689 0.568699 0.292736 -0.102235
C20   C     C_R   0.501906 0.481575 0.328027 -0.096341
C21   C     C_R   0.517488 0.379130 0.305272 0.103871
C22   C     C_R   0.536985 0.364755 0.247905 0.023992
C23   C     C_R   0.561746 0.308352 0.507680 0.873234
C24   C     C_R   0.530657 0.452961 0.212961 0.202101
C25   C     C_R   0.723736 0.060064 0.470849 -0.010247
C26   C     C_R   0.601578 0.197868 0.506031 -0.124893
C27   C     C_R   0.289844 0.844687 0.453084 -0.022336
C28   C     C_R   0.264427 0.952448 0.457035 -0.215736
C29   C     C_R   0.347505 0.014008 0.470426 -0.182482
C30   C     C_R   0.458077 0.969890 0.475556 0.098008
C31   C     C_R   0.481515 0.863682 0.464048 0.065033
C32   C     C_R   0.544679 0.030114 0.486815 0.070903
C33   C     C_R   0.644544 0.992568 0.469120 0.017478
C34   C     C_R   0.499555 0.496973 0.389824 0.840931
C35   C     C_R   0.661041 0.889234 0.450179 -0.218709
C36   C     C_R   0.581894 0.825631 0.448736 -0.127830
C37   C     C_R   0.534235 0.127160 0.514678 0.112138
C38   C     C_R   0.697977 0.163807 0.486743 -0.175012
C39   C     C_R   0.401611 0.799194 0.465502 -0.152657
C40   C     C_R   0.098732 0.329429 0.424101 0.091304
C41   C     C_R   0.803246 0.618477 0.576535 -0.080990
C42   C     C_R   0.912614 0.625429 0.601613 -0.062448
C43   C     C_R   0.993156 0.570578 0.575263 -0.078967
C44   C     C_R   0.964354 0.516018 0.521806 0.010790
C45   C     C_R   0.454175 0.405558 0.112900 0.567374
C46   C     C_R   0.854545 0.500277 0.503748 0.188152
C47   C     C_R   0.041651 0.470229 0.488669 -0.048187
C48   C     C_R   0.013519 0.390602 0.446603 0.053357
C49   C     C_R   0.902401 0.374476 0.430212 -0.039247
C50   C     C_R   0.826569 0.426691 0.460238 -0.209798
C51   C     C_R   0.145523 0.502494 0.494431 0.067488
C52   C     C_R   0.202624 0.359261 0.437122 0.010784
C53   C     C_R   0.620940 0.479320 0.134866 0.563938
C54   C     C_R   0.622079 0.481814 0.075057 -0.027635
C55   C     C_R   0.537955 0.442850 0.033860 -0.017937
C56   C     C_R   0.454560 0.402085 0.052919 -0.017135
H1    H     H_    0.769029 0.554665 0.086380 0.198785
H2    H     H_    0.751691 0.219126 0.482419 0.223530
H3    H     H_    0.734970 0.854878 0.437044 0.146738
H4    H     H_    0.323467 0.096968 0.471211 0.158348
H5    H     H_    0.179835 0.989530 0.448217 0.163907
H6    H     H_    0.762652 0.565554 0.981662 0.198316
H7    H     H_    0.598059 0.747684 0.432145 0.170185
H8    H     H_    0.269266 0.314506 0.420963 0.148697
H9    H     H_    0.738930 0.657501 0.596703 0.144120
H10   H     H_    0.077746 0.568370 0.597995 0.162589
H11   H     H_    0.745400 0.407845 0.448776 0.232431
H12   H     H_    0.307570 0.330689 0.920989 0.199863
H13   H     H_    0.307978 0.328847 0.025344 0.197930
H14   H     H_    0.367045 0.606438 0.672217 0.153872
H15   H     H_    0.649283 0.373749 0.684401 0.190621
H16   H     H_    0.502950 0.618766 0.206705 0.195218
N1    N     N_R   0.536911 0.443198 0.152400 -0.328836
N2    N     N_R   0.527263 0.460914 0.854349 -0.368645
N3    N     N_R   0.222200 0.444670 0.469780 -0.150084
N4    N     N_R   0.776960 0.554790 0.529910 -0.122338
O1    O     O_R   0.366740 0.627150 0.485570 -0.585234
O2    O     O_2   0.702189 0.513826 0.175265 -0.541493
O3    O     O_2   0.681259 0.548682 0.873961 -0.543446
O4    O     O_2   0.374645 0.371381 0.832064 -0.538671
O5    O     O_R   0.544830 0.662520 0.504870 -0.624185
O6    O     O_R   0.410930 0.482340 0.574190 -0.638896
O7    O     O_R   0.589010 0.517710 0.593490 -0.602307
O8    O     O_R   0.455170 0.337480 0.495130 -0.621533
O9    O     O_R   0.633260 0.372850 0.514430 -0.627451
O10   O     O_R   0.410990 0.482290 0.406510 -0.578162
O11   O     O_R   0.589070 0.517660 0.425810 -0.647896
O12   O     O_2   0.371129 0.373097 0.131664 -0.559767
Zn1   Zn    Zn3+2 0.381090 0.476380 0.487110 0.965194
Zn2   Zn    Zn3+2 0.618910 0.523620 0.512890 0.937201
C57   C     C_2   0.473626 0.676453 0.314697 0.456836
H17   H     H_    0.448970 0.690468 0.356276 0.045422
O13   O     O_2   0.481078 0.751211 0.286323 -0.547970
C58   C     C_3   0.513542 0.284978 0.341148 -0.878919
H18   H     H_    0.501768 0.303563 0.386027 0.242935
H19   H     H_    0.444020 0.245047 0.318576 0.233202
H20   H     H_    0.590631 0.229897 0.345755 0.272827
C59   C     C_2   0.565749 0.258200 0.225099 0.495404
H21   H     H_    0.541048 0.191546 0.242413 0.078545
O14   O     O_2   0.620064 0.243024 0.187557 -0.550961
C60   C     C_2   0.829642 0.028049 0.452683 0.468979
H22   H     H_    0.843970 0.958482 0.427248 0.054191
O15   O     O_2   0.903703 0.080707 0.465940 -0.569103
C61   C     C_3   0.467142 0.149917 0.561483 -0.849239
H23   H     H_    0.515437 0.186993 0.600256 0.241872
H24   H     H_    0.389954 0.202948 0.544804 0.251783
H25   H     H_    0.447352 0.077562 0.577825 0.247553
C62   C     C_2   0.198118 0.786641 0.428203 0.492530
H26   H     H_    0.115636 0.818069 0.432232 0.101432
O16   O     O_2   0.211502 0.708116 0.399006 -0.542507
C63   C     C_2   0.857835 0.317252 0.376400 0.445115
H27   H     H_    0.886039 0.325169 0.336365 0.097431
O17   O     O_2   0.786985 0.262958 0.375834 -0.596031
C64   C     C_3   0.087856 0.226973 0.392509 -0.897491
H28   H     H_    0.037195 0.181554 0.412124 0.289905
H29   H     H_    0.053710 0.239747 0.344763 0.247186
H30   H     H_    0.168832 0.177932 0.396530 0.228295
C65   C     C_2   0.169981 0.603454 0.520643 0.434419
H31   H     H_    0.247021 0.609614 0.550769 0.102965
O18   O     O_2   0.102290 0.681363 0.509444 -0.599363
C66   C     C_2   0.941237 0.687161 0.655797 0.445747
H32   H     H_    0.876876 0.727367 0.675766 0.066836
O19   O     O_2   0.036622 0.694155 0.678725 -0.556871
C67   C     C_3   0.356941 0.616189 0.785760 -0.771841
H33   H     H_    0.273001 0.597753 0.767607 0.269744
H34   H     H_    0.374025 0.610759 0.834426 0.233279
H35   H     H_    0.359765 0.697786 0.774538 0.237207
C68   C     C_2   0.681399 0.327797 0.799947 0.481195
H36   H     H_    0.682566 0.312449 0.845586 0.066625
O20   O     O_2   0.750640 0.277022 0.777325 -0.549833

loop_
_geom_bond_atom_site_label_1
_geom_bond_atom_site_label_2
_ccdc_geom_bond_type
C9    N2    A    
C55   C56   A    
C60   H22   S    
C22   C59   S    
C1    O1    A    
C41   C42   A    
C19   C20   A    
C52   N3    A    
C68   H36   S    
C8    C56   A    
C46   N4    A    
C64   H28   S    
C2    H1    S    
C7    C8    A    
C53   C54   A    
O1    Zn1   S    
C8    H13   S    
O6    Zn1   S    
C18   C24   A    
C35   H3    S    
C28   C29   A    
C51   N3    A    
C9    O3    S    
C5    C6    A    
C24   N1    S    
C13   H14   S    
C1    O5    A    
C15   C16   A    
C11   C13   A    
C51   C65   S    
C62   H26   S    
C45   N1    A    
C18   C19   A    
C34   O10   A    
C23   C26   S    
C65   H31   S    
C7    H12   S    
C38   H2    S    
C40   C64   S    
C63   H27   S    
C45   C56   A    
C27   C39   A    
C16   C17   A    
C36   H7    S    
C50   H11   S    
C44   C47   A    
C49   C63   S    
C20   C34   S    
C28   H5    S    
C60   O15   D    
C21   C22   A    
C61   H24   S    
C61   H23   S    
C44   C46   A    
C18   H16   S    
C23   O8    A    
C45   O12   S    
C2    C54   A    
C57   H17   S    
C10   O4    S    
C26   C38   A    
C47   C51   A    
C58   H20   S    
C40   C52   A    
C12   O7    A    
C35   C36   A    
C43   C44   A    
C29   C30   A    
C25   C38   A    
C57   O13   D    
C64   H29   S    
C47   C48   A    
C29   H4    S    
C12   O6    A    
C63   O17   D    
C32   C37   A    
C58   H19   S    
C16   C68   S    
C66   H32   S    
C67   H35   S    
O5    Zn2   S    
C48   C49   A    
C12   C14   S    
C49   C50   A    
C59   O14   D    
C52   H8    S    
C17   N2    S    
C22   C24   A    
O11   Zn2   S    
O8    Zn1   S    
C3    C4    A    
C67   H34   S    
C3    H6    S    
C40   C48   A    
O7    Zn2   S    
C54   C55   A    
C11   C17   A    
C31   C36   A    
C5    C55   A    
C53   N1    A    
C4    C5    A    
O10   Zn1   S    
C68   O20   D    
C6    C10   A    
C37   C61   S    
C41   H9    S    
O9    Zn2   S    
C26   C37   A    
C6    C7    A    
C15   H15   S    
C46   C50   A    
C32   C33   A    
C53   O2    S    
C23   O9    A    
C41   N4    A    
C30   C32   A    
C10   N2    A    
C25   C60   S    
C30   C31   A    
C27   C62   S    
C43   H10   S    
C33   C35   A    
C62   O16   D    
C2    C3    A    
C34   O11   A    
C58   H18   S    
C65   O18   D    
C66   O19   D    
C64   H30   S    
C19   C57   S    
C1    C39   S    
C21   C58   S    
C20   C21   A    
C59   H21   S    
C42   C43   A    
N3    Zn1   S    
N4    Zn2   S    
C27   C28   A    
C31   C39   A    
C14   C15   A    
C11   C67   S    
C4    C9    A    
C13   C14   A    
C61   H25   S    
C42   C66   S    
C25   C33   A    
C67   H33   S    
