data_mof_unit_52212.cif
_audit_creation_date              2012-12-10T18:31:49-0500
_audit_creation_method            fapswitch 2.2
_symmetry_space_group_name_H-M    P1
_symmetry_Int_Tables_number       1
_space_group_crystal_system       triclinic
_cell_length_a                    10.66462
_cell_length_b                    14.97844
_cell_length_c                    15.503819
_cell_angle_alpha                 81.899492
_cell_angle_beta                  90.142734
_cell_angle_gamma                 104.551385
_cell_volume                      2371.81087753

loop_
_atom_site_label
_atom_site_type_symbol
_atom_type_description
_atom_site_fract_x
_atom_site_fract_y
_atom_site_fract_z
_atom_type_partial_charge
C1    C     C_R   0.480810 0.441390 0.662112 0.912451
C2    C     C_3   0.121172 0.499719 0.498297 0.015296
C3    C     C_3   0.065843 0.491766 0.405869 0.281977
C4    C     C_3   0.104471 0.593268 0.524821 -0.461527
C5    C     C_R   0.478765 0.405075 0.754742 -0.035150
C6    C     C_R   0.562196 0.594583 0.245569 -0.198493
C7    C     C_R   0.427300 0.279773 0.876068 -0.166819
C8    C     C_R   0.430206 0.310228 0.786614 -0.211741
C9    C     C_R   0.530043 0.467719 0.811794 -0.151416
C10   C     C_R   0.533236 0.438295 0.900904 0.092680
C11   C     C_R   0.475021 0.343789 0.933700 0.171756
C12   C     C_R   0.742046 0.500605 0.501046 0.930095
C13   C     C_R   0.583916 0.502576 0.958475 0.066957
C14   C     C_R   0.552322 0.476213 0.048404 0.085401
C15   C     C_R   0.497007 0.380934 0.080213 -0.211400
C16   C     C_R   0.462139 0.315399 0.023450 -0.211480
C17   C     C_R   0.664457 0.592331 0.928977 -0.195863
C18   C     C_R   0.701756 0.657455 0.985501 -0.196118
C19   C     C_R   0.656567 0.636064 0.072002 0.100541
C20   C     C_R   0.578901 0.546095 0.103409 0.100535
C21   C     C_R   0.688402 0.703848 0.127366 -0.277280
C22   C     C_R   0.645179 0.683937 0.214820 0.383835
C23   C     C_R   0.524449 0.558934 0.337784 0.906145
C24   C     C_R   0.525952 0.529549 0.187918 -0.297790
C25   C     C_R   0.703976 0.844873 0.630231 -0.307714
C26   C     C_R   0.669285 0.755109 0.609465 0.031992
C27   C     C_R   0.508634 0.792314 0.514907 0.047723
C28   C     C_R   0.541631 0.885410 0.531033 0.000124
C29   C     C_R   0.640814 0.910571 0.590856 0.171607
C30   C     C_R   0.481058 0.953721 0.489623 0.088837
C31   C     C_R   0.518729 0.046196 0.510877 0.078848
C32   C     C_R   0.617222 0.067729 0.571530 -0.229740
C33   C     C_R   0.676973 0.001040 0.610438 -0.189524
C34   C     C_R   0.258064 0.500027 0.498330 0.884958
C35   C     C_R   0.385764 0.933010 0.426729 -0.206163
C36   C     C_R   0.328543 0.000321 0.386035 -0.196108
C37   C     C_R   0.362982 0.090345 0.406783 0.172956
C38   C     C_R   0.457561 0.114357 0.469864 0.001189
C39   C     C_R   0.303246 0.156886 0.364859 -0.305153
C40   C     C_R   0.336786 0.246412 0.386201 0.014758
C41   C     C_R   0.486078 0.206321 0.489065 -0.061525
C42   C     C_3   0.902839 0.423228 0.574424 0.278595
C43   C     C_3   0.044823 0.417656 0.565745 -0.441535
C44   C     C_3   0.918807 0.483316 0.411178 -0.530442
C45   C     C_3   0.963687 0.597638 0.518848 -0.357293
C46   C     C_3   0.878931 0.501501 0.502532 -0.020620
H1    H     H_    0.839148 0.355113 0.562604 0.065353
H2    H     H_    0.164911 0.654410 0.481237 0.174757
H3    H     H_    0.894044 0.534577 0.358906 0.182654
H4    H     H_    0.112274 0.557376 0.362117 0.143660
H5    H     H_    0.419906 0.243061 0.049832 0.152515
H6    H     H_    0.454930 0.465137 0.210240 0.181642
H7    H     H_    0.763710 0.725534 0.960847 0.151913
H8    H     H_    0.385090 0.206879 0.900315 0.142864
H9    H     H_    0.391591 0.260373 0.742919 0.160028
H10   H     H_    0.562752 0.540657 0.785948 0.154160
H11   H     H_    0.483362 0.354787 0.148975 0.153843
H12   H     H_    0.703550 0.612871 0.862930 0.163526
H13   H     H_    0.749351 0.772063 0.102262 0.189410
H14   H     H_    0.752741 0.020685 0.656056 0.151818
H15   H     H_    0.553863 0.231243 0.537052 0.123680
H16   H     H_    0.291304 0.298736 0.354661 0.166490
H17   H     H_    0.256388 0.981588 0.337874 0.160394
H18   H     H_    0.780208 0.863034 0.675822 0.149408
H19   H     H_    0.718364 0.703707 0.638292 0.148555
H20   H     H_    0.433048 0.765406 0.472460 0.132904
H21   H     H_    0.093807 0.418515 0.629057 0.217326
H22   H     H_    0.652411 0.136065 0.589854 0.137154
H23   H     H_    0.353622 0.865494 0.406223 0.145652
H24   H     H_    0.231207 0.139750 0.316325 0.160307
H25   H     H_    0.046588 0.349612 0.545741 0.148235
H26   H     H_    0.863441 0.412896 0.399029 0.203452
H27   H     H_    0.954662 0.652401 0.464305 0.205417
H28   H     H_    0.932876 0.618598 0.579792 0.239569
H29   H     H_    0.136517 0.599545 0.592606 0.239172
N1    N     N_R   0.573860 0.731700 0.552730 -0.096762
N2    N     N_R   0.426060 0.268290 0.447230 -0.104961
O1    O     O_R   0.462770 0.383110 0.605620 -0.632617
O2    O     O_R   0.510160 0.531900 0.639510 -0.615169
O3    O     O_R   0.661510 0.425600 0.483070 -0.649839
O4    O     O_R   0.708900 0.574390 0.516960 -0.582129
O5    O     O_R   0.489840 0.468100 0.360490 -0.624061
O6    O     O_R   0.537230 0.616890 0.394380 -0.531613
O7    O     O_R   0.291100 0.425610 0.483040 -0.590608
O8    O     O_R   0.338490 0.574400 0.516930 -0.654201
Zn1   Zn    Zn3+2 0.468350 0.400660 0.477370 0.952402
Zn2   Zn    Zn3+2 0.531650 0.599340 0.522630 1.017840
S1    S     S_3+6 0.699302 0.772701 0.281100 0.028771
O9    O     O_2   0.771681 0.737594 0.356318 -0.277661
O10   O     O_2   0.788093 0.857790 0.230034 -0.302827
O11   O     O_3   0.570844 0.802777 0.319455 -0.551067
H30   H     H_    0.526367 0.822965 0.266905 0.341542
S2    S     S_3+6 0.864730 0.437425 0.685079 -0.003786
O12   O     O_2   0.983210 0.488452 0.727271 -0.273424
O13   O     O_2   0.764078 0.491309 0.687007 -0.360402
O14   O     O_3   0.808404 0.331434 0.743790 -0.519114
H31   H     H_    0.722848 0.305902 0.719680 0.341373
O15   O     O_3   0.093705 0.418239 0.368264 -0.757089
H32   H     H_    0.044273 0.358302 0.401447 0.341186

loop_
_geom_bond_atom_site_label_1
_geom_bond_atom_site_label_2
_ccdc_geom_bond_type
C44   H3    S    
C24   H6    S    
O6    Zn2   S    
S2    O12   D    
C23   O5    A    
C42   S2    S    
C19   C20   A    
C16   H5    S    
C41   H15   S    
O2    Zn2   S    
C7    C8    A    
C45   C46   S    
C7    C11   A    
C23   O6    A    
C30   C35   A    
C1    C5    S    
C36   C37   A    
C19   C21   A    
O7    Zn1   S    
C21   H13   S    
C41   N2    A    
C30   C31   A    
C15   C16   A    
C6    C22   A    
C29   C33   A    
C40   H16   S    
C45   H27   S    
C18   C19   A    
C42   C46   S    
C4    H29   S    
O3    Zn1   S    
C18   H7    S    
C20   C24   A    
C26   N1    A    
C22   S1    S    
C36   H17   S    
C9    C10   A    
C17   H12   S    
C32   H22   S    
O1    Zn1   S    
S2    O13   D    
C21   C22   A    
C1    O1    A    
C15   H11   S    
C34   O7    A    
C8    H9    S    
C3    H4    S    
C44   C46   S    
C4    C45   S    
O8    Zn2   S    
C25   C29   A    
C3    C44   S    
C14   C20   A    
C38   C41   A    
C12   C46   S    
O11   H30   S    
C25   C26   A    
O5    Zn1   S    
C45   H28   S    
C34   O8    A    
C2    C4    S    
C5    C9    A    
C37   C38   A    
C11   C16   A    
C31   C32   A    
S1    O11   S    
C2    C43   S    
C6    C24   A    
O14   H31   S    
C17   C18   A    
C9    H10   S    
N1    Zn2   S    
O4    Zn2   S    
S1    O10   D    
N2    Zn1   S    
S2    O14   S    
C1    O2    A    
C42   C43   S    
C27   N1    A    
C39   C40   A    
C4    H2    S    
C28   C29   A    
C43   H25   S    
C14   C15   A    
C26   H19   S    
C10   C13   A    
C5    C8    A    
C33   H14   S    
C31   C38   A    
C13   C17   A    
C32   C33   A    
C28   C30   A    
C2    C3    S    
C37   C39   A    
C27   H20   S    
C3    O15   S    
C2    C34   S    
C6    C23   S    
C12   O3    A    
C39   H24   S    
C12   O4    A    
C44   H26   S    
C42   H1    S    
C10   C11   A    
S1    O9    D    
C35   H23   S    
C43   H21   S    
O15   H32   S    
C27   C28   A    
C40   N2    A    
C35   C36   A    
C7    H8    S    
C13   C14   A    
C25   H18   S    
