data_mof_unit_22528.cif
_audit_creation_date              2012-12-11T16:35:23-0500
_audit_creation_method            fapswitch 2.2
_symmetry_space_group_name_H-M    P1
_symmetry_Int_Tables_number       1
_space_group_crystal_system       triclinic
_cell_length_a                    6.927841
_cell_length_b                    17.691184
_cell_length_c                    19.515666
_cell_angle_alpha                 109.024433
_cell_angle_beta                  90.294962
_cell_angle_gamma                 90.870531
_cell_volume                      2260.83837373

loop_
_atom_site_label
_atom_site_type_symbol
_atom_type_description
_atom_site_fract_x
_atom_site_fract_y
_atom_site_fract_z
_atom_type_partial_charge
O1    O     O_R   0.505700 0.440210 0.561730 -0.552612
O2    O     O_R   0.169350 0.406300 0.412660 -0.531127
O3    O     O_R   0.005650 0.559790 0.438270 -0.500285
C1    C     C_R   0.337507 0.383933 0.384344 0.691939
O4    O     O_R   0.175560 0.430650 0.559600 -0.548266
O5    O     O_R   0.011900 0.584320 0.586250 -0.514788
C2    C     C_R   0.344199 0.415783 0.581255 0.672061
O6    O     O_R   0.499450 0.415680 0.413750 -0.538505
O7    O     O_3   0.341370 0.550390 0.508570 -0.333594
V1    V     V_3+5 0.063940 0.490650 0.498410 1.551992
O8    O     O_R   0.682570 0.593700 0.587340 -0.544933
C3    C     C_R   0.855024 0.620653 0.611948 0.753856
O9    O     O_R   0.676370 0.569350 0.440400 -0.543315
C4    C     C_R   0.845327 0.583011 0.418171 0.855418
V2    V     V_3+5 0.564750 0.509350 0.501590 1.525647
O10   O     O_3   0.837190 0.449610 0.491430 -0.381605
C5    C     C_R   0.871559 0.631641 0.242538 0.444917
C6    C     C_R   0.871389 0.587890 0.291498 0.261468
C7    C     C_R   0.856884 0.628042 0.366537 -0.170475
C8    C     C_R   0.857040 0.711685 0.392231 -0.165359
H1    H     H_    0.844240 0.743669 0.449566 0.181873
C9    C     C_R   0.877847 0.755147 0.344422 -0.056222
C10   C     C_R   0.881472 0.716273 0.269096 0.057130
C11   C     C_R   0.751866 0.823238 0.222868 0.396397
C12   C     C_R   0.767284 0.872962 0.179592 0.359321
C13   C     C_R   0.917157 0.862946 0.128404 -0.341402
C14   C     C_R   0.057689 0.804060 0.124641 0.316631
C15   C     C_R   0.049077 0.758051 0.171671 0.442446
C16   C     C_R   0.893041 0.765587 0.219668 -0.170826
C17   C     C_R   0.987508 0.909529 0.752716 -0.152417
C18   C     C_R   0.041450 0.925741 0.690725 -0.150547
C19   C     C_R   0.064217 0.863686 0.626691 -0.091283
C20   C     C_R   0.025545 0.784663 0.622785 0.318167
C21   C     C_R   0.949096 0.766289 0.683814 0.003584
C22   C     C_R   0.945764 0.830417 0.751201 0.031381
C23   C     C_R   0.875582 0.688811 0.681248 -0.158683
C24   C     C_R   0.822668 0.675562 0.746941 0.062310
C25   C     C_R   0.839094 0.738620 0.814380 0.055882
C26   C     C_R   0.901725 0.815645 0.816319 -0.144405
C27   C     C_R   0.758489 0.599136 0.747268 -0.153657
C28   C     C_R   0.711143 0.585737 0.811711 -0.125007
C29   C     C_R   0.727784 0.647449 0.877357 -0.050837
C30   C     C_R   0.791515 0.723059 0.879020 -0.103428
H2    H     H_    0.073795 0.986480 0.693013 0.199361
H3    H     H_    0.119526 0.877127 0.580035 0.186089
H4    H     H_    0.803051 0.769053 0.931507 0.111685
H5    H     H_    0.484598 0.483453 0.182775 0.185948
C31   C     C_R   0.245234 0.220412 0.375524 -0.270389
C32   C     C_R   0.195936 0.142959 0.373321 0.393995
C33   C     C_R   0.210686 0.079587 0.308418 0.436157
C34   C     C_R   0.280008 0.093712 0.246578 -0.214049
C35   C     C_R   0.336816 0.171256 0.247776 0.008325
C36   C     C_R   0.311211 0.236388 0.313083 0.010353
C37   C     C_R   0.416092 0.184542 0.185240 -0.122624
C38   C     C_R   0.446251 0.264420 0.186265 0.050112
C39   C     C_R   0.408871 0.329850 0.250427 0.068198
C40   C     C_R   0.349518 0.315837 0.314848 -0.112339
C41   C     C_R   0.503565 0.280902 0.123027 -0.139370
C42   C     C_R   0.517453 0.359245 0.122166 -0.024075
C43   C     C_R   0.475627 0.422753 0.183986 0.025441
C44   C     C_R   0.424925 0.408649 0.247822 -0.067485
H6    H     H_    0.229250 0.267846 0.426650 0.153484
H7    H     H_    0.534022 0.233565 0.073132 0.134124
H8    H     H_    0.394222 0.460082 0.294547 0.121472
C45   C     C_R   0.528843 0.279691 0.682038 -0.105841
C46   C     C_R   0.520341 0.325098 0.635228 -0.147745
H9    H     H_    0.644077 0.326296 0.601870 0.142562
C47   C     C_R   0.353075 0.367385 0.630714 -0.047937
C48   C     C_R   0.196088 0.364513 0.675236 -0.149394
C49   C     C_R   0.206415 0.320589 0.723263 -0.046332
H10   H     H_    0.085633 0.321890 0.758588 0.147211
C50   C     C_R   0.371397 0.276262 0.726246 0.136238
C51   C     C_R   0.233087 0.174708 0.780827 0.433929
C52   C     C_R   0.250667 0.130463 0.828380 -0.206355
H11   H     H_    0.134011 0.089848 0.830249 0.175105
C53   C     C_R   0.416819 0.136455 0.871831 -0.194428
C54   C     C_R   0.566493 0.190128 0.867457 0.405998
C55   C     C_R   0.548044 0.234862 0.820216 -0.180589
H12   H     H_    0.663493 0.276150 0.818353 0.174462
C56   C     C_R   0.382609 0.228058 0.776387 -0.064308
O11   O     O_R   0.273230 0.084330 0.086440 -0.547052
O12   O     O_R   0.596660 0.069390 0.940470 -0.516317
O13   O     O_R   0.760270 0.915710 0.913690 -0.546733
C57   C     C_R   0.427912 0.086035 0.920128 0.735996
O14   O     O_R   0.603330 0.093680 0.087390 -0.526713
O15   O     O_R   0.766990 0.940160 0.061660 -0.515640
C58   C     C_R   0.434265 0.116133 0.115890 0.711326
O16   O     O_R   0.266510 0.059870 0.938470 -0.546161
O17   O     O_3   0.431050 0.949630 0.991510 -0.351576
V3    V     V_3+5 0.708490 0.009340 0.001580 1.581088
O18   O     O_R   0.096270 0.930570 0.059390 -0.512277
C59   C     C_R   0.927388 0.914389 0.080438 0.830899
O19   O     O_R   0.089600 0.906290 0.912460 -0.539451
C60   C     C_R   0.918377 0.881982 0.886244 0.670965
V4    V     V_3+5 0.207670 0.990600 0.998190 1.564606
O20   O     O_3   0.935250 0.050360 0.008480 -0.363060
Cl1   Cl    Cl    0.848161 0.579950 0.148580 -0.514719
H13   H     H_    0.977566 0.960087 0.801894 0.120300
Cl2   Cl    Cl    0.114562 0.715274 0.544005 -0.677115
H14   H     H_    0.745954 0.548441 0.698066 0.101846
H15   H     H_    0.662453 0.526922 0.810684 0.129791
Cl3   Cl    Cl    0.112609 0.127400 0.452790 -0.493071
Cl4   Cl    Cl    0.896092 0.482989 0.259127 -0.641732
Cl5   Cl    Cl    0.143882 0.981434 0.303031 -0.487923
H16   H     H_    0.286845 0.043069 0.197519 0.195321
H17   H     H_    0.559012 0.370679 0.072999 0.169897
H18   H     H_    0.658416 0.246667 0.683313 0.177428
H19   H     H_    0.066580 0.397655 0.674082 0.113102
Cl6   Cl    Cl    0.025492 0.157246 0.724833 -0.656155
Cl7   Cl    Cl    0.776933 0.206899 0.921904 -0.641906
H20   H     H_    0.886221 0.819812 0.366262 0.204811
Cl8   Cl    Cl    0.552281 0.834122 0.281542 -0.438548
Cl9   Cl    Cl    0.603902 0.952028 0.195168 -0.539446
Cl10  Cl    Cl    0.244337 0.784267 0.059780 -0.535322
Cl11  Cl    Cl    0.240735 0.693025 0.172088 -0.448117
H21   H     H_    0.691682 0.636661 0.927322 0.165827

loop_
_geom_bond_atom_site_label_1
_geom_bond_atom_site_label_2
_ccdc_geom_bond_type
C46   C47   A    
C38   C39   A    
C28   C29   A    
C33   Cl5   S    
O19   C60   A    
C19   H3    S    
O2    C1    A    
C7    C8    A    
C11   Cl8   S    
C1    O6    A    
C53   C57   S    
C54   C55   A    
C15   C16   A    
C13   C14   A    
C5    C10   A    
C52   C53   A    
C17   C22   A    
C10   C16   S    
C23   C24   A    
C6    C7    A    
C24   C27   A    
O5    C3    A    
C17   C18   A    
O11   V4    S    
C55   C56   A    
C13   C59   S    
V2    O10   S    
C39   C40   A    
C21   C22   A    
C51   C52   A    
C11   C16   A    
C2    C47   S    
O8    V2    S    
V4    O20   S    
C47   C48   A    
C1    C40   S    
C9    H20   S    
C49   H10   S    
O1    V2    S    
C3    C23   S    
O7    V1    S    
C46   H9    S    
H5    C43   S    
O16   V4    S    
C42   C43   A    
O19   V4    S    
O9    C4    A    
C54   Cl7   S    
C48   H19   S    
C35   C37   A    
C5    C6    A    
O14   C58   A    
C31   C36   A    
C42   H17   S    
C18   H2    S    
C34   C35   A    
C11   C12   A    
C52   H11   S    
C32   Cl3   S    
O4    C2    A    
C36   C40   A    
C55   H12   S    
C33   C34   A    
C12   C13   A    
O13   C60   A    
C43   C44   A    
C20   Cl2   S    
O17   V4    S    
C44   H8    S    
C22   C26   A    
C26   C60   S    
C27   H14   S    
C24   C25   A    
C15   Cl11  S    
C12   Cl9   S    
C31   H6    S    
C18   C19   A    
C34   H16   S    
C20   C21   A    
C53   C54   A    
V3    O20   S    
O11   C58   A    
O3    C4    A    
C37   C58   S    
C29   H21   S    
C27   C28   A    
C8    C9    A    
C45   C46   A    
O6    V2    S    
O12   C57   A    
O9    V2    S    
O15   V3    S    
C29   C30   A    
O2    V1    S    
O18   C59   A    
C35   C36   A    
C41   H7    S    
O13   V3    S    
C37   C38   A    
C31   C32   A    
O1    C2    A    
C4    C7    S    
C9    C10   A    
C57   O16   A    
O5    V1    S    
C49   C50   A    
O14   V3    S    
C51   Cl6   S    
C45   C50   A    
C17   H13   S    
O12   V3    S    
C19   C20   A    
C41   C42   A    
O4    V1    S    
C50   C56   S    
O3    V1    S    
O15   C59   A    
C25   C26   A    
C51   C56   A    
C28   H15   S    
C21   C23   A    
C6    Cl4   S    
O7    V2    S    
C48   C49   A    
C30   H4    S    
O18   V4    S    
C14   Cl10  S    
C25   C30   A    
C8    H1    S    
C32   C33   A    
C38   C41   A    
C14   C15   A    
C39   C44   A    
V1    O10   S    
O17   V3    S    
C5    Cl1   S    
C45   H18   S    
O8    C3    A    
