data_mof_unit_23761.cif
_audit_creation_date              2012-12-11T16:51:21-0500
_audit_creation_method            fapswitch 2.2
_symmetry_space_group_name_H-M    P1
_symmetry_Int_Tables_number       1
_space_group_crystal_system       triclinic
_cell_length_a                    24.107072
_cell_length_b                    17.286718
_cell_length_c                    15.601836
_cell_angle_alpha                 89.998034
_cell_angle_beta                  127.008302
_cell_angle_gamma                 90.00136
_cell_volume                      5191.99075169

loop_
_atom_site_label
_atom_site_type_symbol
_atom_type_description
_atom_site_fract_x
_atom_site_fract_y
_atom_site_fract_z
_atom_type_partial_charge
C1    C     C_R   0.836847 0.885532 0.207132 -0.161632
C2    C     C_R   0.184562 0.113805 0.495017 0.001741
C3    C     C_2   0.627778 0.109970 0.217940 1.048422
C4    C     C_R   0.028787 0.890530 0.834791 0.079168
C5    C     C_R   0.020142 0.824459 0.877687 -0.211877
C6    C     C_R   0.966639 0.821621 0.888468 -0.104733
C7    C     C_R   0.925068 0.885974 0.865580 -0.085701
C8    C     C_R   0.934723 0.952743 0.826613 -0.081323
C9    C     C_R   0.985193 0.954405 0.809248 -0.105980
C10   C     C_R   0.971212 0.890543 0.165204 0.079137
C11   C     C_R   0.979852 0.824470 0.122303 -0.211874
C12   C     C_R   0.033356 0.821626 0.111526 -0.104716
C13   C     C_R   0.315439 0.613802 0.504983 0.001720
C14   C     C_R   0.074935 0.885974 0.134422 -0.085733
C15   C     C_R   0.065286 0.952743 0.173396 -0.081285
C16   C     C_R   0.014815 0.954411 0.190758 -0.105965
C17   C     C_R   0.528787 0.390531 0.834791 0.079169
C18   C     C_R   0.520141 0.324459 0.877686 -0.211880
C19   C     C_R   0.466638 0.321622 0.888466 -0.104727
C20   C     C_R   0.425068 0.385976 0.865579 -0.085701
C21   C     C_R   0.434724 0.452744 0.826614 -0.081326
C22   C     C_R   0.485193 0.454406 0.809249 -0.105979
C23   C     C_R   0.471211 0.390536 0.165203 0.079122
C24   C     C_R   0.684562 0.613808 0.495019 0.001744
C25   C     C_R   0.479848 0.324462 0.122303 -0.211868
C26   C     C_R   0.533350 0.321614 0.111523 -0.104720
C27   C     C_R   0.574931 0.385959 0.134419 -0.085748
C28   C     C_R   0.565286 0.452730 0.173393 -0.081268
C29   C     C_R   0.514815 0.454403 0.190756 -0.105956
C30   C     C_2   0.919022 0.155761 0.687408 0.945784
C31   C     C_2   0.080973 0.155751 0.312573 0.945674
C32   C     C_2   0.419021 0.655761 0.687407 0.945785
C33   C     C_2   0.580974 0.655740 0.312565 0.945660
C34   C     C_R   0.857306 0.138280 0.151093 0.147446
C35   C     C_R   0.142687 0.138294 0.848890 0.147472
C36   C     C_R   0.357305 0.638279 0.151092 0.147447
C37   C     C_R   0.642687 0.638295 0.848889 0.147474
C38   C     C_R   0.855160 0.694516 0.586903 0.187460
C39   C     C_R   0.144844 0.694520 0.413096 0.187465
C40   C     C_R   0.355159 0.194516 0.586902 0.187461
C41   C     C_R   0.163151 0.885516 0.792861 -0.161615
C42   C     C_R   0.644844 0.194518 0.413099 0.187463
C43   C     C_R   0.835365 0.732013 0.492982 0.036570
C44   C     C_R   0.164640 0.732016 0.507018 0.036560
C45   C     C_R   0.335364 0.232014 0.492981 0.036567
C46   C     C_R   0.664641 0.232015 0.507020 0.036561
C47   C     C_R   0.779916 0.698358 0.395881 -0.182573
C48   C     C_R   0.220088 0.698356 0.604120 -0.182559
C49   C     C_R   0.279915 0.198358 0.395880 -0.182572
C50   C     C_R   0.720089 0.198357 0.604123 -0.182560
C51   C     C_R   0.234965 0.146828 0.396290 -0.178429
C52   C     C_R   0.336847 0.385530 0.207134 -0.161632
C53   C     C_R   0.765036 0.146822 0.603712 -0.178418
C54   C     C_R   0.734965 0.646829 0.396290 -0.178427
C55   C     C_R   0.265035 0.646821 0.603710 -0.178417
C56   C     C_R   0.243625 0.132455 0.492878 0.009531
C57   C     C_R   0.756376 0.132449 0.507124 0.009524
C58   C     C_R   0.743625 0.632457 0.492879 0.009537
C59   C     C_R   0.256375 0.632449 0.507122 0.009524
C60   C     C_R   0.310068 0.145236 0.587516 0.139743
C61   C     C_R   0.689933 0.145233 0.412485 0.139731
C62   C     C_R   0.810069 0.645237 0.587517 0.139740
C63   C     C_R   0.663151 0.385516 0.792861 -0.161615
C64   C     C_R   0.189933 0.645235 0.412482 0.139729
C65   C     C_3   0.834678 0.671564 0.696560 -0.326265
C66   C     C_3   0.165327 0.671565 0.303442 -0.326270
C67   C     C_3   0.334677 0.171563 0.696559 -0.326264
C68   C     C_3   0.665326 0.171561 0.303443 -0.326271
C69   C     C_R   0.086051 0.851120 0.414407 -0.142010
C70   C     C_R   0.913954 0.851119 0.585592 -0.142013
C71   C     C_R   0.586051 0.351119 0.414407 -0.142014
C72   C     C_R   0.413953 0.351119 0.585592 -0.142012
C73   C     C_3   0.883040 0.725136 0.694240 -0.622444
C74   C     C_R   0.884835 0.105366 0.592470 -0.066439
C75   C     C_3   0.116968 0.725143 0.305761 -0.622440
C76   C     C_3   0.383039 0.225136 0.694239 -0.622448
C77   C     C_3   0.616966 0.225139 0.305762 -0.622437
C78   C     C_2   0.172525 0.799290 0.928471 -0.211323
C79   C     C_2   0.827459 0.799338 0.071491 -0.211331
C80   C     C_2   0.672525 0.299290 0.928471 -0.211323
C81   C     C_2   0.327458 0.299336 0.071493 -0.211333
C82   C     C_2   0.209977 0.746590 0.921251 -0.101737
C83   C     C_2   0.790001 0.746638 0.078696 -0.101732
C84   C     C_2   0.709977 0.246591 0.921252 -0.101737
C85   C     C_R   0.115167 0.105363 0.407531 -0.066452
C86   C     C_2   0.290001 0.246635 0.078699 -0.101733
C87   C     C_2   0.813431 0.175036 0.046500 -0.203532
C88   C     C_2   0.186558 0.175066 0.953469 -0.203559
C89   C     C_2   0.313431 0.675034 0.046499 -0.203531
C90   C     C_2   0.686558 0.675068 0.953467 -0.203561
C91   C     C_2   0.747278 0.189673 0.004084 -0.111617
C92   C     C_2   0.252696 0.189733 0.995854 -0.111609
C93   C     C_2   0.247278 0.689673 0.004083 -0.111618
C94   C     C_2   0.752696 0.689736 0.995850 -0.111608
C95   C     C_R   0.163028 0.857113 0.591934 -0.098201
C96   C     C_R   0.384835 0.605366 0.592469 -0.066439
C97   C     C_R   0.836974 0.857113 0.408065 -0.098199
C98   C     C_R   0.663029 0.357113 0.591935 -0.098199
C99   C     C_R   0.336974 0.357113 0.408065 -0.098201
C100  C     C_R   0.071626 0.887672 0.795461 0.006091
C101  C     C_R   0.928371 0.887685 0.204532 0.006106
C102  C     C_R   0.571626 0.387672 0.795461 0.006092
C103  C     C_R   0.428370 0.387683 0.204533 0.006109
C104  C     C_R   0.861874 0.858418 0.153194 0.112847
C105  C     C_R   0.138120 0.858390 0.846791 0.112835
C106  C     C_R   0.361874 0.358416 0.153196 0.112848
C107  C     C_R   0.615167 0.605364 0.407532 -0.066422
C108  C     C_R   0.638120 0.358391 0.846791 0.112835
C109  C     C_R   0.138210 0.809833 0.504572 0.060337
C110  C     C_R   0.861795 0.809832 0.495427 0.060339
C111  C     C_R   0.638210 0.309833 0.504573 0.060338
C112  C     C_R   0.361794 0.309832 0.495427 0.060339
C113  C     C_R   0.811038 0.096067 0.414268 -0.121837
C114  C     C_R   0.188962 0.096070 0.585733 -0.121827
C115  C     C_R   0.311038 0.596067 0.414268 -0.121837
C116  C     C_R   0.688962 0.596072 0.585734 -0.121838
C117  C     C_R   0.925048 0.113249 0.203522 -0.139465
C118  C     C_R   0.815439 0.113802 0.504984 0.001721
C119  C     C_R   0.074946 0.113258 0.796468 -0.139471
C120  C     C_R   0.425048 0.613248 0.203521 -0.139481
C121  C     C_R   0.574946 0.613259 0.796468 -0.139472
C122  C     C_R   0.163704 0.114974 0.788512 -0.105141
C123  C     C_R   0.836293 0.114970 0.211481 -0.105129
C124  C     C_R   0.663704 0.614975 0.788511 -0.105142
C125  C     C_R   0.336293 0.614970 0.211480 -0.105131
C126  C     C_2   0.872222 0.609972 0.782064 1.048403
C127  C     C_2   0.127780 0.609976 0.217936 1.048420
C128  C     C_2   0.372222 0.109971 0.782063 1.048401
H1    H     H_    0.783779 0.882762 0.180203 0.109874
H2    H     H_    0.205064 0.703749 0.302828 0.154680
H3    H     H_    0.294943 0.203752 0.697175 0.154675
H4    H     H_    0.705061 0.203746 0.302827 0.154678
H5    H     H_    0.868216 0.786573 0.690109 0.218920
H6    H     H_    0.131797 0.786578 0.309894 0.218913
H7    H     H_    0.368214 0.286572 0.690108 0.218919
H8    H     H_    0.631794 0.286574 0.309893 0.218913
H9    H     H_    0.938826 0.709788 0.751489 0.217057
H10   H     H_    0.061181 0.709800 0.248510 0.217067
H11   H     H_    0.438825 0.209788 0.751488 0.217057
H12   H     H_    0.216219 0.882741 0.819793 0.109871
H13   H     H_    0.561179 0.209795 0.248514 0.217068
H14   H     H_    0.722965 0.169736 0.040006 0.153204
H15   H     H_    0.276996 0.169821 0.959907 0.153202
H16   H     H_    0.222965 0.669736 0.040006 0.153206
H17   H     H_    0.776995 0.669826 0.959902 0.153202
H18   H     H_    0.217168 0.748547 0.858816 0.131352
H19   H     H_    0.782814 0.748580 0.141137 0.131353
H20   H     H_    0.717169 0.248548 0.858817 0.131352
H21   H     H_    0.282815 0.248577 0.141141 0.131354
H22   H     H_    0.836896 0.197502 0.010002 0.146508
H23   H     H_    0.283779 0.382761 0.180204 0.109875
H24   H     H_    0.163102 0.197511 0.989986 0.146515
H25   H     H_    0.336895 0.697499 0.010000 0.146508
H26   H     H_    0.663103 0.697512 0.989985 0.146513
H27   H     H_    0.166325 0.797117 0.991891 0.141352
H28   H     H_    0.833659 0.797179 0.008070 0.141342
H29   H     H_    0.666324 0.297117 0.991891 0.141351
H30   H     H_    0.333657 0.297178 0.008070 0.141345
H31   H     H_    0.052202 0.826614 0.336699 0.135787
H32   H     H_    0.947808 0.826610 0.663295 0.135787
H33   H     H_    0.552202 0.326613 0.336700 0.135788
H34   H     H_    0.716219 0.382741 0.819793 0.109871
H35   H     H_    0.447807 0.326610 0.663295 0.135788
H36   H     H_    0.204154 0.843997 0.674506 0.091115
H37   H     H_    0.795851 0.843999 0.325493 0.091116
H38   H     H_    0.704154 0.343997 0.674506 0.091114
H39   H     H_    0.295849 0.343999 0.325493 0.091117
H40   H     H_    0.764550 0.084800 0.334945 0.113678
H41   H     H_    0.235450 0.084807 0.665058 0.113654
H42   H     H_    0.264551 0.584800 0.334945 0.113677
H43   H     H_    0.735449 0.584809 0.665059 0.113658
H44   H     H_    0.951885 0.113099 0.168187 0.142563
H45   H     H_    0.190904 0.125366 0.320470 0.169473
H46   H     H_    0.048106 0.113116 0.831797 0.142559
H47   H     H_    0.451884 0.613096 0.168185 0.142573
H48   H     H_    0.548106 0.613118 0.831797 0.142558
H49   H     H_    0.214743 0.116101 0.807406 0.117160
H50   H     H_    0.785255 0.116102 0.192591 0.117174
H51   H     H_    0.714743 0.616101 0.807405 0.117160
H52   H     H_    0.285255 0.616101 0.192590 0.117177
H53   H     H_    0.766393 0.717608 0.319487 0.126973
H54   H     H_    0.233614 0.717608 0.680515 0.126970
H55   H     H_    0.266392 0.217608 0.319486 0.126975
H56   H     H_    0.809098 0.125358 0.679532 0.169484
H57   H     H_    0.733616 0.217609 0.680517 0.126970
H58   H     H_    0.889250 0.562011 0.913827 0.330257
H59   H     H_    0.110766 0.562003 0.086189 0.330249
H60   H     H_    0.389250 0.062011 0.913828 0.330256
H61   H     H_    0.610764 0.061995 0.086194 0.330249
H62   H     H_    0.049042 0.772154 0.891721 0.133451
H63   H     H_    0.955603 0.767983 0.911277 0.137407
H64   H     H_    0.884186 0.883144 0.875086 0.117293
H65   H     H_    0.900817 0.001699 0.805246 0.155505
H66   H     H_    0.987385 0.003909 0.770309 0.120153
H67   H     H_    0.690904 0.625369 0.320471 0.169467
H68   H     H_    0.950945 0.772169 0.108263 0.133467
H69   H     H_    0.044388 0.767986 0.088715 0.137392
H70   H     H_    0.115818 0.883138 0.124920 0.117301
H71   H     H_    0.099199 0.001693 0.194771 0.155513
H72   H     H_    0.012629 0.003915 0.229704 0.120169
H73   H     H_    0.549041 0.272154 0.891718 0.133450
H74   H     H_    0.455600 0.267983 0.911272 0.137406
H75   H     H_    0.384186 0.383146 0.875085 0.117293
H76   H     H_    0.400818 0.501700 0.805248 0.155507
H77   H     H_    0.487386 0.503910 0.770310 0.120152
H78   H     H_    0.309096 0.625357 0.679530 0.169484
H79   H     H_    0.450941 0.272162 0.108264 0.133470
H80   H     H_    0.544380 0.267973 0.088710 0.137393
H81   H     H_    0.615814 0.383121 0.124915 0.117304
H82   H     H_    0.599201 0.501678 0.194768 0.155523
H83   H     H_    0.512630 0.503907 0.229701 0.120188
H84   H     H_    0.962489 0.259670 0.751456 0.332421
H85   H     H_    0.037500 0.259667 0.248499 0.332404
H86   H     H_    0.462488 0.759671 0.751454 0.332421
H87   H     H_    0.537513 0.759655 0.248471 0.332406
H88   H     H_    0.794944 0.703753 0.697176 0.154675
N1    N     N_R   0.888400 0.921830 0.294620 -0.050154
N2    N     N_R   0.874350 0.922400 0.443380 -0.042745
N3    N     N_R   0.625650 0.422400 0.556620 -0.042743
N4    N     N_R   0.374350 0.422400 0.443380 -0.042745
N5    N     N_R   0.054230 0.922730 0.705400 -0.067540
N6    N     N_R   0.945770 0.922730 0.294600 -0.067539
N7    N     N_R   0.554230 0.422730 0.705400 -0.067540
N8    N     N_R   0.445770 0.422730 0.294600 -0.067539
N9    N     N_R   0.873790 0.077030 0.443380 -0.040007
N10   N     N_R   0.126210 0.077030 0.556620 -0.040008
N11   N     N_R   0.373790 0.577030 0.443380 -0.040008
N12   N     N_R   0.111600 0.921830 0.705380 -0.050153
N13   N     N_R   0.626210 0.577030 0.556620 -0.040011
N14   N     N_R   0.945200 0.076700 0.294600 -0.054256
N15   N     N_R   0.054800 0.076700 0.705400 -0.054257
N16   N     N_R   0.445200 0.576700 0.294600 -0.054258
N17   N     N_R   0.554800 0.576700 0.705400 -0.054257
N18   N     N_R   0.111030 0.077600 0.705380 -0.042355
N19   N     N_R   0.888970 0.077600 0.294620 -0.042354
N20   N     N_R   0.611030 0.577600 0.705380 -0.042355
N21   N     N_R   0.388970 0.577600 0.294620 -0.042355
N22   N     N_R   0.919490 0.077280 0.556590 -0.065805
N23   N     N_R   0.388400 0.421830 0.294620 -0.050154
N24   N     N_R   0.080510 0.077280 0.443410 -0.065804
N25   N     N_R   0.419490 0.577280 0.556590 -0.065805
N26   N     N_R   0.580510 0.577280 0.443410 -0.065814
N27   N     N_R   0.611600 0.421830 0.705380 -0.050152
N28   N     N_R   0.079940 0.922160 0.443410 -0.049787
N29   N     N_R   0.920060 0.922160 0.556590 -0.049786
N30   N     N_R   0.579940 0.422160 0.443410 -0.049787
N31   N     N_R   0.420060 0.422160 0.556590 -0.049785
N32   N     N_R   0.125650 0.922400 0.556620 -0.042744
Ni1   Ni    Ni4+2 0.882160 0.999430 0.370180 0.222117
Ni2   Ni    Ni4+2 0.117840 0.999430 0.629820 0.222119
Ni3   Ni    Ni4+2 0.382160 0.499430 0.370180 0.222115
Ni4   Ni    Ni4+2 0.617840 0.499430 0.629820 0.222117
Ni5   Ni    Ni4+2 0.012460 0.999430 0.370180 0.222306
Ni6   Ni    Ni4+2 0.987540 0.999430 0.629820 0.222305
Ni7   Ni    Ni4+2 0.512460 0.499430 0.370180 0.222304
Ni8   Ni    Ni4+2 0.487540 0.499430 0.629820 0.222304
O1    O     O_2   0.912023 0.565045 0.783525 -0.626034
O2    O     O_R   0.939169 0.230151 0.681550 -0.764504
O3    O     O_2   0.070025 0.133087 0.229511 -0.708460
O4    O     O_R   0.060825 0.230153 0.318419 -0.764458
O5    O     O_2   0.429963 0.633115 0.770463 -0.708479
O6    O     O_R   0.439168 0.730151 0.681549 -0.764506
O7    O     O_2   0.570021 0.633060 0.229506 -0.708479
O8    O     O_R   0.560838 0.730151 0.318398 -0.764460
O9    O     O_R   0.861385 0.605124 0.860379 -0.841789
O10   O     O_2   0.087964 0.565063 0.216458 -0.626035
O11   O     O_R   0.138632 0.605114 0.139639 -0.841808
O12   O     O_2   0.412023 0.065044 0.783525 -0.626034
O13   O     O_R   0.361385 0.105124 0.860378 -0.841790
O14   O     O_2   0.587964 0.065057 0.216465 -0.626034
O15   O     O_R   0.638630 0.105107 0.139642 -0.841806
O16   O     O_2   0.929965 0.133113 0.770464 -0.708479

loop_
_geom_bond_atom_site_label_1
_geom_bond_atom_site_label_2
_ccdc_geom_bond_type
C101  N6    A    
C58   C62   A    
C48   C55   A    
C79   C83   D    
C72   C112  A    
C34   C123  A    
C31   C85   S    
C127  O10   D    
C55   C59   A    
C116  N13   A    
C114  H41   S    
C128  O13   S    
C35   C119  A    
C19   C20   A    
C33   C107  S    
C100  C105  A    
C47   H53   S    
N14   Ni5   S    
C120  N16   A    
C113  H40   S    
C61   C68   S    
C75   H6    S    
C3    O15   S    
C7    C8    A    
C98   C111  A    
C39   C64   A    
C14   H70   S    
C33   O8    S    
N24   Ni5   S    
C63   H34   S    
C41   C105  A    
C37   C90   S    
N22   Ni6   S    
C78   C105  S    
C40   C60   A    
N3    Ni4   S    
C23   C29   A    
C72   N31   A    
N13   N26   A    
C28   C29   A    
C3    C68   S    
C5    H62   S    
C18   C19   A    
C46   C50   A    
C87   C91   D    
C35   C122  A    
C123  H50   S    
C119  H46   S    
C54   C58   A    
C5    C6    A    
C30   C74   S    
C78   H27   S    
N6    Ni5   S    
C121  H48   S    
N30   Ni7   S    
C66   C75   S    
C28   H82   S    
C15   C16   A    
C117  N14   A    
C27   H81   S    
C65   C73   S    
C66   C127  S    
C2    C85   A    
C68   H4    S    
C51   C56   A    
C42   C46   A    
C92   H15   S    
N15   Ni6   S    
H86   O6    S    
C41   H12   S    
C70   C110  A    
C52   N23   A    
C69   H31   S    
C79   H28   S    
C49   H55   S    
C69   C109  A    
N7    Ni8   S    
C23   C103  S    
C36   C125  A    
C60   C67   S    
N7    N27   A    
C8    C9    A    
C124  H51   S    
C87   H22   S    
C71   C111  A    
C6    H63   S    
C12   H69   S    
C126  O9    S    
C102  C108  A    
C31   O4    S    
C54   H67   S    
C84   C91   S    
C39   C75   S    
C18   H73   S    
C99   H39   S    
C81   C86   D    
N17   Ni8   S    
C103  N8    A    
C119  N15   A    
C91   H14   S    
N31   Ni8   S    
C94   H17   S    
C81   H30   S    
C41   N12   A    
C52   C106  A    
C82   C93   S    
C21   C22   A    
N9    N22   A    
C88   H24   S    
C21   H76   S    
N18   Ni2   S    
H60   O13   S    
N16   Ni7   S    
N1    Ni1   S    
N20   Ni4   S    
C115  H42   S    
N17   N20   A    
C82   H18   S    
C76   H7    S    
N32   Ni2   S    
C102  N7    A    
C90   C94   D    
C6    C7    A    
N12   Ni2   S    
C84   H20   S    
C40   C45   A    
C74   C118  A    
C67   H3    S    
C45   C112  S    
C50   C53   A    
N10   N24   A    
C122  H49   S    
N23   Ni3   S    
C80   C84   D    
N2    N29   A    
C88   C92   D    
C8    H65   S    
C30   O16   D    
C11   H68   S    
C65   H88   S    
C95   C109  A    
C86   H21   S    
C1    C104  A    
C24   C107  A    
C53   C57   A    
C9    H66   S    
C13   C96   A    
C49   C51   A    
C25   C26   A    
C83   C94   S    
C25   H79   S    
C19   H74   S    
C89   H25   S    
C40   C76   S    
C116  H43   S    
C64   C66   S    
C103  C106  A    
C74   N22   A    
C17   C102  S    
C115  N11   A    
C95   N32   A    
C114  N10   A    
C37   C124  A    
C15   H71   S    
C35   C88   S    
C78   C82   D    
C120  H47   S    
C113  N9    A    
N5    N12   A    
H59   O11   S    
C63   N27   A    
C98   N3    A    
C125  H52   S    
C45   C49   A    
C128  O12   D    
N3    N30   A    
N14   N19   A    
C107  N26   A    
N25   Ni8   S    
C13   C115  A    
C20   C21   A    
C32   O6    S    
C3    O14   D    
C42   C61   A    
C98   H38   S    
C93   H16   S    
C127  O11   S    
C122  N18   A    
C47   C54   A    
C37   C121  A    
H58   O9    S    
C43   C110  S    
N4    N31   A    
C12   C14   A    
C24   C116  A    
C101  C104  A    
N26   Ni7   S    
N8    N23   A    
C4    C100  S    
C36   C89   S    
C26   C27   A    
N16   N21   A    
N2    Ni1   S    
C83   H19   S    
C79   C104  S    
C53   H56   S    
C90   H26   S    
N19   Ni1   S    
C125  N21   A    
C59   C64   A    
N11   Ni3   S    
C123  N19   A    
C76   H11   S    
N1    N6    A    
N10   Ni2   S    
C55   H78   S    
C80   C108  S    
C81   C106  S    
N9    Ni1   S    
N27   Ni4   S    
C71   H33   S    
C126  O1    D    
C32   C96   S    
C30   O2    S    
C1    H1    S    
H87   O8    S    
H61   O15   S    
C10   C101  S    
C26   H80   S    
C20   H75   S    
C73   H5    S    
C4    C5    A    
C75   H10   S    
C16   H72   S    
N11   N25   A    
C1    N1    A    
C11   C12   A    
C69   N28   A    
C57   C61   A    
C39   C44   A    
C13   C59   S    
N29   Ni6   S    
C33   O7    D    
C121  N17   A    
C17   C22   A    
C17   C18   A    
N28   Ni5   S    
C85   N24   A    
C65   C126  S    
C97   N2    A    
C38   C43   A    
H85   O4    S    
C2    C56   S    
C95   H36   S    
C44   C109  S    
C48   H54   S    
C97   C110  A    
C2    C114  A    
C117  H44   S    
C80   H29   S    
N5    Ni6   S    
C10   C16   A    
C73   H9    S    
C100  N5    A    
C34   C117  A    
C52   H23   S    
C97   H37   S    
C99   C112  A    
H84   O2    S    
C62   C65   S    
C72   H35   S    
C63   C108  A    
N15   N18   A    
C70   H32   S    
C34   C87   S    
C23   C25   A    
C89   C93   D    
C32   O5    D    
C36   C120  A    
C29   H83   S    
C77   H13   S    
C96   N25   A    
N13   Ni4   S    
C51   H45   S    
C10   C11   A    
C70   N29   A    
C67   C128  S    
C113  C118  A    
C124  N20   A    
C77   H8    S    
N28   N32   A    
C68   C77   S    
C56   C60   A    
C99   N4    A    
C22   H77   S    
C42   C77   S    
C24   C58   S    
N4    Ni3   S    
C27   C28   A    
C14   C15   A    
N21   Ni3   S    
C86   C92   S    
C67   C76   S    
C71   N30   A    
C38   C62   A    
C4    C9    A    
C46   C111  S    
C50   H57   S    
C43   C47   A    
C7    H64   S    
C44   C48   A    
N8    Ni7   S    
C57   C118  S    
C66   H2    S    
C38   C73   S    
C31   O3    D    
