data_mof_unit_60258.cif
_audit_creation_date              2013-03-05T16:37:15-0500
_audit_creation_method            fapswitch 2.2
_symmetry_space_group_name_H-M    P1
_symmetry_Int_Tables_number       1
_space_group_crystal_system       triclinic
_cell_length_a                    21.729509
_cell_length_b                    21.788917
_cell_length_c                    24.799982
_cell_angle_alpha                 116.173348
_cell_angle_beta                  116.154104
_cell_angle_gamma                 89.873251
_cell_volume                      9185.73166676

loop_
_atom_site_label
_atom_site_type_symbol
_atom_site_description
_atom_site_fract_x
_atom_site_fract_y
_atom_site_fract_z
_atom_type_partial_charge
O1    O     O_R   0.049920 0.497760 0.599870 -0.563717
O2    O     O_R   0.049920 0.602100 0.599840 -0.577426
C1    C     C_R   0.067921 0.566262 0.632372 0.829383
O3    O     O_R   0.090180 0.447830 0.500020 -0.569302
O4    O     O_R   0.090180 0.552170 0.499990 -0.586610
C2    C     C_R   0.118059 0.499292 0.498846 0.815283
Cu1   Cu    Cu3+1 0.000000 0.438230 0.500020 1.068170
Cu2   Cu    Cu3+1 0.000000 0.561770 0.499980 1.028571
O5    O     O_R   0.950080 0.397900 0.400160 -0.530778
O6    O     O_R   0.950080 0.502240 0.400130 -0.589316
O7    O     O_R   0.909820 0.447830 0.500010 -0.570277
O8    O     O_R   0.909820 0.552170 0.499980 -0.575715
C3    C     C_R   0.932908 0.433543 0.367252 0.831987
C4    C     C_R   0.882139 0.500687 0.501446 0.802526
H1    H     H_    0.982672 0.212939 0.241762 0.214613
C5    C     C_R   0.063630 0.265381 0.347650 -0.137380
H2    H     H_    0.052195 0.223210 0.356228 0.181183
C6    C     C_R   0.118153 0.324852 0.401289 -0.086083
H3    H     H_    0.148944 0.328159 0.451132 0.156263
C7    C     C_R   0.132810 0.379809 0.390575 0.014475
C8    C     C_R   0.092916 0.374444 0.325588 -0.232356
H4    H     H_    0.104666 0.416995 0.317744 0.211143
C9    C     C_R   0.038773 0.314134 0.270864 0.348927
C10   C     C_R   0.024276 0.259809 0.282724 -0.115337
C11   C     C_R   0.256091 0.444785 0.447262 -0.174459
H5    H     H_    0.261670 0.401239 0.407183 0.187614
C12   C     C_R   0.313692 0.502186 0.500094 -0.057056
C13   C     C_R   0.306555 0.558520 0.552813 0.075458
C14   C     C_R   0.241298 0.556681 0.550467 -0.139408
H6    H     H_    0.235021 0.600188 0.590046 0.149361
C15   C     C_R   0.184471 0.498745 0.498358 -0.071741
C16   C     C_R   0.191760 0.441879 0.446664 0.005730
C17   C     C_R   0.396389 0.637359 0.679450 -0.002463
C18   C     C_R   0.450801 0.698781 0.730406 -0.182093
H7    H     H_    0.475699 0.712474 0.784166 0.189073
C19   C     C_R   0.475404 0.741968 0.712479 -0.056037
H8    H     H_    0.518195 0.788243 0.752060 0.209139
C20   C     C_R   0.445500 0.725089 0.643637 -0.071061
H9    H     H_    0.464902 0.757888 0.629421 0.168833
C21   C     C_R   0.390463 0.665558 0.592670 -0.152608
H10   H     H_    0.367649 0.653532 0.539687 0.122165
C22   C     C_R   0.365424 0.621046 0.609487 0.040148
C23   C     C_R   0.089605 0.665939 0.743115 -0.245751
H11   H     H_    0.047682 0.683577 0.713451 0.197623
C24   C     C_R   0.124212 0.704687 0.815270 -0.015890
C25   C     C_R   0.178141 0.680625 0.853617 -0.048141
C26   C     C_R   0.197395 0.620182 0.818808 -0.134034
H12   H     H_    0.239549 0.602687 0.848425 0.188599
C27   C     C_R   0.163826 0.582351 0.746620 -0.003700
C28   C     C_R   0.108225 0.604949 0.708316 -0.134302
N1    N     N_R   0.286470 0.727948 0.965432 -0.199054
N2    N     N_R   0.320400 0.760514 0.033997 -0.214769
C29   C     C_R   0.284450 0.782464 0.069446 0.421729
N3    N     N_R   0.213007 0.769826 0.033388 -0.205135
N4    N     N_R   0.179029 0.737302 0.964783 -0.182474
C30   C     C_R   0.215252 0.716477 0.929589 0.463732
C31   C     C_R   0.285177 0.840341 0.182424 -0.126114
H13   H     H_    0.228027 0.827875 0.155627 0.169658
C32   C     C_R   0.321245 0.877031 0.254398 -0.145597
H14   H     H_    0.290947 0.891775 0.281142 0.165691
C33   C     C_R   0.395397 0.894572 0.291210 -0.012491
C34   C     C_R   0.432715 0.874206 0.254571 -0.146923
H15   H     H_    0.489875 0.886727 0.281421 0.168000
C35   C     C_R   0.396678 0.837386 0.182640 -0.126650
H16   H     H_    0.427114 0.822760 0.156043 0.170590
C36   C     C_R   0.322496 0.820226 0.145720 0.045338
C37   C     C_R   0.919129 0.391722 0.638232 0.311255
C38   C     C_R   0.864029 0.405591 0.590902 -0.125414
H17   H     H_    0.820481 0.362699 0.545373 0.188383
C39   C     C_R   0.865803 0.474035 0.600554 0.088670
C40   C     C_R   0.922621 0.529399 0.658316 -0.123545
H18   H     H_    0.924423 0.582601 0.666417 0.162272
C41   C     C_R   0.976586 0.516764 0.706833 -0.208281
H19   H     H_    0.018548 0.560993 0.752365 0.198291
C42   C     C_R   0.975678 0.448400 0.697959 -0.079060
C43   C     C_R   0.742306 0.487551 0.548967 0.322715
C44   C     C_R   0.686409 0.500128 0.500148 -0.141074
C45   C     C_R   0.697005 0.514951 0.454227 0.015312
C46   C     C_R   0.761902 0.514885 0.456302 -0.164341
H20   H     H_    0.770085 0.525836 0.420967 0.152996
C47   C     C_R   0.816417 0.501334 0.503216 -0.105617
C48   C     C_R   0.807438 0.487783 0.550092 -0.068396
C49   C     C_R   0.586499 0.485394 0.345668 -0.110663
H21   H     H_    0.578930 0.431578 0.335825 0.198431
C50   C     C_R   0.539160 0.502549 0.296623 0.005646
C51   C     C_R   0.551918 0.571411 0.308347 -0.161066
H22   H     H_    0.516677 0.586005 0.271173 0.187148
C52   C     C_R   0.609845 0.622728 0.368491 -0.210606
H23   H     H_    0.617355 0.675376 0.375771 0.153192
C53   C     C_R   0.656994 0.606581 0.418428 -0.090846
C54   C     C_R   0.644483 0.536915 0.407175 0.023129
C55   C     C_R   0.896417 0.431064 0.256044 -0.227310
H24   H     H_    0.927458 0.484826 0.285788 0.217348
C56   C     C_R   0.861416 0.398121 0.183894 -0.033649
C57   C     C_R   0.822059 0.327297 0.145084 -0.146117
C58   C     C_R   0.819258 0.290678 0.179227 0.265060
C59   C     C_R   0.854874 0.324831 0.251859 0.243468
C60   C     C_R   0.894013 0.395522 0.290679 -0.223962
N5    N     N_R   0.806699 0.238508 0.032923 -0.094975
N6    N     N_R   0.773102 0.206450 0.964347 -0.136727
C61   C     C_R   0.715443 0.225489 0.929677 0.474844
N7    N     N_R   0.691819 0.276886 0.965962 -0.137939
N8    N     N_R   0.725726 0.309314 0.034592 -0.176352
C62   C     C_R   0.783914 0.290852 0.069179 0.519744
C63   C     C_R   0.714831 0.181387 0.816361 -0.017064
C64   C     C_R   0.677557 0.139419 0.744156 -0.207542
H25   H     H_    0.704890 0.132476 0.715145 0.203385
C65   C     C_R   0.604942 0.108730 0.708767 -0.093760
C66   C     C_R   0.569226 0.120484 0.746359 -0.170290
H26   H     H_    0.513156 0.097953 0.720446 0.184419
C67   C     C_R   0.605672 0.160716 0.818063 -0.039244
H27   H     H_    0.577270 0.167143 0.846044 0.192869
C68   C     C_R   0.678534 0.190019 0.853799 0.039282
O9    O     O_R   0.471120 0.561280 0.442210 -0.582950
O10   O     O_R   0.528910 0.619050 0.557800 -0.579071
C69   C     C_R   0.499814 0.619279 0.500012 0.794860
O11   O     O_R   0.380930 0.471140 0.442200 -0.577326
O12   O     O_R   0.438710 0.528900 0.557790 -0.575272
C70   C     C_R   0.380838 0.500996 0.500009 0.774648
Cu3   Cu    Cu3+1 0.465780 0.465820 0.431560 1.040086
Cu4   Cu    Cu3+1 0.534220 0.534230 0.568440 1.094256
O13   O     O_R   0.471090 0.380990 0.442200 -0.573247
O14   O     O_R   0.528880 0.438760 0.557790 -0.558173
O15   O     O_R   0.561290 0.471140 0.442210 -0.608201
O16   O     O_R   0.619070 0.528910 0.557800 -0.515796
C71   C     C_R   0.501378 0.380649 0.499721 0.831734
C72   C     C_R   0.619131 0.501086 0.499997 0.861839
O17   O     O_R   0.552160 0.089990 0.499980 -0.568878
O18   O     O_R   0.447770 0.089950 0.499980 -0.592255
C73   C     C_R   0.501155 0.119771 0.502688 0.790820
O19   O     O_R   0.502270 0.949920 0.400150 -0.581905
O20   O     O_R   0.397880 0.949890 0.400140 -0.582583
C74   C     C_R   0.433614 0.933488 0.367351 0.833194
Cu5   Cu    Cu3+1 0.561810 0.999860 0.500000 1.046398
Cu6   Cu    Cu3+1 0.438190 0.999810 0.500000 1.019970
O21   O     O_R   0.552230 0.909720 0.500030 -0.578365
O22   O     O_R   0.447840 0.909680 0.500020 -0.551568
O23   O     O_R   0.602120 0.049780 0.599860 -0.583898
O24   O     O_R   0.497730 0.049740 0.599850 -0.578330
C75   C     C_R   0.501106 0.882482 0.501926 0.865425
C76   C     C_R   0.566425 0.066996 0.632673 0.794118
H28   H     H_    0.232084 0.471108 0.228669 0.191447
C77   C     C_R   0.333498 0.533278 0.268431 -0.140692
H29   H     H_    0.335706 0.502512 0.221434 0.177581
C78   C     C_R   0.389090 0.590715 0.324336 -0.087940
H30   H     H_    0.433948 0.604481 0.320204 0.136520
C79   C     C_R   0.386612 0.630536 0.385417 0.133576
C80   C     C_R   0.327235 0.613395 0.389518 -0.142926
H31   H     H_    0.324385 0.646186 0.435700 0.156386
C81   C     C_R   0.270801 0.555941 0.333320 0.029569
C82   C     C_R   0.274683 0.515759 0.272788 -0.130632
C83   C     C_R   0.447266 0.756325 0.444386 -0.054671
C84   C     C_R   0.501055 0.815885 0.501379 -0.057764
C85   C     C_R   0.553692 0.812411 0.558418 0.029403
C86   C     C_R   0.554617 0.747262 0.556845 -0.058796
C87   C     C_R   0.500023 0.686983 0.500270 -0.179390
C88   C     C_R   0.445478 0.692092 0.444555 -0.073927
C89   C     C_R   0.673391 0.896597 0.623821 -0.077143
C90   C     C_R   0.729217 0.948045 0.687139 -0.210325
H32   H     H_    0.778565 0.963420 0.690291 0.229736
C91   C     C_R   0.725534 0.975924 0.748036 0.281268
C92   C     C_R   0.661734 0.956562 0.745256 -0.149355
C93   C     C_R   0.601691 0.910333 0.680623 -0.068657
C94   C     C_R   0.609071 0.876567 0.620542 -0.067916
C95   C     C_R   0.445693 0.237127 0.270937 -0.160066
C96   C     C_R   0.443197 0.239449 0.327739 0.321796
C97   C     C_R   0.506058 0.250991 0.386889 -0.109118
C98   C     C_R   0.572008 0.258377 0.388974 -0.113842
C99   C     C_R   0.575049 0.261437 0.334222 -0.131382
C100  C     C_R   0.511816 0.249543 0.274548 -0.170306
C101  C     C_R   0.501522 0.189044 0.448036 -0.135301
H33   H     H_    0.501965 0.141945 0.406939 0.142064
C102  C     C_R   0.500934 0.186546 0.503069 -0.061606
C103  C     C_R   0.501908 0.247730 0.557508 0.041082
C104  C     C_R   0.502372 0.310376 0.554897 -0.179299
H34   H     H_    0.502880 0.357395 0.596676 0.172871
C105  C     C_R   0.501577 0.313060 0.499219 -0.037873
C106  C     C_R   0.501678 0.251538 0.445224 0.116544
C107  C     C_R   0.449736 0.217032 0.617133 -0.161304
H35   H     H_    0.401747 0.186454 0.568478 0.183347
C108  C     C_R   0.452579 0.225986 0.677543 -0.241313
H36   H     H_    0.406829 0.201262 0.674076 0.201172
C109  C     C_R   0.511820 0.269909 0.742215 0.290658
C110  C     C_R   0.570778 0.302389 0.745406 0.270076
C111  C     C_R   0.567290 0.292121 0.683959 -0.255192
H37   H     H_    0.611571 0.317522 0.685844 0.216140
C112  C     C_R   0.507014 0.250087 0.619950 0.012335
C113  C     C_2   0.104352 0.771135 0.847860 0.887325
O25   O     O_2   0.148571 0.821430 0.901958 -0.539435
O26   O     O_R   0.035106 0.777082 0.814989 -0.736350
H38   H     H_    0.028038 0.824952 0.841566 0.367082
C114  C     C_2   0.190502 0.521948 0.713475 0.887886
O27   O     O_2   0.213042 0.484849 0.739669 -0.545923
O28   O     O_R   0.192290 0.508777 0.653740 -0.767030
H39   H     H_    0.210511 0.465566 0.635603 0.339902
C115  C     C_2   0.032530 0.439122 0.753447 0.931002
O29   O     O_2   0.021824 0.390706 0.763043 -0.490807
O30   O     O_R   0.098074 0.487643 0.796685 -0.761922
H40   H     H_    0.132378 0.476344 0.832924 0.358345
N9    N     N_R   0.917972 0.320012 0.623405 0.153574
O31   O     O_R   0.973915 0.295938 0.628027 -0.285457
O32   O     O_R   0.858330 0.275807 0.594095 -0.309601
N10   N     N_R   0.733758 0.475770 0.598256 0.131401
O33   O     O_R   0.777189 0.514920 0.663911 -0.302072
O34   O     O_R   0.682159 0.426592 0.577881 -0.317971
C116  C     C_2   0.476532 0.448921 0.233090 0.844578
O35   O     O_2   0.459400 0.391960 0.227116 -0.545255
O36   O     O_R   0.436360 0.463557 0.179943 -0.762558
H41   H     H_    0.394742 0.422917 0.139526 0.356204
C117  C     C_2   0.719154 0.662902 0.481309 0.911760
O37   O     O_2   0.740063 0.665006 0.536686 -0.485757
O38   O     O_R   0.755027 0.713913 0.478728 -0.698954
H42   H     H_    0.739181 0.704559 0.430253 0.295757
C118  C     C_2   0.869251 0.439116 0.151520 0.943169
O39   O     O_2   0.861325 0.409224 0.093206 -0.519360
O40   O     O_R   0.887677 0.512751 0.188900 -0.744403
H43   H     H_    0.892092 0.534814 0.161932 0.360851
N11   N     N_R   0.777772 0.219523 0.140205 0.156923
O41   O     O_R   0.806079 0.170156 0.150061 -0.243263
O42   O     O_R   0.711773 0.203619 0.093993 -0.304437
N12   N     N_R   0.845567 0.289452 0.285548 0.171208
O43   O     O_R   0.882270 0.244052 0.294041 -0.298066
O44   O     O_R   0.805208 0.307449 0.313355 -0.320076
C119  C     C_2   0.789817 0.218809 0.850243 0.932643
O45   O     O_2   0.824702 0.196821 0.821246 -0.512941
O46   O     O_R   0.819979 0.280868 0.913824 -0.692856
H44   H     H_    0.870950 0.301414 0.930909 0.374690
C120  C     C_2   0.207674 0.538918 0.337580 0.839488
O47   O     O_2   0.155259 0.494527 0.286154 -0.561748
O48   O     O_R   0.207648 0.573971 0.400323 -0.775155
H45   H     H_    0.161605 0.557628 0.396622 0.337618
C121  C     C_2   0.393599 0.760825 0.383638 0.838949
O49   O     O_2   0.412602 0.782971 0.354548 -0.615819
O50   O     O_R   0.321675 0.739420 0.359720 -0.737965
H46   H     H_    0.290648 0.744755 0.318039 0.343449
C122  C     C_2   0.615279 0.742366 0.613218 0.886289
O51   O     O_2   0.656008 0.707362 0.600663 -0.530749
O52   O     O_R   0.624819 0.776586 0.680030 -0.750757
H47   H     H_    0.667822 0.769169 0.713712 0.360209
C123  C     C_2   0.685457 0.864620 0.563106 0.948709
O53   O     O_2   0.737222 0.891756 0.566485 -0.551208
O54   O     O_R   0.638585 0.804203 0.502076 -0.761333
H48   H     H_    0.651514 0.791101 0.464482 0.336078
N13   N     N_R   0.999633 0.307588 0.203523 0.122392
O55   O     O_R   0.011409 0.358705 0.192922 -0.307063
O56   O     O_R   0.953672 0.249438 0.151597 -0.309508
N14   N     N_R   0.788032 0.022193 0.812357 0.136407
O57   O     O_R   0.803421 0.019185 0.867999 -0.276383
O58   O     O_R   0.835231 0.059869 0.813272 -0.284730
C124  C     C_2   0.658895 0.983576 0.810120 1.002153
O59   O     O_2   0.664424 0.046297 0.844241 -0.588257
O60   O     O_R   0.653178 0.937365 0.833681 -0.678038
H49   H     H_    0.652706 0.961971 0.878966 0.361001
C125  C     C_2   0.530867 0.897357 0.674887 0.827093
O61   O     O_2   0.525444 0.894951 0.720927 -0.571566
O62   O     O_R   0.469905 0.888796 0.616661 -0.772566
H50   H     H_    0.425227 0.880052 0.618478 0.343378
C126  C     C_2   0.515033 0.248016 0.215227 1.002661
O63   O     O_2   0.478754 0.198391 0.157094 -0.527190
O64   O     O_R   0.560238 0.302890 0.226066 -0.737694
H51   H     H_    0.557799 0.295766 0.181856 0.365167
C127  C     C_2   0.378423 0.221301 0.207820 0.972903
O65   O     O_2   0.330108 0.171956 0.183467 -0.505788
O66   O     O_R   0.370052 0.262907 0.176535 -0.699223
H52   H     H_    0.321946 0.246861 0.134188 0.356393
N15   N     N_R   0.376540 0.231766 0.326127 0.138703
O67   O     O_R   0.356325 0.182939 0.335577 -0.334562
O68   O     O_R   0.335527 0.273232 0.314483 -0.328907
C128  C     C_2   0.636884 0.256535 0.445049 0.899349
O69   O     O_2   0.647113 0.284223 0.504099 -0.529772
O70   O     O_R   0.685464 0.220881 0.429524 -0.724649
H53   H     H_    0.726828 0.222841 0.471433 0.374300
C129  C     C_2   0.644950 0.277354 0.340019 0.980861
O71   O     O_2   0.656920 0.239257 0.293740 -0.486696
O72   O     O_R   0.697468 0.335468 0.399431 -0.775888
H54   H     H_    0.743002 0.340733 0.398055 0.363626
N16   N     N_R   0.509021 0.284553 0.803471 0.146600
O73   O     O_R   0.471942 0.237385 0.803084 -0.348832
O74   O     O_R   0.532009 0.348561 0.854883 -0.246149
N17   N     N_R   0.634176 0.345456 0.809762 0.157377
O75   O     O_R   0.656138 0.330510 0.859501 -0.290354
O76   O     O_R   0.674775 0.394812 0.816052 -0.291444
C130  C     C_2   0.375614 0.590316 0.700543 0.856431
O77   O     O_2   0.383156 0.614771 0.758549 -0.560585
O78   O     O_R   0.349637 0.517816 0.655268 -0.754812
H55   H     H_    0.339516 0.491503 0.676594 0.348858

loop_
_geom_bond_atom_site_label_1
_geom_bond_atom_site_label_2
_geom_bond_distance
_ccdc_geom_bond_type
C83   C88   1.402096 A    
N4    C30   1.357172 A    
C17   C130  1.487049 S    
C127  O66   1.397240 S    
C61   N7    1.357609 A    
O10   Cu4   1.975089 S    
C130  O78   1.398309 S    
C61   C68   1.473379 S    
C99   C100  1.419813 A    
N3    N4    1.331674 A    
C57   C58   1.413835 A    
C31   C36   1.405524 A    
O21   C75   1.289225 A    
O19   Cu5   1.947997 S    
C119  O45   1.223216 D    
C55   H24   1.083464 S    
C120  O48   1.398893 S    
C47   C48   1.407017 A    
C53   C54   1.420282 A    
C43   N10   1.439350 S    
C55   C60   1.402424 A    
Cu1   Cu2   2.692241 S    
C104  C105  1.400204 A    
C27   C114  1.485307 S    
C44   C45   1.417822 A    
N13   O55   1.301532 A    
Cu1   O7    1.970145 S    
C101  C102  1.395265 A    
C95   C96   1.412230 A    
C49   H21   1.083778 S    
C17   C22   1.420361 A    
C85   C94   1.499645 S    
C19   H8    1.082204 S    
C129  O71   1.222999 D    
C80   C81   1.405100 A    
N17   O76   1.301530 A    
C6    H3    1.083219 S    
O2    C1    1.299958 A    
O11   C70   1.287775 A    
C78   H30   1.080287 S    
O4    C2    1.295564 A    
C103  C104  1.395026 A    
O7    C4    1.291931 A    
C116  O36   1.398634 S    
C31   C32   1.396438 A    
C107  C112  1.398447 A    
C64   H25   1.083339 S    
C124  O60   1.397930 S    
C77   H29   1.081679 S    
C59   C60   1.413676 A    
C115  O29   1.222713 D    
C65   C66   1.401223 A    
C71   C105  1.467250 S    
C113  O26   1.398715 S    
C18   H7    1.083142 S    
C41   H19   1.082322 S    
C3    C60   1.485656 S    
C27   C28   1.415174 A    
O5    C3    1.303012 A    
O12   C70   1.284770 A    
C123  O53   1.223929 D    
C125  O62   1.397090 S    
C35   C36   1.405715 A    
C66   C67   1.394337 A    
N7    N8    1.332248 A    
C8    H4    1.080064 S    
O18   Cu6   1.975754 S    
Cu3   O15   1.970085 S    
C8    C9    1.406703 A    
C77   C78   1.395427 A    
C79   C80   1.402073 A    
C59   N12   1.432115 S    
N9    O31   1.301295 A    
C34   C35   1.395662 A    
C9    C10   1.406191 A    
C90   C91   1.397607 A    
C101  C106  1.393924 A    
C39   C40   1.398053 A    
C18   C19   1.396326 A    
C44   C72   1.460390 S    
C89   C94   1.421871 A    
C75   C84   1.445142 S    
C12   C13   1.415021 A    
C42   C115  1.485354 S    
O24   C76   1.301338 A    
C11   C16   1.392684 A    
C21   C22   1.403498 A    
O28   H39   1.013546 S    
C32   H14   1.082867 S    
C5    C10   1.397407 A    
C124  O59   1.220261 D    
C102  C103  1.409830 A    
C128  O69   1.221572 D    
C58   C59   1.410117 A    
C41   C42   1.405271 A    
C96   C97   1.410870 A    
C56   C57   1.417420 A    
O3    Cu1   1.971160 S    
C4    C47   1.447853 S    
C55   C56   1.401784 A    
C65   C76   1.478419 S    
C78   C79   1.400938 A    
C1    C28   1.474231 S    
Cu3   O13   1.975306 S    
C50   C116  1.480718 S    
C109  N16   1.437717 S    
C31   H13   1.082722 S    
N14   O58   1.301186 A    
C73   C102  1.450825 S    
O22   C75   1.290961 A    
C56   C118  1.491740 S    
C32   C33   1.404953 A    
C51   C52   1.392555 A    
C33   C74   1.477331 S    
N1    N2    1.330854 A    
C9    N13   1.439106 S    
C26   H12   1.084513 S    
C98   C99   1.418305 A    
C99   C129  1.487920 S    
C43   C44   1.418111 A    
C26   C27   1.402208 A    
C37   N9    1.436094 S    
C66   H26   1.082829 S    
C108  C109  1.405925 A    
C43   C48   1.403206 A    
C97   C98   1.417943 A    
C53   C117  1.491446 S    
C116  O35   1.221533 D    
O20   C74   1.300357 A    
O14   C71   1.292408 A    
Cu5   O21   1.975873 S    
O19   C74   1.300437 A    
C11   H5    1.084739 S    
C50   C51   1.399488 A    
O6    C3    1.304660 A    
C24   C113  1.485972 S    
C37   C38   1.405343 A    
O17   C73   1.295354 A    
C113  O25   1.222832 D    
O1    C1    1.301468 A    
O12   Cu4   1.970087 S    
C114  O28   1.397910 S    
H28   C82   1.082855 S    
C108  H36   1.082601 S    
C93   C125  1.497346 S    
C126  O64   1.398423 S    
C23   H11   1.084360 S    
C109  C110  1.419023 A    
Cu4   O16   1.970648 S    
C14   H6    1.085052 S    
O17   Cu5   1.974732 S    
C103  C112  1.480341 S    
O4    Cu2   1.970141 S    
N12   O43   1.300462 A    
N10   O34   1.299563 A    
C122  O51   1.221635 D    
N11   O42   1.301205 A    
C90   H32   1.082932 S    
O10   C69   1.288851 A    
Cu2   O8    1.971159 S    
N11   O41   1.300619 A    
O62   H50   1.013800 S    
C7    C8    1.401862 A    
C34   H15   1.082882 S    
C123  O54   1.396551 S    
C17   C18   1.408489 A    
C96   N15   1.439327 S    
C24   C25   1.416748 A    
C67   C68   1.402890 A    
C5    C6    1.396102 A    
C25   C26   1.402771 A    
N2    C29   1.358193 A    
O40   H43   1.013935 S    
C29   C36   1.479859 S    
C23   C24   1.401471 A    
C101  H33   1.085322 S    
O36   H41   1.013926 S    
C85   C86   1.403100 A    
O30   H40   1.013778 S    
C107  H35   1.082538 S    
N15   O68   1.301384 A    
C92   C124  1.479872 S    
O15   C72   1.284550 A    
C115  O30   1.398644 S    
C21   H10   1.078672 S    
C49   C50   1.404865 A    
O72   H54   1.013428 S    
O8    C4    1.296030 A    
O46   H44   1.013815 S    
C117  O38   1.399165 S    
N16   O74   1.301237 A    
O48   H45   1.013904 S    
C89   C90   1.402798 A    
N15   O67   1.300976 A    
O11   Cu3   1.970645 S    
O3    C2    1.293256 A    
O26   H38   1.013902 S    
O50   H46   1.013827 S    
C19   C20   1.393354 A    
C2    C15   1.448443 S    
N8    C62   1.357299 A    
Cu4   O14   1.974786 S    
Cu3   Cu4   2.655649 S    
C51   H22   1.082885 S    
C40   C41   1.394819 A    
O18   C73   1.291704 A    
C7    C16   1.477200 S    
C63   C68   1.417883 A    
C95   C100  1.418645 A    
Cu6   O22   1.974730 S    
N13   O56   1.301347 A    
O52   H47   1.013584 S    
C13   C14   1.393258 A    
C77   C82   1.396796 A    
C67   H27   1.083260 S    
O54   H48   1.012630 S    
C121  O50   1.397796 S    
O1    Cu1   1.948273 S    
C38   H17   1.083911 S    
C15   C16   1.407385 A    
O2    Cu2   1.948892 S    
N1    C30   1.356649 A    
C52   C53   1.404063 A    
O64   H51   1.013752 S    
H1    C10   1.082331 S    
O23   C76   1.300151 A    
C119  O46   1.398664 S    
Cu5   O23   1.949114 S    
O78   H55   1.013607 S    
O9    C69   1.287685 A    
N14   O57   1.301234 A    
C23   C28   1.402944 A    
C29   N3    1.358794 A    
C127  O65   1.223161 D    
C12   C70   1.460126 S    
C45   C54   1.486392 S    
C92   C93   1.422664 A    
C63   C119  1.490079 S    
C49   C54   1.405626 A    
C63   C64   1.406729 A    
Cu6   O24   1.947994 S    
Cu5   Cu6   2.686202 S    
C46   C47   1.389453 A    
C81   C82   1.406808 A    
N5    N6    1.331507 A    
N12   O44   1.300592 A    
C114  O27   1.223226 D    
C130  O77   1.223342 D    
C125  O61   1.221398 D    
C128  O70   1.398884 S    
C126  O63   1.223013 D    
O66   H52   1.013790 S    
C118  O40   1.399058 S    
N17   O75   1.300044 A    
C14   C15   1.396196 A    
C104  H34   1.084805 S    
C91   C92   1.413257 A    
C110  N17   1.439405 S    
C35   H16   1.082707 S    
C57   C62   1.473064 S    
C20   C21   1.392231 A    
C45   C46   1.388302 A    
C89   C123  1.497703 S    
C111  H37   1.083620 S    
C20   H9    1.080459 S    
C64   C65   1.404719 A    
C86   C122  1.486539 S    
C121  O49   1.222464 D    
O20   Cu6   1.949116 S    
C58   N11   1.437492 S    
C87   C88   1.420467 A    
C118  O39   1.222818 D    
C13   C22   1.483685 S    
N6    C61   1.357889 A    
C129  O72   1.398148 S    
C122  O52   1.397253 S    
O13   C71   1.284460 A    
N5    C62   1.356359 A    
C6    C7    1.401038 A    
C80   H31   1.080059 S    
C117  O37   1.220285 D    
C91   N14   1.443196 S    
C33   C34   1.404413 A    
C39   C48   1.481267 S    
C69   C87   1.472397 S    
C93   C94   1.424843 A    
C111  C112  1.401436 A    
Cu2   O6    1.948271 S    
C120  O47   1.222864 D    
C46   H20   1.085589 S    
Cu1   O5    1.948890 S    
C40   H18   1.083272 S    
C97   C106  1.486047 S    
C37   C42   1.420381 A    
C52   H23   1.080440 S    
N9    O32   1.301193 A    
C105  C106  1.417418 A    
C25   C30   1.474905 S    
C86   C87   1.419445 A    
O16   C72   1.287450 A    
C38   C39   1.399998 A    
C95   C127  1.488204 S    
C81   C120  1.481515 S    
C100  C126  1.489209 S    
C110  C111  1.405520 A    
C83   C84   1.407200 A    
N10   O33   1.301182 A    
C107  C108  1.395344 A    
C84   C85   1.408070 A    
N16   O73   1.301410 A    
O9    Cu3   1.974568 S    
C98   C128  1.497846 S    
O70   H53   1.013601 S    
C5    H2    1.082300 S    
O38   H42   1.012231 S    
O60   H49   1.013800 S    
C83   C121  1.490027 S    
C11   C12   1.401117 A    
C79   C88   1.484761 S    
