data_mof_unit_38644.cif
_audit_creation_date              2012-12-11T15:54:48-0500
_audit_creation_method            fapswitch 2.2
_symmetry_space_group_name_H-M    P1
_symmetry_Int_Tables_number       1
_space_group_crystal_system       triclinic
_cell_length_a                    6.911419
_cell_length_b                    14.657147
_cell_length_c                    16.059
_cell_angle_alpha                 90.165965
_cell_angle_beta                  90.534951
_cell_angle_gamma                 89.44114
_cell_volume                      1626.64905558

loop_
_atom_site_label
_atom_site_type_symbol
_atom_type_description
_atom_site_fract_x
_atom_site_fract_y
_atom_site_fract_z
_atom_type_partial_charge
O1    O     O_R   0.638180 0.333920 0.163320 -0.536089
O2    O     O_R   0.361820 0.666080 0.836680 -0.526759
O3    O     O_R   0.308470 0.344960 0.336080 -0.532939
O4    O     O_R   0.691530 0.655040 0.663920 -0.534053
O5    O     O_R   0.138140 0.166110 0.336680 -0.477737
O6    O     O_R   0.861860 0.833890 0.663320 -0.481389
C1    C     C_R   0.477589 0.367990 0.364509 0.718534
C2    C     C_R   0.522410 0.632066 0.635439 0.714488
O7    O     O_R   0.308460 0.344950 0.163930 -0.542914
O8    O     O_R   0.691540 0.655050 0.836070 -0.521033
O9    O     O_R   0.138140 0.166100 0.163310 -0.545961
O10   O     O_R   0.861860 0.833900 0.836690 -0.543233
C3    C     C_R   0.476734 0.366525 0.134264 0.794268
C4    C     C_R   0.523732 0.634044 0.865990 0.781458
O11   O     O_R   0.638180 0.333930 0.336700 -0.556536
O12   O     O_R   0.361820 0.666070 0.663300 -0.557821
O13   O     O_3   0.471670 0.191340 0.250000 -0.348622
O14   O     O_3   0.528330 0.808660 0.750000 -0.358228
V1    V     V_3+5 0.196830 0.260900 0.250000 1.506550
V2    V     V_3+5 0.803170 0.739100 0.750000 1.560320
O15   O     O_R   0.808420 0.155070 0.163920 -0.546060
O16   O     O_R   0.191580 0.844930 0.836080 -0.554986
C5    C     C_R   0.977339 0.133168 0.134602 0.678954
C6    C     C_R   0.022718 0.866544 0.865616 0.695667
O17   O     O_R   0.808420 0.155080 0.336070 -0.554023
O18   O     O_R   0.191580 0.844920 0.663930 -0.556194
C7    C     C_R   0.981817 0.127235 0.359832 0.797853
C8    C     C_R   0.018186 0.872714 0.640122 0.789005
V3    V     V_3+5 0.696830 0.239130 0.250000 1.463392
V4    V     V_3+5 0.303170 0.760870 0.750000 1.475389
O19   O     O_3   0.971850 0.308690 0.250010 -0.386111
O20   O     O_3   0.028150 0.691310 0.749990 -0.369147
H1    H     H_    0.515252 0.877414 0.339525 0.143501
H2    H     H_    0.484043 0.122142 0.660431 0.144786
C9    C     C_R   0.820453 0.173158 0.518930 -0.095309
C10   C     C_R   0.178251 0.826591 0.480836 -0.095020
C11   C     C_R   0.660184 0.183838 0.570007 0.412012
C12   C     C_R   0.338210 0.815613 0.429655 0.412023
C13   C     C_R   0.612160 0.113389 0.623091 -0.284489
C14   C     C_R   0.387009 0.886162 0.376768 -0.285415
C15   C     C_R   0.738946 0.038069 0.634554 0.393183
C16   C     C_R   0.260867 0.961748 0.365429 0.396484
C17   C     C_R   0.879117 0.018360 0.570857 -0.051394
C18   C     C_R   0.120699 0.981550 0.429108 -0.053179
C19   C     C_R   0.901256 0.084507 0.506506 -0.048580
C20   C     C_R   0.098301 0.915380 0.493409 -0.049009
C21   C     C_R   0.995836 0.936718 0.567616 -0.071102
C22   C     C_R   0.004091 0.063240 0.432355 -0.073717
C23   C     C_R   0.170638 0.989896 0.954651 -0.166936
C24   C     C_R   0.829689 0.009351 0.045927 -0.146543
H3    H     H_    0.303920 0.984011 0.920014 0.109408
H4    H     H_    0.696503 0.015149 0.080643 0.106575
C25   C     C_R   0.158609 0.054665 0.018816 -0.178520
C26   C     C_R   0.841657 0.944625 0.981708 -0.175220
H5    H     H_    0.283172 0.096898 0.031655 0.115600
H6    H     H_    0.717095 0.902384 0.968857 0.103067
C27   C     C_R   0.988326 0.065014 0.065629 -0.034918
C28   C     C_R   0.011852 0.934409 0.934806 -0.047447
C29   C     C_R   0.322814 0.460709 0.478702 -0.079908
C30   C     C_R   0.677122 0.539498 0.521116 -0.077380
H7    H     H_    0.183874 0.431220 0.463698 0.138167
H8    H     H_    0.816067 0.568973 0.536128 0.137048
C31   C     C_R   0.334895 0.522239 0.545394 -0.204251
C32   C     C_R   0.665035 0.477986 0.454410 -0.205599
H9    H     H_    0.205195 0.537243 0.580385 0.111846
H10   H     H_    0.794737 0.462979 0.419419 0.111071
C33   C     C_R   0.511741 0.563361 0.566961 -0.028383
C34   C     C_R   0.488223 0.436795 0.432898 -0.031411
C35   C     C_R   0.360833 0.512017 0.063570 0.315487
C36   C     C_R   0.644479 0.492677 0.939808 0.355430
C37   C     C_R   0.375548 0.578030 0.000067 0.368349
C38   C     C_R   0.634714 0.428422 0.005245 0.296070
C39   C     C_R   0.515584 0.567933 0.936612 -0.354810
C40   C     C_R   0.488860 0.436100 0.066287 -0.359866
O21   O     O_3   0.244980 0.650381 0.999580 -0.517923
C41   C     C_3   0.338509 0.730340 0.027676 -0.201259
H11   H     H_    0.414053 0.764258 0.975749 0.117728
H12   H     H_    0.442989 0.717753 0.079753 0.089582
H13   H     H_    0.226964 0.778865 0.050785 0.149193
O22   O     O_3   0.750845 0.350889 0.002924 -0.560601
C42   C     C_3   0.938893 0.373103 0.030454 -0.063601
H14   H     H_    0.025459 0.309214 0.035367 0.110481
H15   H     H_    0.936819 0.405288 0.093216 0.170001
H16   H     H_    0.013251 0.417972 0.985563 0.166657
C43   C     C_2   0.921790 0.256909 0.493067 0.361696
H17   H     H_    0.841820 0.319495 0.483329 0.075078
O23   O     O_2   0.097950 0.257892 0.488366 -0.523181
C44   C     C_2   0.076043 0.743005 0.506526 0.359314
H18   H     H_    0.155273 0.680128 0.515881 0.075117
O24   O     O_2   0.899904 0.742495 0.511464 -0.524464
O25   O     O_3   0.550523 0.263330 0.567701 -0.530734
C45   C     C_3   0.586914 0.313922 0.640849 -0.247793
H19   H     H_    0.742586 0.331885 0.646091 0.111463
H20   H     H_    0.539444 0.277129 0.697448 0.122793
H21   H     H_    0.502523 0.378398 0.637889 0.173694
O26   O     O_3   0.446377 0.735634 0.431735 -0.531046
C46   C     C_3   0.414319 0.686791 0.357225 -0.250855
H22   H     H_    0.473783 0.723052 0.302561 0.122549
H23   H     H_    0.257713 0.672629 0.347640 0.110345
H24   H     H_    0.491017 0.620327 0.361478 0.172512
O27   O     O_3   0.716277 0.980096 0.702174 -0.538702
C47   C     C_3   0.649054 0.025542 0.774400 -0.213427
H25   H     H_    0.489433 0.034674 0.771800 0.121795
H26   H     H_    0.723995 0.091496 0.785351 0.114006
H27   H     H_    0.678342 0.982152 0.829060 0.160706
O28   O     O_3   0.284297 0.019859 0.297967 -0.535968
C48   C     C_3   0.350673 0.974359 0.225609 -0.218472
H28   H     H_    0.274518 0.908747 0.214463 0.103475
H29   H     H_    0.510130 0.964569 0.228138 0.120873
H30   H     H_    0.322259 0.018056 0.171090 0.162365
O29   O     O_3   0.210792 0.519283 0.119650 -0.538339
C49   C     C_3   0.278385 0.560948 0.193399 -0.192811
H31   H     H_    0.291997 0.635568 0.184490 0.133597
H32   H     H_    0.417997 0.531397 0.216355 0.079056
H33   H     H_    0.169856 0.550067 0.242754 0.140253
O30   O     O_3   0.785255 0.482655 0.879786 -0.529881
C50   C     C_3   0.711701 0.428113 0.814752 -0.206343
H34   H     H_    0.581388 0.459912 0.785155 0.088116
H35   H     H_    0.678428 0.358131 0.836755 0.152477
H36   H     H_    0.824455 0.421955 0.766373 0.142732

loop_
_geom_bond_atom_site_label_1
_geom_bond_atom_site_label_2
_ccdc_geom_bond_type
C7    C22   S    
C37   O21   S    
C31   H9    S    
C8    C21   S    
O27   C47   S    
O13   V3    S    
O29   C49   S    
C41   H13   S    
O4    C2    A    
V1    O19   S    
C42   H16   S    
C49   H32   S    
C42   H14   S    
C13   C15   A    
C43   H17   S    
C10   C44   S    
O9    V1    S    
C24   C26   A    
C32   C34   A    
C9    C11   A    
C41   H12   S    
O3    C1    A    
C50   H35   S    
V2    O20   S    
O28   C48   S    
O12   V4    S    
C46   H22   S    
O30   C50   S    
C47   H27   S    
C30   H8    S    
C35   C37   A    
O7    C3    A    
C46   H23   S    
C1    C34   S    
O5    C7    A    
O7    V1    S    
O6    C8    A    
C30   C33   A    
O8    V2    S    
C23   H3    S    
C24   H4    S    
C48   H28   S    
O3    V1    S    
O14   V4    S    
V4    O20   S    
C43   O23   D    
C2    O12   A    
C15   C17   A    
C16   C18   A    
O2    C4    A    
O1    V3    S    
C49   H31   S    
C42   H15   S    
C18   C20   A    
O11   V3    S    
C26   H6    S    
C25   H5    S    
O17   V3    S    
C11   C13   A    
C31   C33   A    
C29   H7    S    
H1    C14   S    
C11   O25   S    
H2    C13   S    
C4    C39   S    
C41   H11   S    
C38   C40   A    
O8    C4    A    
C50   H36   S    
O25   C45   S    
C37   C39   A    
C25   C27   A    
O22   C42   S    
C1    O11   A    
C36   O30   S    
O15   V3    S    
C45   H21   S    
C23   C28   A    
C32   H10   S    
O21   C41   S    
C29   C34   A    
C17   C19   A    
V3    O19   S    
O26   C46   S    
O10   V2    S    
C36   C39   A    
C45   H20   S    
C35   C40   A    
C44   H18   S    
C47   H26   S    
C16   O28   S    
C44   O24   D    
O18   V4    S    
O15   C5    A    
C48   H30   S    
O16   C6    A    
O1    C3    A    
C9    C19   A    
C46   H24   S    
C26   C28   A    
C19   C22   A    
C5    C27   S    
C20   C21   A    
O16   V4    S    
C24   C27   A    
C29   C31   A    
C14   C16   A    
O5    V1    S    
O17   C7    A    
O6    V2    S    
O10   C6    A    
O18   C8    A    
O2    V4    S    
C30   C32   A    
C10   C12   A    
C38   O22   S    
C50   H34   S    
C12   C14   A    
C10   C20   A    
C9    C43   S    
C48   H29   S    
C23   C25   A    
O9    C5    A    
C45   H19   S    
O13   V1    S    
C15   O27   S    
O14   V2    S    
C47   H25   S    
C35   O29   S    
O4    V2    S    
C3    C40   S    
C2    C33   S    
C6    C28   S    
C12   O26   S    
C36   C38   A    
C17   C21   A    
C49   H33   S    
C18   C22   A    
