data_mof_unit_48446.cif
_audit_creation_date              2012-12-11T16:12:48-0500
_audit_creation_method            fapswitch 2.2
_symmetry_space_group_name_H-M    P1
_symmetry_Int_Tables_number       1
_space_group_crystal_system       monoclinic
_cell_length_a                    6.959984
_cell_length_b                    21.26846
_cell_length_c                    23.615631
_cell_angle_alpha                 90.0
_cell_angle_beta                  90.000013
_cell_angle_gamma                 90.0
_cell_volume                      3495.77796267

loop_
_atom_site_label
_atom_site_type_symbol
_atom_type_description
_atom_site_fract_x
_atom_site_fract_y
_atom_site_fract_z
_atom_type_partial_charge
O1    O     O_R   0.615270 0.806540 0.192260 -0.531878
O2    O     O_R   0.384730 0.193460 0.807740 -0.531878
O3    O     O_R   0.384730 0.193460 0.692260 -0.531878
O4    O     O_R   0.615270 0.806540 0.307740 -0.531878
O5    O     O_R   0.115270 0.693460 0.307740 -0.531878
O6    O     O_R   0.884730 0.306540 0.692260 -0.531878
O7    O     O_R   0.884730 0.306540 0.807740 -0.531878
O8    O     O_R   0.115270 0.693460 0.192260 -0.531878
O9    O     O_R   0.285500 0.813970 0.307340 -0.535503
O10   O     O_R   0.714500 0.186030 0.692660 -0.535503
O11   O     O_R   0.714500 0.186030 0.807340 -0.535503
O12   O     O_R   0.285500 0.813970 0.192660 -0.535503
O13   O     O_R   0.785500 0.686030 0.192660 -0.535503
O14   O     O_R   0.214500 0.313970 0.807340 -0.535503
O15   O     O_R   0.214500 0.313970 0.692660 -0.535503
O16   O     O_R   0.785500 0.686030 0.307340 -0.535503
C1    C     C_R   0.453840 0.829112 0.326773 0.715527
C2    C     C_R   0.546160 0.170888 0.673227 0.715527
C3    C     C_R   0.546160 0.170888 0.826773 0.715526
C4    C     C_R   0.453840 0.829112 0.173227 0.715527
C5    C     C_R   0.953840 0.670888 0.173227 0.715527
C6    C     C_R   0.046160 0.329112 0.826773 0.715527
C7    C     C_R   0.046160 0.329112 0.673227 0.715527
C8    C     C_R   0.953840 0.670888 0.326773 0.715527
O17   O     O_3   0.448760 0.710460 0.250000 -0.366833
O18   O     O_3   0.551240 0.289540 0.750000 -0.366833
O19   O     O_3   0.948760 0.789540 0.250000 -0.366833
O20   O     O_3   0.051240 0.210460 0.750000 -0.366833
V1    V     V_3+5 0.173900 0.757330 0.250000 1.491248
V2    V     V_3+5 0.826100 0.242670 0.750000 1.491249
V3    V     V_3+5 0.673900 0.742670 0.250000 1.491249
V4    V     V_3+5 0.326100 0.257330 0.750000 1.491249
C9    C     C_3   0.076088 0.529239 0.544751 0.048707
C10   C     C_3   0.923912 0.470760 0.455249 0.048707
C11   C     C_3   0.923913 0.470760 0.044751 0.048708
C12   C     C_3   0.076087 0.529240 0.955249 0.048706
C13   C     C_3   0.576086 0.970760 0.955249 0.048708
C14   C     C_3   0.423914 0.029240 0.044751 0.048703
C15   C     C_3   0.423914 0.029240 0.455249 0.048710
C16   C     C_3   0.576086 0.970760 0.544751 0.048704
C17   C     C_3   0.882038 0.547244 0.516849 -0.215382
C18   C     C_3   0.117962 0.452756 0.483151 -0.215381
C19   C     C_3   0.117962 0.452756 0.016849 -0.215384
C20   C     C_3   0.882038 0.547244 0.983151 -0.215382
C21   C     C_3   0.382037 0.952756 0.983151 -0.215382
C22   C     C_3   0.617963 0.047244 0.016849 -0.215376
C23   C     C_3   0.617963 0.047244 0.483151 -0.215388
C24   C     C_3   0.382037 0.952756 0.516849 -0.215380
H1    H     H_    0.784165 0.585577 0.530460 0.185764
H2    H     H_    0.215835 0.414423 0.469540 0.185765
H3    H     H_    0.215835 0.414423 0.030460 0.185764
H4    H     H_    0.784165 0.585577 0.969540 0.185765
H5    H     H_    0.284163 0.914423 0.969540 0.185765
H6    H     H_    0.715837 0.085577 0.030460 0.185767
H7    H     H_    0.715836 0.085577 0.469540 0.185763
H8    H     H_    0.284164 0.914423 0.530460 0.185767
C25   C     C_1   0.960590 0.625104 0.372322 -0.149029
C26   C     C_1   0.039410 0.374896 0.627677 -0.149028
C27   C     C_1   0.039410 0.374896 0.872322 -0.149028
C28   C     C_1   0.960590 0.625104 0.127677 -0.149028
C29   C     C_1   0.460590 0.874896 0.127677 -0.149028
C30   C     C_1   0.539410 0.125104 0.872323 -0.149029
C31   C     C_1   0.539410 0.125104 0.627677 -0.149029
C32   C     C_1   0.460590 0.874896 0.372322 -0.149029
C33   C     C_3   0.170522 0.523597 0.485819 0.463537
C34   C     C_3   0.829478 0.476403 0.514181 0.463536
C35   C     C_3   0.829478 0.476403 0.985819 0.463539
C36   C     C_3   0.170522 0.523597 0.014181 0.463537
C37   C     C_3   0.670522 0.976402 0.014180 0.463537
C38   C     C_3   0.329478 0.023598 0.985819 0.463532
C39   C     C_3   0.329477 0.023597 0.514180 0.463545
C40   C     C_3   0.670522 0.976402 0.485820 0.463537
C41   C     C_3   0.978096 0.541029 0.457805 -0.044662
C42   C     C_3   0.021904 0.458971 0.542195 -0.044663
C43   C     C_3   0.021904 0.458971 0.957805 -0.044662
C44   C     C_3   0.978096 0.541029 0.042195 -0.044663
C45   C     C_3   0.478096 0.958971 0.042195 -0.044661
C46   C     C_3   0.521904 0.041029 0.957805 -0.044663
C47   C     C_3   0.521903 0.041029 0.542195 -0.044662
C48   C     C_3   0.478096 0.958971 0.457805 -0.044665
C49   C     C_1   0.965688 0.587113 0.410729 0.087013
C50   C     C_1   0.034312 0.412887 0.589271 0.087012
C51   C     C_1   0.034312 0.412887 0.910729 0.087013
C52   C     C_1   0.965688 0.587113 0.089271 0.087013
C53   C     C_1   0.465688 0.912887 0.089271 0.087013
C54   C     C_1   0.534312 0.087113 0.910729 0.087012
C55   C     C_1   0.534311 0.087113 0.589271 0.087013
C56   C     C_1   0.465689 0.912887 0.410729 0.087012
C57   C     C_3   0.164594 0.560840 0.596678 -0.298993
C58   C     C_3   0.181730 0.631835 0.588977 -0.714740
H9    H     H_    0.274481 0.643125 0.552147 0.267970
H10   H     H_    0.037653 0.653085 0.582509 0.219672
H11   H     H_    0.246919 0.652855 0.627482 0.209187
H12   H     H_    0.072773 0.551020 0.634118 0.171322
H13   H     H_    0.309235 0.540524 0.604457 0.228119
C59   C     C_3   0.835405 0.439160 0.403322 -0.298992
C60   C     C_3   0.818275 0.368165 0.411023 -0.714743
H14   H     H_    0.962355 0.346916 0.417487 0.219671
H15   H     H_    0.725534 0.356873 0.447854 0.267970
H16   H     H_    0.753077 0.347145 0.372519 0.209189
H17   H     H_    0.690762 0.459475 0.395544 0.228120
H18   H     H_    0.927223 0.448981 0.365882 0.171321
C61   C     C_3   0.835408 0.439160 0.096678 -0.298996
C62   C     C_3   0.818267 0.368165 0.088977 -0.714738
H19   H     H_    0.725508 0.356876 0.052149 0.267971
H20   H     H_    0.962342 0.346915 0.082506 0.219673
H21   H     H_    0.753086 0.347145 0.127482 0.209187
H22   H     H_    0.927232 0.448979 0.134118 0.171322
H23   H     H_    0.690769 0.459477 0.104459 0.228117
C63   C     C_3   0.164593 0.560840 0.903322 -0.298992
C64   C     C_3   0.181726 0.631835 0.911023 -0.714741
H24   H     H_    0.037647 0.653084 0.917489 0.219671
H25   H     H_    0.274471 0.643126 0.947854 0.267970
H26   H     H_    0.246920 0.652855 0.872519 0.209188
H27   H     H_    0.309235 0.540524 0.895543 0.228119
H28   H     H_    0.072774 0.551020 0.865882 0.171321
C65   C     C_3   0.664590 0.939160 0.903321 -0.298995
C66   C     C_3   0.681729 0.868164 0.911023 -0.714735
H29   H     H_    0.774489 0.856875 0.947851 0.267971
H30   H     H_    0.537653 0.846914 0.917494 0.219672
H31   H     H_    0.746909 0.847145 0.872517 0.209186
H32   H     H_    0.572767 0.948979 0.865882 0.171321
H33   H     H_    0.809231 0.959477 0.895541 0.228116
C67   C     C_3   0.335405 0.060840 0.096678 -0.298987
C68   C     C_3   0.318289 0.131836 0.088979 -0.714745
H34   H     H_    0.462376 0.153083 0.082520 0.219668
H35   H     H_    0.225567 0.143131 0.052143 0.267967
H36   H     H_    0.253078 0.152856 0.127480 0.209191
H37   H     H_    0.190756 0.040528 0.104453 0.228122
H38   H     H_    0.427215 0.051017 0.134119 0.171321
C69   C     C_3   0.335414 0.060840 0.403321 -0.299001
C70   C     C_3   0.318255 0.131834 0.411024 -0.714729
H39   H     H_    0.225464 0.143120 0.447846 0.267973
H40   H     H_    0.462321 0.153087 0.417506 0.219676
H41   H     H_    0.253099 0.152855 0.372515 0.209182
H42   H     H_    0.427250 0.051025 0.365883 0.171322
H43   H     H_    0.190781 0.040520 0.395537 0.228111
C71   C     C_3   0.664592 0.939160 0.596678 -0.298990
C72   C     C_3   0.681718 0.868164 0.588978 -0.714743
H44   H     H_    0.537636 0.846916 0.582515 0.219670
H45   H     H_    0.774454 0.856872 0.552145 0.267969
H46   H     H_    0.746918 0.847144 0.627481 0.209189
H47   H     H_    0.809237 0.959474 0.604456 0.228120
H48   H     H_    0.572777 0.948981 0.634118 0.171321
Cl1   Cl    Cl    0.606498 0.443051 0.536133 -0.668839
Cl2   Cl    Cl    0.393502 0.556949 0.463867 -0.668839
Cl3   Cl    Cl    0.393502 0.556949 0.036133 -0.668839
Cl4   Cl    Cl    0.606497 0.443051 0.963867 -0.668840
Cl5   Cl    Cl    0.106498 0.056950 0.963868 -0.668838
Cl6   Cl    Cl    0.893502 0.943050 0.036132 -0.668841
Cl7   Cl    Cl    0.893502 0.943050 0.463868 -0.668836
Cl8   Cl    Cl    0.106497 0.056949 0.536133 -0.668841

loop_
_geom_bond_atom_site_label_1
_geom_bond_atom_site_label_2
_ccdc_geom_bond_type
O17   V3    S    
C7    C26   S    
C14   C38   S    
O18   V4    S    
C13   C37   S    
O12   V1    S    
O19   V1    S    
C28   C52   T    
C37   C45   S    
C64   H24   S    
C10   C18   S    
C23   C47   S    
C19   H3    S    
C44   C52   S    
C62   H20   S    
C60   H14   S    
C9    C33   S    
O15   V4    S    
O16   V3    S    
C30   C54   T    
O11   C3    A    
O8    V1    S    
C23   H7    S    
C10   C59   S    
C11   C61   S    
C71   H47   S    
C26   C50   T    
C1    C32   S    
C72   H46   S    
C2    C31   S    
C38   C46   S    
C59   H18   S    
C3    C30   S    
C34   C42   S    
O1    V3    S    
C33   C41   S    
O3    C2    A    
O2    V4    S    
C17   H1    S    
C4    C29   S    
C20   C44   S    
C16   C24   S    
C63   C64   S    
C34   Cl1   S    
C66   H29   S    
O11   V2    S    
C19   C36   S    
C22   C37   S    
C16   C71   S    
C68   H36   S    
C33   Cl2   S    
C61   H22   S    
C11   C19   S    
C22   H6    S    
O9    V1    S    
C20   H4    S    
O15   C7    A    
C21   C38   S    
C21   H5    S    
O16   C8    A    
O7    V2    S    
C59   H17   S    
C48   C56   S    
O17   V1    S    
C10   C34   S    
C38   Cl5   S    
C42   C50   S    
C41   C49   S    
C62   H19   S    
C60   H15   S    
O5    V1    S    
C19   C43   S    
C11   C44   S    
C18   C42   S    
O19   V3    S    
O20   V4    S    
C5    C28   S    
C69   H42   S    
O14   V4    S    
C6    C27   S    
C22   C46   S    
C70   H39   S    
C17   C41   S    
C39   C47   S    
C66   H31   S    
C57   H13   S    
C65   H32   S    
C69   H43   S    
C12   C43   S    
C9    C57   S    
C18   C33   S    
O10   V2    S    
C58   H10   S    
C39   Cl8   S    
C11   C35   S    
C40   Cl7   S    
C59   C60   S    
O12   C4    A    
O8    C5    A    
C16   C47   S    
C67   H38   S    
C64   H25   S    
O14   C6    A    
C47   C55   S    
C36   Cl3   S    
C29   C53   T    
C18   H2    S    
O4    C1    A    
O9    C1    A    
O6    V2    S    
O18   V2    S    
C12   C63   S    
C68   H34   S    
C25   C49   T    
C12   C20   S    
C35   C43   S    
C37   Cl6   S    
C24   C39   S    
C13   C21   S    
C69   C70   S    
C63   H28   S    
C35   Cl4   S    
C60   H16   S    
C58   H11   S    
C15   C23   S    
C8    C25   S    
C24   H8    S    
O1    C4    A    
C16   C40   S    
C31   C55   T    
O2    C3    A    
O13   V3    S    
C27   C51   T    
C57   H12   S    
C72   H44   S    
C12   C36   S    
C17   C34   S    
C14   C45   S    
C36   C44   S    
O7    C6    A    
C13   C46   S    
C61   H23   S    
C9    C17   S    
C15   C48   S    
C24   C48   S    
O20   V2    S    
C65   H33   S    
C40   C48   S    
C71   H48   S    
C65   C66   S    
O13   C5    A    
C72   H45   S    
C43   C51   S    
C58   H9    S    
O5    C8    A    
C15   C69   S    
O10   C2    A    
C70   H41   S    
O6    C7    A    
C67   H37   S    
C64   H26   S    
O3    V4    S    
C66   H30   S    
C23   C40   S    
C14   C22   S    
O4    V3    S    
C71   C72   S    
C10   C41   S    
C45   C53   S    
C9    C42   S    
C13   C65   S    
C70   H40   S    
C46   C54   S    
C61   C62   S    
C68   H35   S    
C15   C39   S    
C20   C35   S    
C21   C45   S    
C57   C58   S    
C63   H27   S    
C32   C56   T    
C62   H21   S    
C14   C67   S    
C67   C68   S    
