data_mof_unit_39304.cif
_audit_creation_date              2012-10-26T19:42:15-0400
_audit_creation_method            fapswitch 2.2
_symmetry_space_group_name_H-M    P1
_symmetry_Int_Tables_number       1
_space_group_crystal_system       triclinic
_cell_length_a                    9.601706
_cell_length_b                    10.777735
_cell_length_c                    17.293945
_cell_angle_alpha                 92.89132
_cell_angle_beta                  85.455473
_cell_angle_gamma                 89.974644
_cell_volume                      1781.74237679

loop_
_atom_site_label
_atom_site_type_symbol
_atom_type_description
_atom_site_fract_x
_atom_site_fract_y
_atom_site_fract_z
_atom_type_partial_charge
C1    C     C_R   0.499601 0.737466 0.502549 0.539434
C2    C     C_R   0.529686 0.490970 0.265136 0.012297
C3    C     C_R   0.342756 0.881680 0.628553 -0.104278
C4    C     C_R   0.481044 0.495140 0.649880 0.527121
C5    C     C_R   0.267342 0.951765 0.687689 -0.114856
C6    C     C_R   0.267637 0.080789 0.687582 -0.116171
C7    C     C_R   0.343294 0.140583 0.628342 -0.091825
C8    C     C_R   0.419066 0.071469 0.567177 0.031668
C9    C     C_R   0.418849 0.940240 0.567303 0.020963
C10   C     C_R   0.499075 0.871758 0.507530 0.003345
C11   C     C_R   0.582353 0.931916 0.451278 -0.144664
C12   C     C_R   0.352060 0.518691 0.782562 -0.025340
C13   C     C_R   0.582449 0.059958 0.451110 -0.148741
C14   C     C_R   0.499310 0.129640 0.507223 0.013047
C15   C     C_R   0.870421 0.333734 0.397135 -0.087973
C16   C     C_R   0.499791 0.262916 0.501966 0.522091
C17   C     C_R   0.949552 0.251796 0.347050 -0.176226
C18   C     C_R   0.093082 0.251195 0.347219 -0.166473
C19   C     C_R   0.158384 0.332600 0.397426 -0.081365
C20   C     C_R   0.081892 0.417448 0.449808 0.158237
C21   C     C_R   0.932340 0.417799 0.449692 0.163456
C22   C     C_R   0.919355 0.579274 0.547224 0.018332
C23   C     C_R   0.417577 0.499509 0.145253 -0.107058
C24   C     C_R   0.067248 0.579769 0.546785 0.015401
C25   C     C_R   0.518893 0.498537 0.350041 0.530050
C26   C     C_R   0.469261 0.474153 0.733923 -0.020689
C27   C     C_R   0.572728 0.403322 0.766566 -0.034558
C28   C     C_R   0.561937 0.384438 0.845913 -0.116043
C29   C     C_R   0.448262 0.432544 0.893447 0.010244
C30   C     C_R   0.342306 0.496251 0.861418 -0.118746
C31   C     C_1   0.688756 0.344495 0.720203 0.219722
C32   C     C_1   0.241220 0.590779 0.754848 0.201478
C33   C     C_R   0.410975 0.512945 0.225621 -0.132682
C34   C     C_R   0.656201 0.457453 0.222967 -0.135316
C35   C     C_R   0.662498 0.442882 0.142241 -0.116033
C36   C     C_R   0.542659 0.461317 0.102954 0.043351
C37   C     C_2   0.440560 0.423174 0.977732 -0.134252
C38   C     C_2   0.552580 0.446224 0.017708 -0.131251
Cu1   Cu    Cu3+1 0.359340 0.500010 0.500010 0.930084
Cu2   Cu    Cu3+1 0.640660 0.499990 0.499990 0.948856
H1    H     H_    0.760464 0.415695 0.110484 0.101960
H2    H     H_    0.898841 0.188645 0.307552 0.114136
H3    H     H_    0.312731 0.540930 0.256770 0.132001
H4    H     H_    0.154680 0.187533 0.307843 0.121837
H5    H     H_    0.268942 0.325225 0.392098 0.183018
H6    H     H_    0.117065 0.646243 0.584305 0.145518
H7    H     H_    0.749359 0.440263 0.252286 0.122729
H8    H     H_    0.654293 0.459102 0.986920 0.122264
H9    H     H_    0.254044 0.532747 0.898815 0.111605
H10   H     H_    0.324849 0.521180 0.116888 0.101747
H11   H     H_    0.338109 0.410085 0.007271 0.116141
H12   H     H_    0.645284 0.879215 0.406217 0.128436
H13   H     H_    0.641774 0.331230 0.870690 0.114576
H14   H     H_    0.342995 0.781912 0.632305 0.143867
H15   H     H_    0.209873 0.905932 0.734393 0.143290
H16   H     H_    0.210389 0.134886 0.734119 0.125606
H17   H     H_    0.343663 0.240931 0.632033 0.145474
H18   H     H_    0.645388 0.104950 0.405904 0.108465
H19   H     H_    0.858712 0.644378 0.585938 0.129194
H20   H     H_    0.761373 0.327573 0.391686 0.174310
N1    N     N_R   0.852190 0.498790 0.499250 -0.242741
N2    N     N_R   0.148060 0.498710 0.499220 -0.248587
N3    N     N_1   0.781576 0.297280 0.683158 -0.274340
N4    N     N_1   0.151298 0.648442 0.733703 -0.349699
O1    O     O_R   0.381190 0.680360 0.500010 -0.503776
O2    O     O_R   0.618760 0.680340 0.500000 -0.499842
O3    O     O_R   0.367440 0.500030 0.613600 -0.500630
O4    O     O_R   0.605010 0.500010 0.613590 -0.485214
O5    O     O_R   0.381240 0.319660 0.500000 -0.529165
O6    O     O_R   0.618810 0.319640 0.499990 -0.505229
O7    O     O_R   0.394990 0.499990 0.386410 -0.524895
O8    O     O_R   0.632560 0.499970 0.386400 -0.526692

loop_
_geom_bond_atom_site_label_1
_geom_bond_atom_site_label_2
_ccdc_geom_bond_type
C4    O3    A    
C1    O1    A    
C28   H13   S    
C19   H5    S    
C6    C7    A    
C3    C9    A    
C18   H4    S    
C11   C13   A    
C9    C10   A    
C38   H8    S    
C35   C36   A    
Cu1   O3    S    
C15   C21   A    
C3    C5    A    
C24   H6    S    
C2    C34   A    
C19   C20   A    
C36   C38   S    
C17   C18   A    
Cu1   O5    S    
Cu2   O4    S    
C7    C8    A    
C22   H19   S    
C25   O8    A    
Cu2   O2    S    
C13   C14   A    
C12   C32   S    
C22   N1    A    
Cu1   O1    S    
C26   C27   A    
C29   C30   A    
Cu2   O6    S    
C25   O7    A    
C12   C26   A    
C2    C33   A    
C28   C29   A    
C37   C38   D    
C7    H17   S    
C34   C35   A    
C2    C25   S    
C22   C24   A    
C37   H11   S    
C20   N2    A    
C5    C6    A    
C35   H1    S    
C3    H14   S    
C14   C16   S    
C4    C26   S    
C1    O2    A    
C10   C11   A    
Cu2   N1    S    
C30   H9    S    
C34   H7    S    
C31   N3    T    
Cu1   Cu2   S    
Cu2   O8    S    
C16   O6    A    
C20   C21   A    
C32   N4    T    
C15   C17   A    
C23   C36   A    
C15   H20   S    
C29   C37   S    
C27   C28   A    
C4    O4    A    
Cu1   N2    S    
Cu1   O7    S    
C17   H2    S    
C18   C19   A    
C23   H10   S    
C24   N2    A    
C11   H12   S    
C8    C14   A    
C12   C30   A    
C27   C31   S    
C1    C10   S    
C5    H15   S    
C21   N1    A    
C16   O5    A    
C13   H18   S    
C6    H16   S    
C8    C9    A    
C23   C33   A    
C33   H3    S    
