data_mof_unit_55068.cif
_audit_creation_date              2012-10-26T19:24:23-0400
_audit_creation_method            fapswitch 2.2
_symmetry_space_group_name_H-M    P1
_symmetry_Int_Tables_number       1
_space_group_crystal_system       triclinic
_cell_length_a                    27.807593
_cell_length_b                    10.889796
_cell_length_c                    9.6058
_cell_angle_alpha                 91.656817
_cell_angle_beta                  90.73128
_cell_angle_gamma                 93.416687
_cell_volume                      2902.12870593

loop_
_atom_site_label
_atom_site_type_symbol
_atom_type_description
_atom_site_fract_x
_atom_site_fract_y
_atom_site_fract_z
_atom_type_partial_charge
Br1   Br    Br    0.138492 0.888715 0.430381 -0.390670
Br2   Br    Br    0.502379 0.118666 0.188296 -0.500319
Br3   Br    Br    0.416707 0.328532 0.148078 -0.413360
C1    C     C_R   0.504790 0.263693 0.498129 0.579361
C2    C     C_R   0.971916 0.393568 0.506398 0.021141
C3    C     C_R   0.976872 0.620222 0.497277 0.022094
C4    C     C_R   0.407543 0.499921 0.499226 0.577177
C5    C     C_R   0.949129 0.506733 0.502943 0.038781
C6    C     C_R   0.942471 0.282800 0.504621 -0.137978
C7    C     C_R   0.892548 0.283569 0.504960 -0.109174
C8    C     C_R   0.869874 0.394510 0.506302 0.023820
C9    C     C_R   0.897988 0.506409 0.505080 -0.027452
C10   C     C_R   0.874826 0.617974 0.505816 0.024668
C11   C     C_R   0.824291 0.615548 0.506964 0.398826
C12   C     C_R   0.278664 0.485742 0.620004 -0.043795
C13   C     C_R   0.819434 0.396236 0.507417 0.399864
C14   C     C_R   0.721108 0.495582 0.630771 -0.057158
C15   C     C_R   0.670921 0.494404 0.629341 -0.148140
C16   C     C_R   0.499483 0.738158 0.502937 0.531254
C17   C     C_R   0.671126 0.512096 0.378000 -0.142155
C18   C     C_R   0.721293 0.513724 0.379885 -0.057300
C19   C     C_R   0.746343 0.505220 0.506110 0.247103
C20   C     C_R   0.023078 0.394595 0.510600 0.025631
C21   C     C_R   0.050856 0.507692 0.498015 0.026911
C22   C     C_R   0.027886 0.619865 0.487653 -0.013042
C23   C     C_R   0.253751 0.503767 0.495408 0.235109
C24   C     C_R   0.047616 0.285974 0.528129 -0.130921
C25   C     C_R   0.106779 0.729692 0.461825 0.182776
C26   C     C_R   0.952396 0.730663 0.502777 -0.136796
C27   C     C_R   0.902451 0.729253 0.506270 -0.109424
C28   C     C_R   0.592466 0.500728 0.500847 0.522839
C29   C     C_R   0.056754 0.728391 0.465923 -0.111395
C30   C     C_R   0.549380 0.137868 0.731705 -0.081954
C31   C     C_R   0.554391 0.084279 0.860188 -0.083363
C32   C     C_R   0.533366 0.967584 0.880767 -0.090801
C33   C     C_R   0.511731 0.899590 0.769359 -0.094483
C34   C     C_R   0.102098 0.508372 0.495888 -0.057146
C35   C     C_R   0.511980 0.946286 0.633074 0.016795
C36   C     C_R   0.524519 0.073068 0.620097 -0.000136
C37   C     C_R   0.512659 0.131003 0.495270 0.002740
C38   C     C_R   0.503657 0.057776 0.373288 0.151647
C39   C     C_R   0.498562 0.931421 0.381445 -0.118398
C40   C     C_R   0.175372 0.398028 0.509935 0.406047
C41   C     C_R   0.501140 0.873586 0.509183 -0.034535
C42   C     C_R   0.567049 0.658558 0.150849 -0.093719
C43   C     C_R   0.600951 0.732120 0.081748 -0.176122
C44   C     C_R   0.601186 0.730605 0.938180 -0.175350
C45   C     C_R   0.125034 0.397293 0.511067 0.025406
C46   C     C_R   0.567176 0.656513 0.862933 -0.100600
C47   C     C_R   0.533244 0.576565 0.928814 0.129712
C48   C     C_R   0.533247 0.576861 0.078352 0.129550
C49   C     C_R   0.467424 0.428989 0.068385 0.284454
C50   C     C_R   0.468029 0.428487 0.921212 0.037458
C51   C     C_R   0.181232 0.614891 0.479255 0.423555
C52   C     C_R   0.279214 0.520255 0.371893 -0.041356
C53   C     C_R   0.329330 0.518641 0.372821 -0.111236
C54   C     C_R   0.328773 0.484480 0.621332 -0.127855
C55   C     C_R   0.097467 0.287531 0.528001 -0.089549
C56   C     C_R   0.130425 0.619475 0.478861 0.029488
C57   C     C_R   0.354589 0.500806 0.497650 0.012631
C58   C     C_R   0.645452 0.502305 0.502777 0.004973
Cu1   Cu    Cu3+1 0.500000 0.499990 0.640660 0.930106
Cu2   Cu    Cu3+1 0.500000 0.500010 0.359340 1.025260
H1    H     H_    0.347226 0.470366 0.719025 0.142721
H2    H     H_    0.259131 0.473137 0.715844 0.141824
H3    H     H_    0.534382 0.928482 0.982972 0.159043
H4    H     H_    0.493789 0.813389 0.795318 0.161286
H5    H     H_    0.492351 0.878090 0.285216 0.170277
H6    H     H_    0.568658 0.671229 0.260840 0.180786
H7    H     H_    0.626566 0.792811 0.140319 0.137311
H8    H     H_    0.626793 0.790568 0.884498 0.138784
H9    H     H_    0.567850 0.668789 0.753663 0.186783
H10   H     H_    0.441808 0.370334 0.861898 0.157308
H11   H     H_    0.114371 0.201479 0.541705 0.198026
H12   H     H_    0.260100 0.534195 0.275248 0.143211
H13   H     H_    0.652135 0.486902 0.727091 0.133799
H14   H     H_    0.740436 0.489047 0.728596 0.126537
H15   H     H_    0.871736 0.196187 0.503754 0.169918
H16   H     H_    0.956723 0.193047 0.500039 0.110908
H17   H     H_    0.029469 0.197742 0.545257 0.116831
H18   H     H_    0.348243 0.532174 0.276121 0.162504
H19   H     H_    0.970719 0.820628 0.507615 0.110371
H20   H     H_    0.652537 0.518698 0.278990 0.135882
H21   H     H_    0.885552 0.816396 0.509604 0.165772
H22   H     H_    0.740763 0.521190 0.283293 0.125838
H23   H     H_    0.041374 0.814987 0.447929 0.137542
H24   H     H_    0.566194 0.229038 0.719598 0.142295
H25   H     H_    0.573203 0.135052 0.944972 0.155109
N1    N     N_R   0.202210 0.505562 0.494487 -0.411715
N2    N     N_R   0.797833 0.505714 0.507403 -0.399924
N3    N     N_R   0.500460 0.501210 0.147910 -0.235731
N4    N     N_R   0.500480 0.501290 0.852040 -0.278524
O1    O     O_R   0.500000 0.319640 0.618810 -0.513862
O2    O     O_R   0.569730 0.499970 0.618800 -0.536108
O3    O     O_R   0.569740 0.499990 0.381230 -0.524618
O4    O     O_2   0.197480 0.291857 0.523544 -0.447804
O5    O     O_2   0.792150 0.289512 0.507922 -0.486974
O6    O     O_2   0.209851 0.717990 0.466360 -0.405249
O7    O     O_2   0.801729 0.721914 0.507572 -0.490282
O8    O     O_R   0.500000 0.319660 0.381240 -0.407861
O9    O     O_R   0.430260 0.500010 0.618770 -0.508064
O10   O     O_R   0.430270 0.500030 0.381200 -0.457456
O11   O     O_R   0.500000 0.680340 0.618760 -0.535234
O12   O     O_R   0.500000 0.680360 0.381190 -0.532757

loop_
_geom_bond_atom_site_label_1
_geom_bond_atom_site_label_2
_ccdc_geom_bond_type
C52   C53   A    
C13   N2    A    
C38   C39   A    
C28   C58   S    
C32   C33   A    
C23   C52   A    
C7    H15   S    
C33   H4    S    
C53   H18   S    
C44   C46   A    
C42   C43   A    
C49   C50   A    
C23   N1    S    
C35   C41   A    
C30   C36   A    
C35   C36   A    
C13   O5    S    
C3    C22   A    
C42   C48   A    
Br2   C38   S    
C12   H2    S    
Cu2   O3    S    
C14   C15   A    
C31   C32   A    
C6    H16   S    
C17   C58   A    
C11   N2    A    
C48   N3    A    
C16   O11   A    
Cu1   Cu2   S    
C1    C37   S    
C4    O10   A    
Cu1   N4    S    
Br1   C25   S    
C20   C21   A    
C20   C24   A    
C6    C7    A    
Cu1   O9    S    
C52   H12   S    
C22   C29   A    
C18   C19   A    
C39   H5    S    
C12   C54   A    
C39   C41   A    
Cu2   O10   S    
C30   C31   A    
C51   C56   A    
C18   H22   S    
C42   H6    S    
C10   C27   A    
C25   C29   A    
C21   C22   A    
C51   N1    A    
C21   C34   A    
C24   H17   S    
C36   C37   A    
C12   C23   A    
C3    C5    A    
Cu2   O8    S    
C47   C48   A    
C46   H9    S    
C53   C57   A    
C2    C6    A    
C26   C27   A    
C16   O12   A    
C2    C20   A    
C5    C9    A    
C29   H23   S    
C50   N4    A    
C14   H14   S    
C40   O4    S    
C19   N2    S    
C31   H25   S    
C9    C10   A    
C34   C45   A    
C44   H8    S    
C34   C56   A    
C47   N4    A    
C37   C38   A    
C1    O8    A    
C17   H20   S    
C4    C57   S    
C16   C41   S    
C55   H11   S    
C54   H1    S    
Cu1   O11   S    
C40   C45   A    
C25   C56   A    
C43   C44   A    
C15   H13   S    
C50   H10   S    
Cu2   O12   S    
C54   C57   A    
C24   C55   A    
C2    C5    A    
Br3   C49   S    
C15   C58   A    
C45   C55   A    
C28   O2    A    
C14   C19   A    
C32   H3    S    
Cu1   O2    S    
C30   H24   S    
C26   H19   S    
C11   O7    S    
C28   O3    A    
C33   C35   A    
C40   N1    A    
C27   H21   S    
C43   H7    S    
C8    C13   A    
C7    C8    A    
C1    O1    A    
C3    C26   A    
C17   C18   A    
C46   C47   A    
C4    O9    A    
Cu1   O1    S    
Cu2   N3    S    
C51   O6    S    
C49   N3    A    
C10   C11   A    
C8    C9    A    
