data_mof_unit_43784.cif
_audit_creation_date              2012-12-11T14:38:06-0500
_audit_creation_method            fapswitch 2.2
_symmetry_space_group_name_H-M    P1
_symmetry_Int_Tables_number       1
_space_group_crystal_system       triclinic
_cell_length_a                    19.4978
_cell_length_b                    11.241362
_cell_length_c                    19.767393
_cell_angle_alpha                 90.131346
_cell_angle_beta                  96.473731
_cell_angle_gamma                 90.222647
_cell_volume                      4304.97807086

loop_
_atom_site_label
_atom_site_type_symbol
_atom_type_description
_atom_site_fract_x
_atom_site_fract_y
_atom_site_fract_z
_atom_type_partial_charge
C1    C     C_R   0.726123 0.952101 0.359611 0.581501
C2    C     C_R   0.275365 0.954454 0.639553 0.551466
C3    C     C_R   0.226123 0.452101 0.359611 0.581501
C4    C     C_R   0.775365 0.454454 0.639552 0.551466
C5    C     C_3   0.688683 0.469694 0.454789 -0.238319
C6    C     C_3   0.313809 0.461132 0.545988 -0.214497
C7    C     C_3   0.188683 0.969694 0.454789 -0.238319
C8    C     C_3   0.813809 0.961132 0.545988 -0.214496
C9    C     C_3   0.827476 0.430127 0.531749 0.132723
C10   C     C_3   0.174981 0.408117 0.465000 0.113264
C11   C     C_3   0.327476 0.930127 0.531749 0.132724
C12   C     C_3   0.674981 0.908117 0.465000 0.113265
C13   C     C_3   0.733254 0.288759 0.563631 0.278498
C14   C     C_3   0.281447 0.293234 0.434729 0.286224
C15   C     C_3   0.233253 0.788759 0.563631 0.278498
C16   C     C_3   0.781447 0.793234 0.434729 0.286225
C17   C     C_3   0.758848 0.416623 0.568775 -0.015213
C18   C     C_3   0.244927 0.412616 0.430308 -0.021167
C19   C     C_3   0.258848 0.916623 0.568775 -0.015213
C20   C     C_3   0.744927 0.912616 0.430308 -0.021167
C21   C     C_3   0.732497 0.360185 0.439677 -0.083525
C22   C     C_3   0.268804 0.352870 0.559223 -0.099621
C23   C     C_3   0.232497 0.860185 0.439677 -0.083525
C24   C     C_3   0.768804 0.852870 0.559223 -0.099622
C25   C     C_3   0.810170 0.392953 0.457831 0.150725
C26   C     C_3   0.191218 0.382493 0.539735 0.146746
C27   C     C_3   0.310170 0.892953 0.457831 0.150725
C28   C     C_3   0.691218 0.882493 0.539735 0.146747
C29   C     C_3   0.707629 0.262084 0.487541 -0.234727
C30   C     C_3   0.292992 0.255052 0.510869 -0.262165
C31   C     C_3   0.207629 0.762084 0.487541 -0.234727
C32   C     C_3   0.792993 0.755052 0.510869 -0.262165
C33   C     C_3   0.492469 0.311148 0.961818 0.082346
C34   C     C_3   0.507487 0.311014 0.038564 0.081865
C35   C     C_3   0.992468 0.811148 0.961818 0.082348
C36   C     C_3   0.007487 0.811014 0.038564 0.081865
C37   C     C_3   0.428519 0.112567 0.967587 0.581815
C38   C     C_3   0.571350 0.113233 0.032138 0.582388
C39   C     C_3   0.928520 0.612567 0.967587 0.581816
C40   C     C_3   0.071350 0.613233 0.032138 0.582389
C41   C     C_3   0.555540 0.111342 0.953751 0.266164
C42   C     C_3   0.444349 0.110307 0.045953 0.265781
C43   C     C_3   0.055540 0.611343 0.953751 0.266162
C44   C     C_3   0.944349 0.610307 0.045953 0.265780
C45   C     C_R   0.537979 0.181084 0.339477 0.527665
C46   C     C_R   0.462641 0.180998 0.660903 0.514540
C47   C     C_R   0.037979 0.681084 0.339477 0.527664
C48   C     C_R   0.962641 0.680998 0.660903 0.514537
C49   C     C_3   0.487674 0.178864 0.933532 -0.095783
C50   C     C_3   0.512245 0.178548 0.066433 -0.095452
C51   C     C_3   0.987674 0.678864 0.933532 -0.095783
C52   C     C_3   0.012245 0.678548 0.066433 -0.095451
C53   C     C_1   0.762222 0.428696 0.904750 0.154681
C54   C     C_1   0.237656 0.428419 0.095224 0.153957
C55   C     C_1   0.262222 0.928696 0.904750 0.154682
C56   C     C_1   0.737656 0.928419 0.095224 0.153958
C57   C     C_1   0.748717 0.405510 0.034654 0.103753
C58   C     C_1   0.251393 0.405829 0.965362 0.102333
C59   C     C_1   0.248717 0.905510 0.034654 0.103756
C60   C     C_1   0.751393 0.905829 0.965362 0.102337
C61   C     C_1   0.754546 0.416511 0.964150 0.140542
C62   C     C_1   0.245409 0.416461 0.035833 0.138759
C63   C     C_1   0.254546 0.916511 0.964150 0.140543
C64   C     C_1   0.745409 0.916461 0.035833 0.138762
C65   C     C_1   0.743833 0.390498 0.094433 0.090727
C66   C     C_1   0.256335 0.391026 0.905574 0.089162
C67   C     C_1   0.243833 0.890498 0.094433 0.090729
C68   C     C_1   0.756335 0.891026 0.905574 0.089165
C69   C     C_R   0.724491 0.315942 0.367840 0.542486
C70   C     C_R   0.276053 0.312791 0.632176 0.542262
C71   C     C_R   0.224491 0.815942 0.367840 0.542485
C72   C     C_R   0.776053 0.812791 0.632176 0.542261
C73   C     C_R   0.722168 0.954835 0.163037 0.609512
C74   C     C_R   0.277829 0.955101 0.836962 0.601587
C75   C     C_R   0.222169 0.454835 0.163037 0.609512
C76   C     C_R   0.777829 0.455101 0.836962 0.601587
C77   C     C_R   0.532979 0.180008 0.140676 0.646995
C78   C     C_R   0.466952 0.180313 0.859326 0.645458
C79   C     C_R   0.032979 0.680008 0.140676 0.646994
C80   C     C_R   0.966952 0.680313 0.859326 0.645454
C81   C     C_R   0.735936 0.356775 0.163290 0.603711
C82   C     C_R   0.264065 0.357268 0.836668 0.603084
C83   C     C_R   0.235936 0.856775 0.163290 0.603711
C84   C     C_R   0.764065 0.857268 0.836668 0.603083
C85   C     C_1   0.483545 0.176393 0.593763 0.051524
C86   C     C_1   0.518367 0.176811 0.407136 0.077347
C87   C     C_1   0.983545 0.676393 0.593763 0.051520
C88   C     C_1   0.018367 0.676811 0.407136 0.077347
C89   C     C_1   0.507479 0.177413 0.465990 0.091550
C90   C     C_1   0.494978 0.177183 0.535092 0.081355
C91   C     C_1   0.007480 0.677414 0.465990 0.091551
C92   C     C_1   0.994978 0.677183 0.535092 0.081354
C93   C     C_3   0.695020 0.488933 0.532707 -0.342875
C94   C     C_3   0.302584 0.494788 0.469908 -0.314132
C95   C     C_3   0.195020 0.988933 0.532707 -0.342875
C96   C     C_3   0.802584 0.994788 0.469908 -0.314132
Cr1   Cr    Cr6+3 0.765780 0.160710 0.267420 1.091085
Cr2   Cr    Cr6+3 0.234220 0.160710 0.732580 1.084158
Cr3   Cr    Cr6+3 0.265780 0.660710 0.267420 1.091082
Cr4   Cr    Cr6+3 0.734220 0.660710 0.732580 1.084148
Cr5   Cr    Cr6+3 0.612200 0.009560 0.248850 1.122508
Cr6   Cr    Cr6+3 0.387800 0.009560 0.751150 1.150961
Cr7   Cr    Cr6+3 0.112200 0.509560 0.248850 1.122506
Cr8   Cr    Cr6+3 0.887800 0.509560 0.751150 1.150957
Cr9   Cr    Cr6+3 0.616030 0.323720 0.248510 1.142751
Cr10  Cr    Cr6+3 0.383970 0.323720 0.751490 1.130431
Cr11  Cr    Cr6+3 0.116030 0.823720 0.248510 1.142760
Cr12  Cr    Cr6+3 0.883970 0.823720 0.751490 1.130460
H1    H     H_    0.690171 0.582575 0.547476 0.163131
H2    H     H_    0.299894 0.590381 0.461673 0.177955
H3    H     H_    0.190171 0.082575 0.547476 0.163131
H4    H     H_    0.799894 0.090381 0.461673 0.177955
H5    H     H_    0.713784 0.171174 0.472099 0.121038
H6    H     H_    0.267809 0.171755 0.516008 0.130447
H7    H     H_    0.213784 0.671174 0.472099 0.121038
H8    H     H_    0.767809 0.671755 0.516008 0.130447
H9    H     H_    0.836832 0.307523 0.451453 0.206566
H10   H     H_    0.164978 0.298225 0.548944 0.193814
H11   H     H_    0.336832 0.807523 0.451453 0.206566
H12   H     H_    0.664978 0.798225 0.548944 0.193813
H13   H     H_    0.439641 0.346354 0.949068 0.226449
H14   H     H_    0.560341 0.346859 0.051403 0.226405
H15   H     H_    0.939640 0.846354 0.949068 0.226450
H16   H     H_    0.060341 0.846859 0.051403 0.226408
H17   H     H_    0.549263 0.017690 0.935648 0.193159
H18   H     H_    0.450572 0.016623 0.063612 0.192488
H19   H     H_    0.049264 0.517691 0.935648 0.193153
H20   H     H_    0.950572 0.516623 0.063612 0.192486
H21   H     H_    0.646667 0.453917 0.550702 0.137368
H22   H     H_    0.352700 0.480667 0.449030 0.136341
H23   H     H_    0.146667 0.953917 0.550702 0.137369
H24   H     H_    0.852700 0.980667 0.449030 0.136341
H25   H     H_    0.633433 0.456679 0.434874 0.173737
H26   H     H_    0.369423 0.441364 0.560804 0.154059
H27   H     H_    0.133433 0.956679 0.434874 0.173737
H28   H     H_    0.869423 0.941364 0.560804 0.154060
H29   H     H_    0.706500 0.547842 0.430034 0.289811
H30   H     H_    0.301193 0.532524 0.578655 0.300795
H31   H     H_    0.206500 0.047842 0.430034 0.289810
H32   H     H_    0.801193 0.032524 0.578655 0.300795
H33   H     H_    0.341443 0.025098 0.535593 0.109235
H34   H     H_    0.653167 0.998347 0.458007 0.151214
H35   H     H_    0.841443 0.525098 0.535593 0.109235
H36   H     H_    0.153167 0.498348 0.458007 0.151214
H37   H     H_    0.690026 0.276988 0.595283 0.187892
H38   H     H_    0.332404 0.301227 0.414787 0.177705
H39   H     H_    0.190026 0.776988 0.595283 0.187893
H40   H     H_    0.832404 0.801227 0.414787 0.177706
H41   H     H_    0.650252 0.265365 0.482143 0.105992
H42   H     H_    0.348741 0.238220 0.525593 0.103845
H43   H     H_    0.150252 0.765365 0.482143 0.105992
H44   H     H_    0.848741 0.738220 0.525593 0.103845
O1    O     O_R   0.783100 0.287550 0.345460 -0.462785
O2    O     O_R   0.216900 0.287550 0.654540 -0.460067
O3    O     O_R   0.283100 0.787550 0.345460 -0.462786
O4    O     O_R   0.716900 0.787550 0.654540 -0.460071
O5    O     O_R   0.554710 0.081900 0.170950 -0.453945
O6    O     O_R   0.445290 0.081900 0.829050 -0.448874
O7    O     O_R   0.054710 0.581900 0.170950 -0.453947
O8    O     O_R   0.945290 0.581900 0.829050 -0.448878
O9    O     O_R   0.545650 0.284910 0.163740 -0.450024
O10   O     O_R   0.454350 0.284910 0.836260 -0.451501
O11   O     O_R   0.045650 0.784910 0.163740 -0.450018
O12   O     O_R   0.954350 0.784910 0.836260 -0.451480
O13   O     O_R   0.677950 0.374280 0.185410 -0.457788
O14   O     O_R   0.322050 0.374280 0.814590 -0.460740
O15   O     O_R   0.177950 0.874280 0.185410 -0.457787
O16   O     O_R   0.822050 0.874280 0.814590 -0.460738
O17   O     O_3   0.664670 0.164660 0.254930 -0.329344
O18   O     O_3   0.335330 0.164660 0.745070 -0.329749
O19   O     O_3   0.164670 0.664660 0.254930 -0.329344
O20   O     O_3   0.835330 0.664660 0.745070 -0.329750
O21   O     O_R   0.760020 0.037400 0.337700 -0.554294
O22   O     O_R   0.239980 0.037400 0.662300 -0.558722
O23   O     O_R   0.260020 0.537400 0.337700 -0.554294
O24   O     O_R   0.739980 0.537400 0.662300 -0.558724
O25   O     O_R   0.666600 0.921990 0.332020 -0.433479
O26   O     O_R   0.333400 0.921990 0.667980 -0.399557
O27   O     O_R   0.166600 0.421990 0.332020 -0.433479
O28   O     O_R   0.833400 0.421990 0.667980 -0.399555
O29   O     O_R   0.557260 0.082670 0.312540 -0.496990
O30   O     O_R   0.442740 0.082670 0.687460 -0.466165
O31   O     O_R   0.057260 0.582670 0.312540 -0.496990
O32   O     O_R   0.942740 0.582670 0.687460 -0.466168
O33   O     O_R   0.548410 0.285740 0.316480 -0.521358
O34   O     O_R   0.451590 0.285740 0.683520 -0.524836
O35   O     O_R   0.048410 0.785740 0.316480 -0.521355
O36   O     O_R   0.951590 0.785740 0.683520 -0.524827
O37   O     O_R   0.680500 0.375040 0.327000 -0.451382
O38   O     O_R   0.319500 0.375040 0.673000 -0.460375
O39   O     O_R   0.180500 0.875040 0.327000 -0.451381
O40   O     O_R   0.819500 0.875040 0.673000 -0.460373
O41   O     O_R   0.780350 0.286720 0.192720 -0.493893
O42   O     O_R   0.219650 0.286720 0.807280 -0.491763
O43   O     O_R   0.280350 0.786720 0.192720 -0.493893
O44   O     O_R   0.719650 0.786720 0.807280 -0.491762
O45   O     O_R   0.757470 0.036630 0.196110 -0.492230
O46   O     O_R   0.242530 0.036630 0.803890 -0.493697
O47   O     O_R   0.257470 0.536630 0.196110 -0.492230
O48   O     O_R   0.742530 0.536630 0.803890 -0.493700
O49   O     O_R   0.663840 0.921160 0.179280 -0.443377
O50   O     O_R   0.336160 0.921160 0.820720 -0.442851
O51   O     O_R   0.163840 0.421160 0.179280 -0.443379
O52   O     O_R   0.836160 0.421160 0.820720 -0.442854
S1    S     S_3+6 0.909937 0.351228 0.560129 0.109806
O53   O     O_2   0.902569 0.220037 0.545617 -0.263263
O54   O     O_2   0.962037 0.399404 0.516783 -0.146205
O55   O     O_3   0.945886 0.365793 0.641058 -0.448458
H45   H     H_    0.974150 0.293476 0.650675 0.370735
S2    S     S_3+6 0.102231 0.309301 0.430011 0.078736
O56   O     O_2   0.122448 0.214210 0.382808 -0.229614
O57   O     O_2   0.066746 0.248899 0.484385 -0.218787
O58   O     O_3   0.042837 0.394650 0.386414 -0.438493
H46   H     H_    0.031491 0.354130 0.341964 0.368191
S3    S     S_3+6 0.409937 0.851228 0.560129 0.109806
O59   O     O_2   0.402569 0.720037 0.545617 -0.263265
O60   O     O_2   0.462037 0.899404 0.516783 -0.146203
O61   O     O_3   0.445886 0.865793 0.641058 -0.448457
H47   H     H_    0.474150 0.793476 0.650675 0.370732
S4    S     S_3+6 0.602231 0.809301 0.430011 0.078736
O62   O     O_2   0.622447 0.714210 0.382808 -0.229615
O63   O     O_2   0.566747 0.748899 0.484385 -0.218788
O64   O     O_3   0.542837 0.894650 0.386414 -0.438492
H48   H     H_    0.531491 0.854130 0.341964 0.368191
S5    S     S_3+6 0.547531 0.419147 0.923070 0.083660
O65   O     O_2   0.596377 0.483413 0.975190 -0.270172
O66   O     O_2   0.588483 0.362230 0.871806 -0.214635
O67   O     O_3   0.495093 0.521185 0.882578 -0.468207
H49   H     H_    0.526150 0.575645 0.860929 0.364910
S6    S     S_3+6 0.452533 0.418243 0.077727 0.084647
O68   O     O_2   0.403915 0.482388 0.025832 -0.271407
O69   O     O_2   0.411356 0.360599 0.128610 -0.211242
O70   O     O_3   0.505082 0.520530 0.118818 -0.466460
H50   H     H_    0.474073 0.574536 0.140675 0.365469
S7    S     S_3+6 0.047531 0.919148 0.923071 0.083653
O71   O     O_2   0.096376 0.983413 0.975191 -0.270220
O72   O     O_2   0.088483 0.862232 0.871806 -0.214591
O73   O     O_3   0.995092 0.021184 0.882579 -0.468227
H51   H     H_    0.026153 0.075709 0.860981 0.364929
S8    S     S_3+6 0.952533 0.918243 0.077727 0.084639
O74   O     O_2   0.903915 0.982388 0.025832 -0.271429
O75   O     O_2   0.911355 0.860599 0.128610 -0.211228
O76   O     O_3   0.005082 0.020530 0.118819 -0.466468
H52   H     H_    0.974070 0.074554 0.140660 0.365474
F1    F     F_    0.365602 0.167987 0.949545 -0.595433
F2    F     F_    0.634300 0.169344 0.050470 -0.595913
F3    F     F_    0.865602 0.667985 0.949545 -0.595432
F4    F     F_    0.134300 0.669345 0.050470 -0.595912
F5    F     F_    0.389806 0.156126 0.076586 -0.562186
F6    F     F_    0.610141 0.158072 0.923378 -0.563074
F7    F     F_    0.889806 0.656126 0.076586 -0.562186
F8    F     F_    0.110141 0.658074 0.923378 -0.563076
F9    F     F_    0.577656 0.996176 0.054081 -0.617714
F10   F     F_    0.422124 0.995538 0.945153 -0.617897
F11   F     F_    0.077656 0.496176 0.054080 -0.617720
F12   F     F_    0.922125 0.495537 0.945154 -0.617903
S9    S     S_3+6 0.346301 0.992645 0.397896 0.060544
O77   O     O_2   0.293536 0.031120 0.340932 -0.185401
O78   O     O_2   0.377735 0.100080 0.432964 -0.346826
O79   O     O_3   0.407763 0.918344 0.362848 -0.451467
H53   H     H_    0.416362 0.965663 0.322402 0.362449
S10   S     S_3+6 0.654149 0.990685 0.594428 0.033642
O80   O     O_2   0.705805 0.034989 0.651189 -0.230033
O81   O     O_2   0.625754 0.095123 0.554750 -0.376905
O82   O     O_3   0.589248 0.923628 0.628814 -0.448793
H54   H     H_    0.577951 0.978088 0.665389 0.371164
S11   S     S_3+6 0.846301 0.492645 0.397896 0.060544
O83   O     O_2   0.793536 0.531120 0.340932 -0.185401
O84   O     O_2   0.877735 0.600080 0.432964 -0.346827
O85   O     O_3   0.907763 0.418344 0.362848 -0.451467
H55   H     H_    0.916362 0.465664 0.322402 0.362449
S12   S     S_3+6 0.154149 0.490685 0.594428 0.033643
O86   O     O_2   0.205806 0.534990 0.651189 -0.230030
O87   O     O_2   0.125754 0.595123 0.554750 -0.376907
O88   O     O_3   0.089249 0.423627 0.628815 -0.448793
H56   H     H_    0.077949 0.478091 0.665386 0.371165
F13   F     F_    0.785107 0.216545 0.590330 -0.597245
F14   F     F_    0.246466 0.212625 0.392565 -0.566702
F15   F     F_    0.285107 0.716545 0.590330 -0.597245
F16   F     F_    0.746466 0.712625 0.392565 -0.566702

loop_
_geom_bond_atom_site_label_1
_geom_bond_atom_site_label_2
_ccdc_geom_bond_type
C8    H32   S    
C36   S8    S    
C39   C51   S    
Cr2   O2    S    
C58   C62   S    
C46   O30   A    
C72   O4    A    
Cr3   O43   S    
S4    O64   S    
C8    H28   S    
Cr10  O18   S    
C14   C18   S    
C35   C36   S    
C8    C96   S    
C13   H37   S    
C43   C51   S    
Cr6   O6    S    
S10   O82   S    
S4    O63   D    
C9    H35   S    
C13   F13   S    
Cr11  O19   S    
O58   H46   S    
C67   C83   S    
Cr12  O12   S    
C11   C19   S    
C14   F14   S    
C94   H22   S    
Cr9   O17   S    
C3    C18   S    
Cr7   O31   S    
Cr12  O16   S    
Cr8   O52   S    
C10   C18   S    
C13   C29   S    
C36   H16   S    
Cr8   O8    S    
C48   O36   A    
C33   S5    S    
S3    O60   D    
C79   O7    A    
Cr2   O22   S    
S11   O85   S    
C28   S10   S    
C27   H11   S    
C30   H42   S    
Cr3   O19   S    
C33   C49   S    
O76   H52   S    
C38   F2    S    
Cr11  O35   S    
S5    O67   S    
Cr1   O17   S    
C49   C78   S    
Cr2   O42   S    
S6    O70   S    
S9    O77   D    
Cr11  O39   S    
Cr1   O41   S    
C37   C42   S    
C37   F10   S    
C3    O27   A    
C51   C80   S    
C80   O12   A    
C21   C25   S    
C59   C67   T    
C40   F11   S    
C53   C61   T    
C43   F8    S    
C58   C66   T    
C40   C43   S    
C74   O46   A    
C42   F5    S    
C12   H34   S    
S12   O86   D    
C6    C94   S    
C55   C63   T    
C41   F6    S    
S7    O72   D    
S7    O71   D    
C56   C64   T    
Cr5   O17   S    
S1    O53   D    
C40   C52   S    
Cr1   O1    S    
C52   C79   S    
O70   H50   S    
C35   C51   S    
Cr7   O27   S    
C36   C52   S    
Cr5   O49   S    
C96   H24   S    
C46   C85   S    
Cr7   O7    S    
C10   C26   S    
S1    O54   D    
C11   S3    S    
C20   C96   S    
Cr5   O5    S    
C34   H14   S    
C87   C92   T    
Cr7   O19   S    
C55   C74   S    
Cr6   O26   S    
C34   S6    S    
C1    O25   A    
C4    O28   A    
C93   H21   S    
C1    O21   A    
C41   C49   S    
S4    O62   D    
C40   F4    S    
C10   S2    S    
S5    O65   D    
Cr4   O44   S    
S12   O87   D    
C77   O9    A    
C27   S9    S    
C85   C90   T    
Cr11  O15   S    
C34   C50   S    
C78   O6    A    
Cr2   O46   S    
C9    C25   S    
Cr6   O30   S    
Cr1   O45   S    
Cr1   O21   S    
Cr10  O34   S    
O64   H48   S    
C47   O31   A    
C28   H12   S    
S3    O61   S    
C43   H19   S    
C91   C92   S    
C48   O32   A    
C75   O51   A    
O55   H45   S    
S10   O81   D    
C39   F12   S    
C74   O50   A    
C23   C31   S    
C14   C30   S    
C73   O49   A    
C15   C31   S    
C95   H23   S    
S8    O76   S    
C69   O1    A    
C54   C75   S    
C73   O45   A    
S9    O78   D    
C68   C84   S    
C6    H30   S    
C33   H13   S    
C15   C19   S    
S3    O59   D    
C24   C32   S    
Cr4   O24   S    
C84   O16   A    
C7    C95   S    
C41   H17   S    
C66   C82   S    
C31   H43   S    
C44   F7    S    
C65   C81   S    
C32   H44   S    
C88   C91   T    
C11   C27   S    
C16   C20   S    
C71   O3    A    
C12   C20   S    
S8    O75   D    
C33   C34   S    
C5    H25   S    
C48   C87   S    
C5    C21   S    
C10   H36   S    
C46   O34   A    
S6    O69   D    
C11   H33   S    
C77   O5    A    
C37   C49   S    
S10   O80   D    
C37   F1    S    
C42   C50   S    
C39   F3    S    
C4    C17   S    
Cr4   O48   S    
S2    O57   D    
C9    C17   S    
C32   H8    S    
Cr8   O32   S    
O88   H56   S    
Cr11  O11   S    
C78   O10   A    
C23   C27   S    
Cr12  O20   S    
C76   O48   A    
C18   C94   S    
S7    O73   S    
Cr3   O3    S    
C83   O15   A    
C53   C76   S    
C17   C93   S    
Cr4   O4    S    
C26   S12   S    
C69   O37   A    
C50   C77   S    
Cr10  O14   S    
C21   C69   S    
C19   C95   S    
Cr4   O20   S    
C24   C72   S    
O82   H54   S    
S1    O55   S    
C3    O23   A    
O61   H47   S    
C29   H5    S    
O73   H51   S    
C44   H20   S    
C1    C20   S    
C81   O13   A    
C56   C73   S    
C22   C30   S    
C2    C19   S    
C70   O2    A    
C59   C63   S    
Cr12  O36   S    
C70   O38   A    
Cr8   O28   S    
C24   C28   S    
C79   O11   A    
O79   H53   S    
C22   C26   S    
C86   C89   T    
C25   H9    S    
C44   C52   S    
C45   O29   A    
C5    C93   S    
S11   O83   D    
C76   O52   A    
C57   C61   S    
C39   C44   S    
C38   C50   S    
Cr10  O10   S    
C75   O47   A    
C16   C32   S    
S2    O58   S    
C54   C62   T    
C14   H38   S    
Cr9   O33   S    
C96   H4    S    
C26   H10   S    
Cr8   O20   S    
C60   C64   S    
C82   O14   A    
C71   O39   A    
C47   C88   S    
S9    O79   S    
C15   F15   S    
C45   C86   S    
Cr6   O50   S    
C94   H2    S    
C5    H29   S    
C16   F16   S    
C95   H3    S    
C2    O22   A    
C72   O40   A    
C7    H31   S    
S11   O84   D    
C45   O33   A    
C16   H40   S    
C25   S11   S    
C12   S4    S    
C21   C29   S    
Cr6   O18   S    
C84   O44   A    
S12   O88   S    
C7    C23   S    
C81   O41   A    
C35   H15   S    
S8    O74   D    
S5    O66   D    
Cr9   O37   S    
Cr9   O13   S    
C30   H6    S    
Cr9   O9    S    
C35   S7    S    
C31   H7    S    
C83   O43   A    
S6    O68   D    
Cr5   O29   S    
Cr7   O51   S    
C82   O42   A    
C29   H41   S    
C80   O8    A    
C7    H27   S    
C42   H18   S    
O67   H49   S    
C13   C17   S    
Cr2   O18   S    
C38   F9    S    
Cr3   O23   S    
C8    C24   S    
C60   C68   T    
C23   C71   S    
C6    H26   S    
S2    O56   D    
C4    O24   A    
Cr3   O47   S    
C38   C41   S    
C15   H39   S    
Cr10  O38   S    
O85   H55   S    
Cr12  O40   S    
C9    S1    S    
C2    O26   A    
C12   C28   S    
C89   C90   S    
C47   O35   A    
C22   C70   S    
Cr5   O25   S    
C93   H1    S    
C57   C65   T    
C6    C22   S    
