data_mof_unit_44635.cif
_audit_creation_date              2013-03-05T15:58:19-0500
_audit_creation_method            fapswitch 2.2
_symmetry_space_group_name_H-M    P1
_symmetry_Int_Tables_number       1
_space_group_crystal_system       triclinic
_cell_length_a                    14.954176
_cell_length_b                    15.075727
_cell_length_c                    15.116191
_cell_angle_alpha                 110.863931
_cell_angle_beta                  108.701129
_cell_angle_gamma                 108.457742
_cell_volume                      2634.89400861

loop_
_atom_site_label
_atom_site_type_symbol
_atom_site_description
_atom_site_fract_x
_atom_site_fract_y
_atom_site_fract_z
_atom_type_partial_charge
C1    C     C_R   0.910072 0.197474 0.995440 -0.129186
C2    C     C_R   0.027239 0.751951 0.939132 -0.073780
H1    H     H_    0.852506 0.172266 0.021684 0.100712
H2    H     H_    0.063848 0.766446 0.891341 0.110196
N1    N     N_R   0.947560 0.293820 0.002910 -0.041697
N2    N     N_R   0.052440 0.706180 0.997090 -0.048007
C3    C     C_R   0.307081 0.791473 0.219536 -0.135169
C4    C     C_R   0.686901 0.248060 0.776375 -0.111326
H3    H     H_    0.363587 0.823861 0.194549 0.102512
H4    H     H_    0.621418 0.226773 0.794266 0.096888
N3    N     N_R   0.208960 0.706170 0.152110 -0.038339
N4    N     N_R   0.791040 0.293830 0.847890 -0.043459
C5    C     C_R   0.224229 0.407446 0.970477 -0.123534
C6    C     C_R   0.786381 0.589828 0.093237 -0.144767
H5    H     H_    0.205116 0.323293 0.935549 0.125183
H6    H     H_    0.812091 0.672943 0.149798 0.107198
N5    N     N_R   0.154330 0.443160 0.946140 -0.045801
N6    N     N_R   0.845670 0.556840 0.053860 -0.040785
C7    C     C_R   0.045865 0.591527 0.314311 -0.125983
C8    C     C_R   0.001270 0.407737 0.699433 -0.182065
H7    H     H_    0.080782 0.673509 0.379064 0.133304
H8    H     H_    0.975653 0.324397 0.644307 0.121977
N7    N     N_R   0.002190 0.556820 0.208880 -0.043649
N8    N     N_R   0.997810 0.443180 0.791120 -0.038318
C9    C     C_R   0.314721 0.590314 0.060917 -0.146621
C10   C     C_R   0.698446 0.408554 0.001288 -0.123092
H9    H     H_    0.378342 0.673631 0.107959 0.094278
H10   H     H_    0.644877 0.324995 0.973050 0.089361
N9    N     N_R   0.210550 0.556810 0.002910 -0.039098
N10   N     N_R   0.789450 0.443190 0.997090 -0.038316
C11   C     C_R   0.965515 0.408599 0.221177 -0.123431
C12   C     C_R   0.087043 0.589333 0.787748 -0.120230
H11   H     H_    0.936859 0.324966 0.200253 0.103400
H12   H     H_    0.138984 0.672377 0.813130 0.120051
N11   N     N_R   0.945970 0.443180 0.152110 -0.041022
N12   N     N_R   0.054030 0.556820 0.847890 -0.043645
C13   C     C_R   0.216613 0.782391 0.311671 -0.121857
C14   C     C_R   0.782758 0.264276 0.690865 -0.146256
H13   H     H_    0.191070 0.798661 0.370859 0.123941
H14   H     H_    0.806949 0.271950 0.633338 0.131332
N13   N     N_R   0.151530 0.706170 0.208880 -0.043003
N14   N     N_R   0.848470 0.293830 0.791120 -0.046286
C15   C     C_R   0.999248 0.197588 0.902643 -0.119659
C16   C     C_R   0.929866 0.745265 0.024935 -0.133487
H15   H     H_    0.018244 0.172722 0.838515 0.098021
H16   H     H_    0.870855 0.744485 0.050410 0.119677
N15   N     N_R   0.004980 0.293810 0.946140 -0.042290
N16   N     N_R   0.995020 0.706190 0.053860 -0.045494
C17   C     C_R   0.940655 0.133952 0.931930 0.083525
C18   C     C_R   0.948860 0.777036 0.953830 0.062485
C19   C     C_R   0.314512 0.839195 0.321080 0.064603
C20   C     C_R   0.680080 0.225912 0.675634 0.062554
C21   C     C_R   0.324806 0.498264 0.042157 0.046519
C22   C     C_R   0.695273 0.498311 0.061466 0.050729
C23   C     C_R   0.024609 0.499957 0.322474 0.058334
C24   C     C_R   0.054531 0.496937 0.695318 0.053787
H17   H     H_    0.149384 0.114598 0.651835 0.133564
H18   H     H_    0.709852 0.832114 0.220713 0.123284
C25   C     C_R   0.942144 0.866260 0.845406 -0.133807
C26   C     C_R   0.848232 0.973063 0.938307 -0.137714
C27   C     C_R   0.001241 0.007217 0.633565 -0.080001
C28   C     C_R   0.844675 0.917470 0.207182 -0.101236
H19   H     H_    0.953695 0.981756 0.549556 0.109313
H20   H     H_    0.897954 0.964134 0.293739 0.105515
Ni1   Ni    Ni4+2 0.869690 0.369690 0.000000 0.219373
Ni2   Ni    Ni4+2 0.130310 0.630310 0.000000 0.226083
Ni3   Ni    Ni4+2 0.001390 0.369680 0.869810 0.208072
Ni4   Ni    Ni4+2 0.998610 0.630320 0.130190 0.223615
C29   C     C_R   0.951646 0.965686 0.684126 -0.154953
C30   C     C_R   0.881229 0.933995 0.137473 -0.169730
H21   H     H_    0.259700 0.165342 0.839731 0.152101
H22   H     H_    0.584898 0.729145 0.023775 0.133032
H23   H     H_    0.523228 0.303510 0.174046 0.154921
H24   H     H_    0.496155 0.833148 0.994903 0.156358
C31   C     C_R   0.673265 0.437775 0.314599 -0.122738
C32   C     C_R   0.378502 0.664835 0.878649 -0.076575
H25   H     H_    0.636855 0.485726 0.341943 0.120378
H26   H     H_    0.402344 0.636607 0.933915 0.107237
C33   C     C_R   0.783779 0.476576 0.375917 -0.131532
C34   C     C_R   0.293134 0.590324 0.773341 -0.071624
H27   H     H_    0.831835 0.554105 0.451198 0.139132
H28   H     H_    0.252263 0.505435 0.749161 0.104595
C35   C     C_R   0.830712 0.412636 0.343554 0.111786
C36   C     C_R   0.255685 0.626474 0.702711 0.089778
C37   C     C_R   0.766111 0.311412 0.247560 -0.123449
C38   C     C_R   0.312411 0.736847 0.735826 -0.127399
H29   H     H_    0.799803 0.259684 0.223704 0.151471
H30   H     H_    0.285826 0.766727 0.682790 0.157966
C39   C     C_R   0.656254 0.273961 0.184799 -0.075319
C40   C     C_R   0.400062 0.810746 0.840426 -0.027864
H31   H     H_    0.606591 0.195223 0.111091 0.152886
H32   H     H_    0.441665 0.896073 0.866540 0.130188
C41   C     C_R   0.609363 0.335758 0.219845 -0.099260
C42   C     C_R   0.431220 0.775166 0.912669 -0.086557
C43   C     C_R   0.953823 0.435522 0.510442 -0.216279
C44   C     C_R   0.137978 0.552613 0.506570 -0.194048
H33   H     H_    0.882082 0.394416 0.514275 0.145497
H34   H     H_    0.208184 0.597178 0.502734 0.138478
C45   C     C_R   0.055926 0.491498 0.600500 0.060010
C46   C     C_R   0.034695 0.497606 0.417372 0.074525
C47   C     C_R   0.149663 0.553558 0.601687 0.033749
C48   C     C_R   0.941262 0.444098 0.420859 0.016963
H35   H     H_    0.865240 0.911072 0.639278 0.132764
H36   H     H_    0.964163 0.994037 0.170972 0.140815
H37   H     H_    0.460025 0.429740 0.178712 0.137671
H38   H     H_    0.560551 0.556822 0.951408 0.172661
C49   C     C_R   0.012127 0.997117 0.792906 -0.057945
C50   C     C_R   0.811928 0.870616 0.024518 -0.069851
C51   C     C_R   0.173823 0.109687 0.797817 -0.216141
C52   C     C_R   0.667986 0.782647 0.054068 -0.234202
H39   H     H_    0.997321 0.864825 0.432744 0.142068
H40   H     H_    0.896293 0.124404 0.368329 0.140662
C53   C     C_R   0.105886 0.952083 0.391838 -0.193922
C54   C     C_R   0.857554 0.108493 0.489029 -0.220371
H41   H     H_    0.043076 0.944553 0.325224 0.132760
H42   H     H_    0.936600 0.122933 0.539225 0.130705
C55   C     C_R   0.211727 0.999728 0.411178 -0.117905
C56   C     C_R   0.777875 0.087775 0.519862 -0.161190
H43   H     H_    0.228640 0.027443 0.358439 0.135121
H44   H     H_    0.794209 0.080823 0.591578 0.132381
C57   C     C_R   0.292989 0.000830 0.490766 0.066393
C58   C     C_R   0.680846 0.084589 0.462389 0.065626
C59   C     C_R   0.269456 0.962413 0.557176 -0.270327
C60   C     C_R   0.657535 0.081590 0.363145 -0.225020
H45   H     H_    0.331517 0.960948 0.617264 0.155016
H46   H     H_    0.578778 0.067681 0.311833 0.158996
C61   C     C_R   0.162626 0.912969 0.536176 0.388812
C62   C     C_R   0.732162 0.088411 0.325974 0.389238
C63   C     C_R   0.080672 0.906881 0.452553 -0.204863
C64   C     C_R   0.835156 0.110275 0.392823 -0.162774
C65   C     C_R   0.485976 0.119518 0.567924 -0.239845
C66   C     C_R   0.504175 0.962440 0.418737 -0.245171
H47   H     H_    0.479678 0.178791 0.628814 0.136706
H48   H     H_    0.511744 0.901402 0.360938 0.133821
C67   C     C_R   0.585725 0.140946 0.572105 0.070638
C68   C     C_R   0.405056 0.940940 0.413995 0.067618
C69   C     C_R   0.593036 0.063477 0.490799 0.054627
C70   C     C_R   0.395108 0.020316 0.489391 0.050026
C71   C     C_R   0.111524 0.081166 0.690990 -0.132352
C72   C     C_R   0.738231 0.842049 0.165695 -0.084016
C73   C     C_R   0.853663 0.889838 0.953914 0.103680
C74   C     C_R   0.952480 0.961178 0.845383 0.092988
H49   H     H_    0.974092 0.822284 0.803227 0.133679
H50   H     H_    0.804857 0.008359 0.969651 0.141447
C75   C     C_R   0.125927 0.067642 0.850414 0.385733
C76   C     C_R   0.703319 0.794698 0.981737 0.377611
C77   C     C_R   0.908113 0.839528 0.913154 0.056995
C78   C     C_R   0.910179 0.019750 0.899103 0.019074
C79   C     C_3   0.496771 0.393183 0.030131 -0.133788
C80   C     C_3   0.530122 0.597455 0.103918 -0.188791
C81   C     C_3   0.433810 0.431042 0.963755 -0.154839
C82   C     C_3   0.593773 0.559990 0.170700 -0.165038
H51   H     H_    0.366911 0.378528 0.878484 0.116815
H52   H     H_    0.662014 0.612820 0.255187 0.119465
H53   H     H_    0.484447 0.309195 0.999589 0.124611
H54   H     H_    0.541572 0.680916 0.137242 0.105857
C83   C     C_3   0.425390 0.496473 0.061925 0.181878
C84   C     C_3   0.601399 0.495001 0.071799 0.164660
C85   C     C_3   0.486389 0.458458 0.128716 -0.104503
C86   C     C_3   0.538548 0.531923 0.005262 -0.147784
N17   N     N_R   0.192159 0.102774 0.962437 0.231221
O1    O     O_R   0.164129 0.043914 0.004091 -0.411482
O2    O     O_R   0.285364 0.191194 0.021995 -0.453266
N18   N     N_R   0.628798 0.730169 0.866737 0.229460
O3    O     O_R   0.632412 0.770545 0.804056 -0.403345
O4    O     O_R   0.552075 0.632253 0.824791 -0.433108
Br1   Br    Br    0.126807 0.841820 0.612019 -0.658008
Br2   Br    Br    0.687433 0.052165 0.178916 -0.701151

loop_
_geom_bond_atom_site_label_1
_geom_bond_atom_site_label_2
_geom_bond_distance
_ccdc_geom_bond_type
C18   C77   1.474029 S    
N7    Ni4   1.892387 S    
C14   H14   1.071133 S    
C80   C83   1.529003 S    
N5    N9    1.398843 A    
H24   C42   1.080146 S    
C2    H2    1.076888 S    
H23   C41   1.080126 S    
C8    C24   1.363746 A    
C43   C48   1.364809 A    
N17   O1    1.300482 A    
C29   C49   1.402264 A    
N18   O4    1.300690 A    
C28   C72   1.387736 A    
C3    N3    1.325945 A    
N1    N15   1.395076 A    
H17   C71   1.082386 S    
N8    N12   1.398717 A    
C80   C86   1.538111 S    
C1    N1    1.328045 A    
C81   C83   1.531934 S    
N18   O3    1.301548 A    
C35   C48   1.481004 S    
C9    C21   1.381508 A    
C14   N14   1.321979 A    
C65   C67   1.397600 A    
C79   C81   1.536666 S    
C49   C75   1.424586 A    
N12   Ni2   1.875856 S    
C59   H45   1.083301 S    
C14   C20   1.364285 A    
N11   Ni1   1.875855 S    
N6    Ni4   1.892695 S    
C27   C29   1.391582 A    
C44   C46   1.395811 A    
C28   C30   1.393323 A    
C3    H3    1.081620 S    
C56   C58   1.407210 A    
C27   H19   1.080046 S    
C6    N6    1.339590 A    
C28   H20   1.078240 S    
C2    C18   1.397852 A    
N8    Ni3   1.892388 S    
C32   C42   1.397508 A    
C59   C61   1.400287 A    
H39   C63   1.081804 S    
C8    N8    1.321003 A    
C25   C74   1.389910 A    
C44   H34   1.084950 S    
C23   C46   1.408062 S    
N4    N14   1.395202 A    
C11   H11   1.077161 S    
N6    N10   1.398842 A    
C6    H6    1.081640 S    
C4    N4    1.333664 A    
C39   H31   1.082172 S    
C15   N15   1.322763 A    
C79   C84   1.536087 S    
C4    C20   1.399116 A    
C5    C21   1.380244 A    
N3    Ni2   1.875938 S    
C34   C36   1.405279 A    
C60   C62   1.393663 A    
C29   H35   1.083559 S    
C82   C85   1.556436 S    
C25   H49   1.081255 S    
C83   C85   1.527249 S    
C80   H54   1.105909 S    
C44   C47   1.385914 A    
C84   C86   1.525996 S    
C36   C47   1.483979 S    
C54   C64   1.396049 A    
C2    N2    1.330138 A    
C10   C22   1.361003 A    
N15   Ni3   1.892527 S    
C50   C73   1.464734 S    
N17   O2    1.301593 A    
C16   H16   1.068518 S    
C40   C42   1.395188 A    
N13   Ni4   1.892861 S    
C50   C76   1.410045 A    
C37   H29   1.075641 S    
C9    N9    1.327044 A    
C13   H13   1.062412 S    
H22   C52   1.068439 S    
N5    Ni3   1.892697 S    
C38   H30   1.081641 S    
C32   H26   1.079079 S    
C74   C78   1.418309 A    
N1    Ni1   1.874195 S    
C38   C40   1.396737 A    
C52   C76   1.399576 A    
C33   H27   1.083428 S    
C37   C39   1.396207 A    
C27   C71   1.394512 A    
C66   C69   1.371410 A    
C76   N18   1.441127 S    
C39   C41   1.393071 A    
C17   C78   1.472311 S    
C53   H41   1.074065 S    
C1    H1    1.078016 S    
C12   H12   1.081152 S    
C57   C70   1.469493 S    
C75   N17   1.443060 S    
C7    N7    1.327556 A    
C61   C63   1.400344 A    
C26   C73   1.378234 A    
C22   C84   1.448923 S    
C31   H25   1.081943 S    
C19   C68   1.445556 S    
C40   H32   1.082446 S    
C66   C68   1.385037 A    
C46   C48   1.403398 A    
C61   Br1   1.912522 S    
N16   Ni4   1.892527 S    
C49   C74   1.473876 S    
C79   C85   1.553636 S    
C54   C56   1.399535 A    
N2    N16   1.395077 A    
C82   C84   1.531249 S    
C53   C55   1.392959 A    
C68   C70   1.415274 A    
C35   C37   1.399256 A    
C82   H52   1.109886 S    
C10   N10   1.325787 A    
N7    N11   1.398719 A    
C5    H5    1.080027 S    
N14   Ni3   1.892859 S    
C80   C82   1.540937 S    
C58   C60   1.407289 A    
C6    C22   1.381512 A    
C12   N12   1.327578 A    
C31   C41   1.397369 A    
C60   H46   1.083807 S    
H18   C72   1.081202 S    
C67   C69   1.425150 A    
C45   C47   1.407858 A    
C30   H36   1.083422 S    
C21   C83   1.447661 S    
C4    H4    1.080602 S    
C15   C17   1.379541 A    
C32   C34   1.393083 A    
C58   C69   1.484719 S    
C8    H8    1.079105 S    
C65   H47   1.085174 S    
C62   C64   1.394706 A    
C54   H42   1.079196 S    
C43   H33   1.087582 S    
C51   C75   1.408401 A    
C7    C23   1.375007 A    
C9    H9    1.077854 S    
N4    Ni1   1.875939 S    
C10   H10   1.081454 S    
C5    N5    1.329926 A    
C51   C71   1.395537 A    
H40   C64   1.080860 S    
C81   C86   1.530240 S    
C55   H43   1.083382 S    
C79   H53   1.109795 S    
C3    C19   1.392629 A    
C15   H15   1.070542 S    
C65   C70   1.380772 A    
C30   C50   1.406612 A    
C26   H50   1.079082 S    
C33   C35   1.404912 A    
H37   C85   1.109091 S    
C31   C33   1.397105 A    
C13   C19   1.372130 A    
H21   C51   1.082562 S    
C11   N11   1.317471 A    
C52   C72   1.394262 A    
C34   H28   1.083154 S    
N3    N13   1.395201 A    
C43   C45   1.389091 A    
C81   H51   1.110740 S    
C13   N13   1.316156 A    
C56   H44   1.083137 S    
C57   C59   1.406637 A    
N10   Ni1   1.874124 S    
C73   C77   1.413444 A    
N9    Ni2   1.874126 S    
N2    Ni2   1.874194 S    
C16   C18   1.393440 A    
C66   H48   1.086108 S    
C62   Br2   1.907195 S    
C20   C67   1.446532 S    
C36   C38   1.406952 A    
C55   C57   1.399943 A    
C26   C78   1.393209 A    
C24   C45   1.413506 S    
C11   C23   1.371821 A    
C53   C63   1.397707 A    
C1    C17   1.397100 A    
C12   C24   1.370433 A    
C16   N16   1.327113 A    
H38   C86   1.105925 S    
C7    H7    1.077107 S    
C25   C77   1.403029 A    
