data_mof_unit_7557.cif
_audit_creation_date              2013-03-05T15:51:25-0500
_audit_creation_method            fapswitch 2.2
_symmetry_space_group_name_H-M    P1
_symmetry_Int_Tables_number       1
_space_group_crystal_system       triclinic
_cell_length_a                    22.665528
_cell_length_b                    30.456743
_cell_length_c                    19.267641
_cell_angle_alpha                 90.146874
_cell_angle_beta                  127.720549
_cell_angle_gamma                 90.050838
_cell_volume                      10520.9048388

loop_
_atom_site_label
_atom_site_type_symbol
_atom_site_description
_atom_site_fract_x
_atom_site_fract_y
_atom_site_fract_z
_atom_type_partial_charge
C1    C     C_R   0.954242 0.620633 0.072019 -0.076546
C2    C     C_R   0.044972 0.380352 0.925738 -0.066045
C3    C     C_R   0.069157 0.605813 0.927853 -0.040133
C4    C     C_R   0.952967 0.381101 0.074091 -0.094509
C5    C     C_R   0.438781 0.113190 0.071826 -0.129387
C6    C     C_R   0.573388 0.897257 0.929179 -0.086845
C7    C     C_R   0.570634 0.103784 0.927532 -0.014491
C8    C     C_R   0.452838 0.881025 0.073742 -0.081395
H1    H     H_    0.988968 0.632045 0.139112 0.139568
H2    H     H_    0.012732 0.372536 0.857251 0.160729
H3    H     H_    0.046322 0.612462 0.860907 0.138754
H4    H     H_    0.988885 0.369949 0.141376 0.116930
H5    H     H_    0.465131 0.123649 0.138332 0.107571
H6    H     H_    0.551788 0.890835 0.862454 0.133254
H7    H     H_    0.548608 0.108838 0.860362 0.151801
H8    H     H_    0.489027 0.869570 0.140802 0.113745
N1    N     N_R   0.963040 0.582050 0.045950 -0.051570
N2    N     N_R   0.036960 0.417950 0.954050 -0.060325
N3    N     N_R   0.036960 0.582050 0.954050 -0.065043
N4    N     N_R   0.963040 0.417950 0.045950 -0.056098
N5    N     N_R   0.463040 0.082050 0.045950 -0.049012
N6    N     N_R   0.536960 0.917950 0.954050 -0.061255
N7    N     N_R   0.536960 0.082050 0.954050 -0.062645
N8    N     N_R   0.463040 0.917950 0.045950 -0.054954
C9    C     C_R   0.881153 0.379255 0.927956 -0.094450
C10   C     C_R   0.143745 0.605294 0.075346 -0.037230
C11   C     C_R   0.114082 0.378294 0.071511 -0.146227
C12   C     C_R   0.881751 0.620288 0.925834 -0.063622
C13   C     C_R   0.380691 0.879513 0.927522 -0.126624
C14   C     C_R   0.644785 0.104133 0.075024 -0.077443
C15   C     C_R   0.646132 0.897865 0.076487 -0.131324
C16   C     C_R   0.366510 0.113346 0.925166 0.007095
H9    H     H_    0.850089 0.366117 0.862100 0.158206
H10   H     H_    0.189842 0.611204 0.143459 0.137426
H11   H     H_    0.141910 0.366066 0.137312 0.111693
H12   H     H_    0.851620 0.632117 0.859323 0.099721
H13   H     H_    0.349623 0.866495 0.861574 0.119040
H14   H     H_    0.691152 0.109922 0.143075 0.145255
H15   H     H_    0.692471 0.893598 0.144942 0.108904
H16   H     H_    0.326415 0.123558 0.857969 0.119331
N9    N     N_R   0.917940 0.418000 0.954160 -0.060493
N10   N     N_R   0.082060 0.582000 0.045840 -0.060965
N11   N     N_R   0.082060 0.418000 0.045840 -0.050842
N12   N     N_R   0.917940 0.582000 0.954160 -0.048234
N13   N     N_R   0.417940 0.918000 0.954160 -0.054921
N14   N     N_R   0.582060 0.082000 0.045840 -0.059913
N15   N     N_R   0.582060 0.918000 0.045840 -0.054770
N16   N     N_R   0.417940 0.082000 0.954160 -0.061241
C17   C     C_R   0.788076 0.536200 0.794660 -0.057689
C18   C     C_R   0.204927 0.464097 0.240377 -0.043164
C19   C     C_R   0.203166 0.537183 0.239707 -0.062860
C20   C     C_R   0.789641 0.462788 0.798434 -0.005856
C21   C     C_R   0.287100 0.035598 0.789955 -0.054024
C22   C     C_R   0.703917 0.964438 0.242004 -0.063199
C23   C     C_R   0.702264 0.037337 0.240406 -0.055550
C24   C     C_R   0.289472 0.962411 0.796154 -0.018710
H17   H     H_    0.770352 0.570036 0.783918 0.115902
H18   H     H_    0.215950 0.430645 0.263888 0.121570
H19   H     H_    0.211317 0.570620 0.263148 0.117032
H20   H     H_    0.774108 0.428774 0.793319 0.131344
H21   H     H_    0.267156 0.068815 0.773241 0.117128
H22   H     H_    0.714331 0.931206 0.266465 0.120578
H23   H     H_    0.709790 0.070850 0.263273 0.112181
H24   H     H_    0.274033 0.928353 0.790696 0.128914
N17   N     N_R   0.858490 0.522630 0.835610 -0.063603
N18   N     N_R   0.141510 0.477370 0.164390 -0.058068
N19   N     N_R   0.141510 0.522630 0.164390 -0.065574
N20   N     N_R   0.858490 0.477370 0.835610 -0.064382
N21   N     N_R   0.358490 0.022630 0.835610 -0.064934
N22   N     N_R   0.641510 0.977370 0.164390 -0.054903
N23   N     N_R   0.641510 0.022630 0.164390 -0.061327
N24   N     N_R   0.358490 0.977370 0.835610 -0.066729
C25   C     C_R   0.991732 0.463839 0.201695 0.022709
C26   C     C_R   0.983366 0.536207 0.774591 -0.091096
C27   C     C_R   0.986428 0.462482 0.777908 -0.091498
C28   C     C_R   0.989755 0.537431 0.197674 -0.118878
C29   C     C_R   0.492970 0.963103 0.202216 0.046059
C30   C     C_R   0.470963 0.036845 0.766424 -0.083462
C31   C     C_R   0.471901 0.963345 0.766382 -0.034935
C32   C     C_R   0.494183 0.036649 0.203585 -0.141578
H25   H     H_    0.989538 0.430311 0.218177 0.134450
H26   H     H_    0.973725 0.569178 0.749321 0.123809
H27   H     H_    0.982680 0.428565 0.758950 0.131145
H28   H     H_    0.986275 0.571473 0.210650 0.113085
H29   H     H_    0.490752 0.929364 0.217648 0.128688
H30   H     H_    0.460026 0.070281 0.743008 0.135946
H31   H     H_    0.463023 0.929784 0.743531 0.104405
H32   H     H_    0.496193 0.069787 0.224507 0.106877
N25   N     N_R   0.022480 0.477420 0.164500 -0.054931
N26   N     N_R   0.977520 0.522580 0.835500 -0.058734
N27   N     N_R   0.977520 0.477420 0.835500 -0.054050
N28   N     N_R   0.022480 0.522580 0.164500 -0.053391
N29   N     N_R   0.522480 0.977420 0.164500 -0.056933
N30   N     N_R   0.477520 0.022580 0.835500 -0.056404
N31   N     N_R   0.477520 0.977420 0.835500 -0.053223
N32   N     N_R   0.522480 0.022580 0.164500 -0.049401
C33   C     C_R   0.903833 0.645311 0.998021 0.172957
C34   C     C_R   0.090408 0.353343 0.997380 0.153893
C35   C     C_R   0.136690 0.620209 0.002225 0.158194
C36   C     C_R   0.900691 0.356444 0.001919 0.182287
C37   C     C_R   0.376042 0.131416 0.997253 0.202908
C38   C     C_R   0.643089 0.885591 0.004919 0.173253
C39   C     C_R   0.638486 0.117981 0.001682 0.149646
C40   C     C_R   0.400225 0.856614 0.001243 0.193255
C41   C     C_R   0.743775 0.498959 0.772167 0.142727
C42   C     C_R   0.244392 0.501356 0.289177 0.172826
C43   C     C_R   0.243176 0.998324 0.767777 0.157170
C44   C     C_R   0.742935 0.001701 0.290939 0.173737
C45   C     C_R   0.970518 0.501263 0.222286 0.148292
C46   C     C_R   0.992389 0.499070 0.741300 0.141797
C47   C     C_R   0.473324 0.999950 0.225040 0.139214
C48   C     C_R   0.470852 0.000312 0.725313 0.111863
Ni1   Ni    Ni4+2 0.051820 0.551870 0.104030 0.260495
Ni2   Ni    Ni4+2 0.948180 0.448130 0.895970 0.258782
Ni3   Ni    Ni4+2 0.948180 0.551870 0.895970 0.247967
Ni4   Ni    Ni4+2 0.051820 0.448130 0.104030 0.251731
Ni5   Ni    Ni4+2 0.551820 0.051870 0.104030 0.251340
Ni6   Ni    Ni4+2 0.448180 0.948130 0.895970 0.234192
Ni7   Ni    Ni4+2 0.448180 0.051870 0.895970 0.267333
Ni8   Ni    Ni4+2 0.551820 0.948130 0.104030 0.253913
C49   C     C_R   0.047651 0.520985 0.671297 0.342063
C50   C     C_R   0.906791 0.483922 0.286479 0.308038
C51   C     C_R   0.529499 0.022258 0.660118 0.388547
C52   C     C_R   0.401992 0.987234 0.280289 0.318649
C53   C     C_R   0.991899 0.498731 0.667663 -0.088576
C54   C     C_R   0.965017 0.503840 0.291840 -0.087157
C55   C     C_R   0.470783 0.001272 0.652284 -0.080459
C56   C     C_R   0.467328 0.000196 0.293570 -0.109309
C57   C     C_R   0.930964 0.479368 0.591706 -0.208656
C58   C     C_R   0.024512 0.524387 0.367684 -0.187417
C59   C     C_R   0.411363 0.981921 0.575368 -0.218953
C60   C     C_R   0.530320 0.014460 0.373991 -0.179039
C61   C     C_R   0.923256 0.482423 0.515480 0.114794
C62   C     C_R   0.029325 0.524181 0.441849 0.120766
C63   C     C_R   0.408751 0.983345 0.502326 0.118997
C64   C     C_R   0.529392 0.017286 0.443955 0.123289
C65   C     C_R   0.979568 0.503124 0.516917 -0.003269
C66   C     C_R   0.972340 0.504259 0.439781 0.000641
C67   C     C_R   0.468631 0.002448 0.508657 -0.007874
C68   C     C_R   0.466697 0.001865 0.435274 0.001473
C69   C     C_R   0.043393 0.522106 0.595689 -0.201923
C70   C     C_R   0.908790 0.485180 0.360940 -0.208516
C71   C     C_R   0.530770 0.021525 0.588685 -0.181196
C72   C     C_R   0.403114 0.984984 0.353780 -0.204224
C73   C     C_R   0.859080 0.465791 0.437845 -0.317679
C74   C     C_R   0.092078 0.542521 0.518438 -0.334964
C75   C     C_R   0.347788 0.964945 0.423974 -0.331710
C76   C     C_R   0.591523 0.034415 0.522624 -0.345121
C77   C     C_R   0.849883 0.468538 0.359824 0.592138
C78   C     C_R   0.100921 0.540569 0.596143 0.577074
C79   C     C_R   0.344805 0.964941 0.349821 0.588417
C80   C     C_R   0.592125 0.038416 0.594866 0.575386
H33   H     H_    0.887839 0.463595 0.591490 0.159588
H34   H     H_    0.069679 0.538724 0.370108 0.158628
H35   H     H_    0.366543 0.966621 0.572385 0.157723
H36   H     H_    0.579849 0.024492 0.381147 0.171745
H37   H     H_    0.814961 0.451287 0.437087 0.174643
H38   H     H_    0.135676 0.557564 0.518801 0.161502
H39   H     H_    0.302644 0.949808 0.420373 0.173807
H40   H     H_    0.640220 0.044314 0.528184 0.157705
C81   C     C_R   0.873237 0.234025 0.972838 0.589306
C82   C     C_R   0.319346 0.654135 0.053494 0.631834
C83   C     C_R   0.194405 0.247538 0.072165 0.582728
C84   C     C_R   0.786780 0.745919 0.928220 0.535505
C85   C     C_R   0.365870 0.734630 0.962581 0.645612
C86   C     C_R   0.820605 0.153098 0.054201 0.584526
C87   C     C_R   0.795892 0.806327 0.075166 0.544886
C88   C     C_R   0.233785 0.157529 0.029207 0.626653
C89   C     C_R   0.887901 0.277465 0.964181 -0.335012
C90   C     C_R   0.265358 0.631211 0.053851 -0.386716
C91   C     C_R   0.165910 0.287557 0.073524 -0.380408
C92   C     C_R   0.810909 0.703656 0.930331 -0.333777
C93   C     C_R   0.384267 0.778363 0.958273 -0.425427
C94   C     C_R   0.767873 0.130372 0.055830 -0.288629
C95   C     C_R   0.743588 0.831408 0.073040 -0.366935
C96   C     C_R   0.292674 0.137913 0.036421 -0.322024
H41   H     H_    0.902055 0.284749 0.921409 0.217667
H42   H     H_    0.280109 0.602974 0.095446 0.163884
H43   H     H_    0.197600 0.306029 0.134211 0.165577
H44   H     H_    0.770424 0.679202 0.884994 0.189275
H45   H     H_    0.399571 0.787322 0.916910 0.138135
H46   H     H_    0.785904 0.103962 0.102381 0.196055
H47   H     H_    0.730977 0.823470 0.117463 0.162345
H48   H     H_    0.317076 0.108215 0.074856 0.180496
C97   C     C_R   0.882131 0.311496 0.008565 -0.121715
C98   C     C_R   0.190891 0.644915 0.000682 -0.068406
C99   C     C_R   0.103857 0.305859 0.995814 -0.103893
C100  C     C_R   0.884974 0.691621 0.994653 -0.109905
C101  C     C_R   0.381781 0.811556 0.006843 -0.085682
C102  C     C_R   0.692636 0.142536 0.999618 -0.110869
C103  C     C_R   0.703046 0.863835 0.009652 -0.097115
C104  C     C_R   0.319793 0.156006 0.994086 -0.128116
C105  C     C_R   0.865824 0.302048 0.066777 0.221679
C106  C     C_R   0.167076 0.679253 0.940177 0.260705
C107  C     C_R   0.060712 0.279177 0.918725 0.209460
C108  C     C_R   0.938030 0.723181 0.054801 0.224050
C109  C     C_R   0.368459 0.801297 0.067358 0.246653
C110  C     C_R   0.668566 0.176099 0.937157 0.244983
C111  C     C_R   0.718312 0.873819 0.950495 0.210658
C112  C     C_R   0.287923 0.194055 0.942935 0.227610
C113  C     C_R   0.850703 0.258756 0.075472 0.182748
C114  C     C_R   0.219081 0.700680 0.935845 0.179712
C115  C     C_R   0.085783 0.236667 0.919163 0.173486
C116  C     C_R   0.913872 0.765843 0.055296 0.222100
C117  C     C_R   0.354302 0.757914 0.075854 0.167359
C118  C     C_R   0.721058 0.198518 0.934775 0.174102
C119  C     C_R   0.769112 0.847545 0.949529 0.208993
C120  C     C_R   0.230084 0.214720 0.937580 0.190449
C121  C     C_R   0.849055 0.225527 0.023186 -0.111639
C122  C     C_R   0.295333 0.689908 0.996215 -0.094499
C123  C     C_R   0.157296 0.223926 0.993248 -0.151187
C124  C     C_R   0.837281 0.775994 0.994046 -0.070463
C125  C     C_R   0.347716 0.725565 0.018977 -0.104647
C126  C     C_R   0.797442 0.189156 0.998107 -0.144161
C127  C     C_R   0.805026 0.812621 0.010001 -0.069115
C128  C     C_R   0.204450 0.196841 0.982550 -0.105937
C129  C     C_R   0.425354 0.538129 0.498638 -0.245973
C130  C     C_R   0.542538 0.463793 0.623269 -0.204046
C131  C     C_R   0.552161 0.530070 0.699104 -0.257440
C132  C     C_R   0.375091 0.479329 0.532821 -0.253317
C133  C     C_R   0.923599 0.038543 0.500868 -0.216152
C134  C     C_R   0.041919 0.963423 0.620048 -0.208916
C135  C     C_R   0.052952 0.028473 0.699705 -0.239396
C136  C     C_R   0.875122 0.978189 0.534041 -0.240857
H49   H     H_    0.471632 0.559556 0.518723 0.180099
H50   H     H_    0.508238 0.440289 0.570564 0.180458
H51   H     H_    0.525143 0.556699 0.707184 0.183411
H52   H     H_    0.381526 0.456546 0.580119 0.192314
H53   H     H_    0.969433 0.060388 0.520988 0.188146
H54   H     H_    0.007037 0.940358 0.566647 0.179647
H55   H     H_    0.026553 0.054560 0.710009 0.196064
H56   H     H_    0.882515 0.954596 0.580771 0.196689
C137  C     C_R   0.364904 0.535303 0.410130 0.352932
C138  C     C_R   0.618942 0.463988 0.666781 0.328698
C139  C     C_R   0.630029 0.528612 0.750447 0.351596
C140  C     C_R   0.310622 0.478290 0.445605 0.331986
C141  C     C_R   0.862589 0.036273 0.412595 0.328924
C142  C     C_R   0.118148 0.963773 0.662199 0.335407
C143  C     C_R   0.130655 0.027178 0.749289 0.358476
C144  C     C_R   0.809957 0.977730 0.447232 0.331606
C145  C     C_R   0.307644 0.504359 0.382580 -0.235064
C146  C     C_R   0.663599 0.497113 0.730096 -0.219906
C147  C     C_R   0.805887 0.004816 0.384583 -0.235929
C148  C     C_R   0.163233 0.996459 0.726257 -0.221101
C149  C     C_R   0.432859 0.508414 0.558593 0.043283
C150  C     C_R   0.508758 0.498424 0.634227 0.053634
C151  C     C_R   0.932426 0.007697 0.559962 0.043364
C152  C     C_R   0.008861 0.997385 0.633805 0.045554
N33   N     N_R   0.859775 0.336652 0.112813 0.261944
O1    O     O_R   0.894830 0.333902 0.196994 -0.297124
O2    O     O_R   0.816167 0.369907 0.069820 -0.285710
N34   N     N_R   0.091149 0.694311 0.886666 0.250302
O3    O     O_R   0.054414 0.699296 0.802549 -0.313047
O4    O     O_R   0.059808 0.705209 0.922555 -0.312413
N35   N     N_R   0.995861 0.295882 0.837815 0.251116
O5    O     O_R   0.936049 0.305169 0.829862 -0.426350
O6    O     O_R   0.995152 0.299616 0.770026 -0.281666
N36   N     N_R   0.015997 0.712736 0.110552 0.256459
O7    O     O_R   0.051317 0.706713 0.194137 -0.363663
O8    O     O_R   0.048104 0.701680 0.075677 -0.329817
N37   N     N_R   0.363778 0.835289 0.115624 0.247283
O9    O     O_R   0.401593 0.832384 0.200279 -0.377500
O10   O     O_R   0.317245 0.867540 0.073967 -0.323362
N38   N     N_R   0.592006 0.189900 0.880585 0.254788
O11   O     O_R   0.556763 0.193065 0.796413 -0.304758
O12   O     O_R   0.558958 0.202166 0.913743 -0.308365
N39   N     N_R   0.686717 0.912313 0.896948 0.265445
O13   O     O_R   0.632352 0.908761 0.813416 -0.361955
O14   O     O_R   0.702350 0.950640 0.934427 -0.327711
N40   N     N_R   0.316255 0.212826 0.900086 0.254544
O15   O     O_R   0.387783 0.216640 0.941659 -0.338921
O16   O     O_R   0.270683 0.227004 0.819882 -0.273589
N41   N     N_R   0.826177 0.249568 0.127297 0.266329
O17   O     O_R   0.769151 0.270151 0.112335 -0.270860
O18   O     O_R   0.860950 0.220619 0.189702 -0.295969
N42   N     N_R   0.196222 0.737944 0.879255 0.261686
O19   O     O_R   0.168559 0.772388 0.889892 -0.288219
O20   O     O_R   0.199963 0.736658 0.814579 -0.351703
N43   N     N_R   0.040552 0.207723 0.843739 0.274022
O21   O     O_R   0.968468 0.212338 0.789521 -0.314167
O22   O     O_R   0.068903 0.173070 0.834809 -0.351995
N44   N     N_R   0.965750 0.798699 0.117167 0.255312
O23   O     O_R   0.957432 0.839648 0.093879 -0.330928
O24   O     O_R   0.018495 0.788671 0.198515 -0.335751
N45   N     N_R   0.334508 0.747925 0.132063 0.261842
O25   O     O_R   0.276634 0.766251 0.118973 -0.316853
O26   O     O_R   0.375360 0.721203 0.197620 -0.360316
N46   N     N_R   0.698026 0.235169 0.876697 0.267236
O27   O     O_R   0.664065 0.268340 0.880714 -0.275774
O28   O     O_R   0.710451 0.235227 0.819138 -0.325934
N47   N     N_R   0.784001 0.855637 0.887785 0.256202
O29   O     O_R   0.850375 0.849321 0.910230 -0.318565
O30   O     O_R   0.730749 0.866804 0.807320 -0.327298
N48   N     N_R   0.202682 0.256189 0.894066 0.255217
O31   O     O_R   0.142233 0.257794 0.813357 -0.255776
O32   O     O_R   0.243222 0.291369 0.930853 -0.366540
N49   N     N_R   0.365782 0.561548 0.348728 0.227482
O33   O     O_R   0.351729 0.543694 0.278557 -0.431185
O34   O     O_R   0.392083 0.601405 0.369600 -0.393603
N50   N     N_R   0.648191 0.433641 0.637641 0.230659
O35   O     O_R   0.683725 0.448279 0.609061 -0.390997
O36   O     O_R   0.627041 0.392741 0.623562 -0.341582
N51   N     N_R   0.673704 0.559342 0.821651 0.232156
O37   O     O_R   0.732658 0.546113 0.897333 -0.366453
O38   O     O_R   0.648772 0.598762 0.815371 -0.407076
N52   N     N_R   0.249003 0.451217 0.422619 0.231798
O39   O     O_R   0.181736 0.467154 0.374791 -0.429610
O40   O     O_R   0.261218 0.413677 0.461369 -0.361749
N53   N     N_R   0.862721 0.063408 0.351674 0.233927
O41   O     O_R   0.850923 0.046065 0.282341 -0.394411
O42   O     O_R   0.886811 0.103694 0.372721 -0.336967
N54   N     N_R   0.146894 0.933854 0.631763 0.230298
O43   O     O_R   0.184219 0.948790 0.605728 -0.394036
O44   O     O_R   0.124226 0.893226 0.614670 -0.359459
N55   N     N_R   0.175239 0.057124 0.821801 0.223528
O45   O     O_R   0.234404 0.043118 0.896482 -0.408853
O46   O     O_R   0.150798 0.096384 0.817927 -0.382213
N56   N     N_R   0.748896 0.950098 0.424249 0.234081
O47   O     O_R   0.681352 0.965607 0.376786 -0.432522
O48   O     O_R   0.761837 0.912292 0.462406 -0.364443
N57   N     N_R   0.106348 0.542922 0.750937 0.245656
O49   O     O_R   0.108178 0.585620 0.754488 -0.353475
O50   O     O_R   0.150308 0.520626 0.822936 -0.404852
N58   N     N_R   0.849423 0.460803 0.207988 0.251504
O51   O     O_R   0.812545 0.480259 0.132222 -0.361513
O52   O     O_R   0.841014 0.418786 0.210984 -0.238874
N59   N     N_R   0.586373 0.044421 0.740273 0.246715
O53   O     O_R   0.582510 0.086686 0.746590 -0.437082
O54   O     O_R   0.635659 0.021904 0.809893 -0.294418
N60   N     N_R   0.334453 0.980493 0.192780 0.256493
O55   O     O_R   0.276432 0.004764 0.163806 -0.362230
O56   O     O_R   0.333193 0.954040 0.138825 -0.346057
O57   O     O_3   0.783416 0.454092 0.283618 -0.566504
C153  C     C_3   0.732266 0.489244 0.247577 0.213498
H57   H     H_    0.754588 0.518062 0.234617 0.102128
H58   H     H_    0.719125 0.499292 0.292393 0.090094
C154  C     C_3   0.660229 0.474628 0.160867 -0.649136
H59   H     H_    0.635863 0.446275 0.171612 0.251455
H60   H     H_    0.619503 0.502025 0.131849 0.182867
H61   H     H_    0.671416 0.464832 0.114343 0.284606
O58   O     O_3   0.165428 0.557683 0.671339 -0.586488
C155  C     C_3   0.222381 0.525898 0.707203 0.258040
H62   H     H_    0.235865 0.518690 0.661607 0.095598
H63   H     H_    0.205799 0.494875 0.721804 0.124194
C156  C     C_3   0.292494 0.543439 0.792594 -0.720261
H64   H     H_    0.280886 0.551364 0.839484 0.285403
H65   H     H_    0.337255 0.518367 0.822343 0.203877
H66   H     H_    0.311929 0.573551 0.779691 0.235095
O59   O     O_3   0.285274 0.944390 0.274710 -0.587579
C157  C     C_3   0.302789 0.899544 0.278335 0.173442
H67   H     H_    0.309469 0.883030 0.334287 0.106595
H68   H     H_    0.354915 0.895456 0.284964 0.145250
C158  C     C_3   0.239604 0.876984 0.193850 -0.496639
H69   H     H_    0.231688 0.892649 0.136707 0.281386
H70   H     H_    0.253103 0.841764 0.195704 0.233462
H71   H     H_    0.186995 0.879523 0.186146 0.233696
O60   O     O_3   0.656588 0.052774 0.674284 -0.582393
C159  C     C_3   0.670113 0.097440 0.668235 0.273075
H72   H     H_    0.619898 0.117892 0.642683 0.131069
H73   H     H_    0.686868 0.101475 0.625125 0.083692
C160  C     C_3   0.733933 0.114423 0.759129 -0.664066
H74   H     H_    0.785151 0.095036 0.785802 0.230657
H75   H     H_    0.745301 0.149425 0.755083 0.237117
H76   H     H_    0.719418 0.111747 0.804529 0.270211
O61   O     O_3   0.870058 0.201005 0.921178 -0.598297
C161  C     C_3   0.943093 0.191432 0.951067 0.247206
H77   H     H_    0.981268 0.185335 0.023165 0.080338
H78   H     H_    0.965607 0.218826 0.935461 0.125959
C162  C     C_3   0.941279 0.150227 0.905031 -0.766175
H79   H     H_    0.901693 0.154519 0.832780 0.288678
H80   H     H_    0.997703 0.143736 0.924375 0.217461
H81   H     H_    0.923382 0.121595 0.923579 0.222072
O62   O     O_3   0.395620 0.644626 0.107633 -0.618875
C163  C     C_3   0.419120 0.617144 0.179224 0.308552
H82   H     H_    0.399314 0.582948 0.155971 0.117665
H83   H     H_    0.399192 0.629540 0.216057 0.173475
C164  C     C_3   0.503891 0.616512 0.242159 -0.773816
H84   H     H_    0.525724 0.650219 0.266877 0.266176
H85   H     H_    0.523137 0.594892 0.298703 0.224112
H86   H     H_    0.526106 0.603854 0.208163 0.244206
O63   O     O_3   0.261015 0.232008 0.146952 -0.593593
C165  C     C_3   0.320978 0.258096 0.166051 0.231987
H87   H     H_    0.324802 0.288928 0.199644 0.122903
H88   H     H_    0.315410 0.266432 0.105948 0.121906
C166  C     C_3   0.393283 0.232753 0.226987 -0.774567
H89   H     H_    0.391281 0.202018 0.194418 0.241617
H90   H     H_    0.441040 0.253056 0.243400 0.223987
H91   H     H_    0.401661 0.224362 0.288528 0.266561
O64   O     O_3   0.711339 0.755693 0.872457 -0.624579
C167  C     C_3   0.685670 0.755280 0.784700 0.249118
H92   H     H_    0.681615 0.721060 0.761824 0.111735
H93   H     H_    0.722911 0.774817 0.776892 0.144630
C168  C     C_3   0.608247 0.775493 0.726564 -0.737732
H94   H     H_    0.610153 0.809680 0.748081 0.274375
H95   H     H_    0.587625 0.775932 0.657386 0.218047
H96   H     H_    0.569062 0.755928 0.730594 0.245597
O65   O     O_3   0.362151 0.699635 0.912890 -0.605824
C169  C     C_3   0.359171 0.712552 0.840482 0.284946
H97   H     H_    0.414574 0.725042 0.863307 0.092151
H98   H     H_    0.315305 0.737788 0.800336 0.141285
C170  C     C_3   0.339723 0.672787 0.782099 -0.786768
H99   H     H_    0.284689 0.659274 0.758342 0.281587
H100  H     H_    0.337027 0.682442 0.724680 0.209397
H101  H     H_    0.382959 0.647061 0.819462 0.247491
O66   O     O_3   0.895805 0.144477 0.115853 -0.580633
C171  C     C_3   0.912672 0.105649 0.091133 0.253920
H102  H     H_    0.891498 0.107037 0.021522 0.091708
H103  H     H_    0.888204 0.076549 0.100061 0.133771
C172  C     C_3   0.996869 0.099990 0.148842 -0.770122
H104  H     H_    0.019749 0.097175 0.218672 0.278509
H105  H     H_    0.010835 0.069780 0.129289 0.214205
H106  H     H_    0.022920 0.128648 0.141475 0.237706
O67   O     O_3   0.828066 0.770240 0.130052 -0.627785
C173  C     C_3   0.876583 0.784431 0.218287 0.238599
H107  H     H_    0.844375 0.796483 0.240616 0.103163
H108  H     H_    0.914887 0.810903 0.227553 0.146609
C174  C     C_3   0.923815 0.745804 0.275695 -0.724426
H109  H     H_    0.956362 0.732669 0.254676 0.277033
H110  H     H_    0.963022 0.756568 0.345246 0.220948
H111  H     H_    0.887404 0.719353 0.270249 0.241721
O68   O     O_3   0.210529 0.141358 0.075924 -0.607831
C175  C     C_3   0.166590 0.103478 0.033024 0.268574
H112  H     H_    0.200720 0.076382 0.035399 0.167878
H113  H     H_    0.119112 0.110552 0.963304 0.138202
C176  C     C_3   0.134728 0.088154 0.079109 -0.781260
H114  H     H_    0.100565 0.114605 0.078208 0.230919
H115  H     H_    0.098996 0.058756 0.045151 0.228567
H116  H     H_    0.180710 0.079554 0.148273 0.284127

loop_
_geom_bond_atom_site_label_1
_geom_bond_atom_site_label_2
_geom_bond_distance
_ccdc_geom_bond_type
N13   Ni6   1.874409 S    
N35   O6    1.301644 A    
C61   C65   1.408047 A    
O60   C159  1.414924 S    
C110  C118  1.396221 A    
N49   O34   1.301368 A    
C176  H114  1.110679 S    
N47   O29   1.300819 A    
C64   C68   1.405507 A    
C21   N21   1.345094 A    
C31   H31   1.080783 S    
C154  H59   1.110654 S    
N51   O38   1.301415 A    
O57   C153  1.411886 S    
C63   C67   1.411040 A    
N44   O23   1.300788 A    
C165  H87   1.111923 S    
C137  N49   1.439670 S    
C90   H42   1.081584 S    
C129  C149  1.395580 A    
C72   C79   1.414248 A    
C107  C115  1.412367 A    
C105  C113  1.398113 A    
C14   H14   1.080340 S    
C159  C160  1.523571 S    
C96   H48   1.084263 S    
C76   H40   1.084062 S    
C113  C121  1.410388 A    
C164  H86   1.110777 S    
N5    Ni5   1.843774 S    
C173  C174  1.521018 S    
C74   C78   1.385130 A    
C52   N60   1.437994 S    
N58   O51   1.301196 A    
C24   N24   1.332081 A    
C3    N3    1.327710 A    
N29   Ni8   1.881312 S    
C108  C116  1.412729 A    
C5    H5    1.077637 S    
N5    N16   1.400226 A    
C118  C126  1.408996 A    
C7    H7    1.076318 S    
N6    N15   1.400223 A    
C8    H8    1.081671 S    
N7    N14   1.400235 A    
C149  C150  1.453031 S    
C173  H108  1.115350 S    
C88   O68   1.383120 S    
C58   C62   1.365007 A    
C25   H25   1.080253 S    
C158  H70   1.110391 S    
C62   C74   1.392395 A    
C160  H76   1.110187 S    
C5    C37   1.378457 A    
C86   C94   1.397552 A    
N55   O46   1.301249 A    
N60   O55   1.301163 A    
C171  H103  1.113230 S    
C129  C137  1.390269 A    
C83   O63   1.386451 S    
C155  H62   1.114031 S    
C167  H93   1.115401 S    
C133  C151  1.395044 A    
C11   H11   1.080858 S    
N21   Ni7   1.837603 S    
N14   Ni5   1.874407 S    
C13   N13   1.347284 A    
C112  N40   1.439226 S    
C34   C99   1.482276 S    
C73   H37   1.084707 S    
C9    C36   1.393962 A    
N51   O37   1.301528 A    
C22   N22   1.344604 A    
N17   N20   1.378469 A    
C116  C124  1.413482 A    
C38   C103  1.464389 S    
C39   C102  1.457906 S    
C156  H66   1.109663 S    
C8    C40   1.371471 A    
N18   Ni4   1.837603 S    
C57   C61   1.372221 A    
O63   C165  1.413669 S    
C176  H116  1.110643 S    
N40   O16   1.300977 A    
C61   C73   1.393692 A    
C42   C145  1.464360 S    
C154  H61   1.110740 S    
N50   O35   1.301528 A    
C95   H47   1.083083 S    
C101  C109  1.407412 A    
N6    Ni6   1.843772 S    
C138  N50   1.436260 S    
C155  C156  1.520695 S    
C26   C46   1.374717 A    
C67   C68   1.387598 A    
C168  H94   1.110710 S    
C26   N26   1.326558 A    
N45   O26   1.300282 A    
C135  C143  1.399123 A    
O61   C161  1.411438 S    
C153  C154  1.520632 S    
C30   N30   1.320328 A    
C6    C38   1.390798 A    
C157  H67   1.114134 S    
C55   C59   1.381789 A    
C3    H3    1.075798 S    
C4    N4    1.326577 A    
C53   C57   1.384920 A    
C5    N5    1.335800 A    
C32   H32   1.076371 S    
N57   O49   1.301359 A    
N24   Ni6   1.842235 S    
C172  H104  1.110599 S    
O66   C171  1.411478 S    
C130  H50   1.085070 S    
C23   N23   1.330305 A    
C113  N41   1.436928 S    
N34   O3    1.301284 A    
C166  H90   1.110421 S    
C106  C114  1.393393 A    
C12   C33   1.381288 A    
O59   C157  1.412660 S    
N36   O8    1.300833 A    
C87   C127  1.405457 A    
C27   H27   1.080568 S    
C94   H46   1.083630 S    
C170  H99   1.110992 S    
N1    Ni1   1.843774 S    
C24   C43   1.378210 A    
N33   O1    1.301163 A    
C70   C77   1.415498 A    
N47   O30   1.299934 A    
C84   C124  1.404870 A    
N7    Ni7   1.839126 S    
N37   O9    1.301213 A    
N4    Ni4   1.839128 S    
C17   H17   1.079948 S    
N54   O43   1.301539 A    
C116  N44   1.442819 S    
C51   N59   1.435137 S    
C163  H82   1.112499 S    
C48   C55   1.406514 S    
N56   O48   1.301324 A    
C20   H20   1.078528 S    
C67   C71   1.426687 A    
N22   Ni8   1.837603 S    
N38   O11   1.301286 A    
C23   H23   1.081880 S    
C24   H24   1.078525 S    
C143  N55   1.438500 S    
N3    N10   1.400235 A    
C27   N27   1.323185 A    
C10   C35   1.394471 A    
C81   C89   1.398920 A    
N43   O22   1.300742 A    
C123  C128  1.461336 S    
C29   H29   1.080102 S    
C7    C39   1.378551 A    
N17   Ni3   1.837603 S    
C91   H43   1.080680 S    
C89   H41   1.074986 S    
C174  H110  1.110430 S    
C69   C78   1.414651 A    
N53   O42   1.301306 A    
C168  H96   1.110676 S    
N23   Ni5   1.842235 S    
C131  C139  1.399832 A    
N32   Ni5   1.883584 S    
C80   O60   1.388245 S    
C78   O58   1.382482 S    
N59   O54   1.300054 A    
C153  H57   1.115185 S    
C104  C112  1.404373 A    
C13   C40   1.391471 A    
C163  C164  1.520449 S    
N46   O28   1.300549 A    
C140  C145  1.419280 A    
N21   N24   1.378469 A    
C75   C79   1.388421 A    
C49   C53   1.396816 A    
N11   Ni4   1.872185 S    
C6    H6    1.076666 S    
C51   C55   1.398077 A    
C124  C127  1.465631 S    
C60   C64   1.363524 A    
C131  C150  1.395253 A    
C58   H34   1.086959 S    
C19   N19   1.330203 A    
C172  H106  1.110352 S    
C159  H73   1.111626 S    
C136  C144  1.398668 A    
C161  C162  1.520844 S    
C64   C76   1.391247 A    
C138  C146  1.418281 A    
C85   C125  1.405257 A    
N15   Ni8   1.872185 S    
C86   C126  1.400930 A    
C20   C41   1.382605 A    
C63   C75   1.394351 A    
C175  H112  1.113376 S    
C169  H98   1.113986 S    
C84   C92   1.389930 A    
C4    H4    1.081743 S    
C133  H53   1.084812 S    
C170  H101  1.110656 S    
C10   N10   1.343457 A    
C87   C95   1.390292 A    
C114  N42   1.435826 S    
C88   C96   1.390195 A    
C27   C46   1.370388 A    
N40   O15   1.301394 A    
C98   C106  1.407633 A    
C79   O59   1.382482 S    
N39   O13   1.300997 A    
C74   H38   1.084969 S    
C122  C125  1.462708 S    
C1    N1    1.338992 A    
N27   Ni2   1.883581 S    
C14   N14   1.345359 A    
C23   C44   1.372850 A    
C84   O64   1.386136 S    
C162  H81   1.109544 S    
C36   C97   1.460549 S    
O65   C169  1.411844 S    
C57   H33   1.086447 S    
C7    N7    1.326566 A    
C40   C101  1.457587 S    
C44   C147  1.465983 S    
C8    N8    1.326311 A    
C164  H85   1.110609 S    
C93   H45   1.081257 S    
C3    C35   1.378514 A    
C45   C54   1.421850 S    
N42   O19   1.301137 A    
C134  H54   1.084959 S    
C175  C176  1.521178 S    
C112  C120  1.400575 A    
C47   C56   1.407669 S    
C16   C37   1.381087 A    
C129  H49   1.084749 S    
C162  H80   1.109541 S    
C132  C149  1.394905 A    
O67   C173  1.412142 S    
C107  N35   1.432202 S    
C176  H115  1.110404 S    
C109  C117  1.392913 A    
C28   H28   1.080095 S    
C158  H69   1.110479 S    
C140  N52   1.437279 S    
C87   O67   1.386321 S    
C160  H75   1.110581 S    
O68   C175  1.411344 S    
N60   O56   1.300001 A    
C31   C48   1.369635 A    
N48   O31   1.300503 A    
C155  H63   1.115007 S    
C54   C58   1.388557 A    
C6    N6    1.338671 A    
C132  H52   1.083546 S    
C120  N48   1.433008 S    
C29   C47   1.374417 A    
C161  H77   1.115245 S    
C109  N37   1.436633 S    
C134  C152  1.394484 A    
C115  N43   1.452197 S    
C14   C39   1.396952 A    
N52   O40   1.301307 A    
N43   O21   1.301214 A    
N22   N23   1.378469 A    
C156  H65   1.110407 S    
C83   C91   1.387566 A    
N28   Ni1   1.883584 S    
C52   C56   1.396107 A    
C92   H44   1.083716 S    
C117  C125  1.409947 A    
N55   O45   1.301474 A    
C15   N15   1.337116 A    
C16   N16   1.338004 A    
C139  N51   1.438085 S    
C26   H26   1.079771 S    
C154  H60   1.110497 S    
C135  H55   1.083541 S    
N4    N9    1.400238 A    
N16   Ni7   1.872190 S    
N8    Ni8   1.839128 S    
C141  C147  1.416784 A    
C18   H18   1.081649 S    
C15   C38   1.388126 A    
C49   C69   1.400319 A    
C1    H1    1.078722 S    
C66   C70   1.427093 A    
C97   C105  1.409294 A    
C17   C41   1.394840 A    
C22   H22   1.081207 S    
C157  C158  1.520814 S    
N53   O41   1.301576 A    
C81   C121  1.400031 A    
C144  C147  1.419570 A    
C117  N45   1.436211 S    
C32   N32   1.323608 A    
C31   N31   1.327759 A    
N45   O25   1.301157 A    
C21   C43   1.391931 A    
C82   C90   1.411975 A    
C90   C98   1.400056 A    
C119  C127  1.413835 A    
N26   Ni3   1.881309 S    
C157  H68   1.115061 S    
C49   N57   1.437418 S    
C94   C102  1.400539 A    
C71   C80   1.417215 A    
C173  H107  1.112074 S    
C43   C148  1.467067 S    
C9    N9    1.350087 A    
C41   C146  1.469579 S    
C158  H71   1.110637 S    
C102  C110  1.412386 A    
N34   O4    1.301246 A    
C166  H89   1.110933 S    
C65   C66   1.392568 A    
C141  N53   1.438784 S    
C65   C69   1.427564 A    
N44   O24   1.299798 A    
C68   C72   1.425625 A    
C25   C45   1.385598 A    
C167  H92   1.112162 S    
C22   C44   1.389782 A    
C82   C122  1.404839 A    
C121  C126  1.460280 S    
C165  C166  1.520688 S    
C59   H35   1.086276 S    
N1    N12   1.400226 A    
C25   N25   1.335106 A    
N59   O53   1.300744 A    
N2    N11   1.400223 A    
C110  N38   1.437071 S    
N39   O14   1.300576 A    
C88   C128  1.399756 A    
N26   N27   1.375423 A    
C85   O65   1.398425 S    
C32   C47   1.372719 A    
C29   N29   1.327201 A    
N54   O44   1.301264 A    
N36   O7    1.300909 A    
N30   N31   1.375423 A    
C163  H83   1.114162 S    
C11   N11   1.341367 A    
C12   H12   1.081833 S    
N38   O12   1.301387 A    
C133  C141  1.389644 A    
C18   C42   1.391240 A    
C171  H102  1.115221 S    
C30   C48   1.363280 A    
C131  H51   1.083454 S    
C35   C98   1.455837 S    
C73   C77   1.388372 A    
C50   N58   1.435426 S    
C33   C100  1.464206 S    
C11   C34   1.400511 A    
C2    N2    1.326742 A    
N49   O33   1.301560 A    
C86   O66   1.382055 S    
N9    Ni2   1.874409 S    
C37   C104  1.448012 S    
C75   H39   1.084648 S    
N2    Ni2   1.843772 S    
C167  C168  1.520977 S    
C174  H109  1.110636 S    
O58   C155  1.412512 S    
C168  H95   1.110425 S    
C115  C123  1.410058 A    
C17   N17   1.342580 A    
N8    N13   1.400238 A    
C130  C150  1.393335 A    
C118  N46   1.436456 S    
C103  C111  1.412641 A    
C59   C63   1.372748 A    
C136  H56   1.083509 S    
C95   C103  1.394994 A    
C153  H58   1.114241 S    
C96   C104  1.400722 A    
C85   C93   1.413084 A    
C142  C148  1.416773 A    
C77   O57   1.381272 S    
C137  C145  1.416540 A    
C136  C151  1.394980 A    
C60   H36   1.087354 S    
C10   H10   1.080287 S    
N12   Ni3   1.872190 S    
N57   O50   1.301189 A    
C171  C172  1.520877 S    
C12   N12   1.337062 A    
C143  C148  1.420397 A    
N41   O18   1.300535 A    
C105  N33   1.435471 S    
C172  H105  1.110561 S    
C20   N20   1.332246 A    
C166  H91   1.110625 S    
C30   H30   1.080746 S    
N25   Ni4   1.881312 S    
C142  N54   1.436877 S    
C120  C128  1.415178 A    
C175  H113  1.114467 S    
C169  C170  1.520480 S    
C21   H21   1.075135 S    
C114  C122  1.410910 A    
C56   C60   1.384421 A    
C170  H100  1.110454 S    
N52   O39   1.301453 A    
N31   Ni6   1.883581 S    
C76   C80   1.388656 A    
N33   O2    1.301237 A    
N50   O36   1.301246 A    
C130  C138  1.387542 A    
C1    C33   1.384514 A    
N37   O10   1.300565 A    
C83   C123  1.401803 A    
C28   C45   1.372318 A    
C111  N39   1.433669 S    
C144  N56   1.437313 S    
C134  C142  1.388458 A    
C50   C54   1.397050 A    
C108  N36   1.434542 S    
C139  C146  1.420392 A    
N56   O47   1.301373 A    
N30   Ni7   1.881309 S    
N10   Ni1   1.874407 S    
N3    Ni3   1.839126 S    
C82   O62   1.398768 S    
C111  C119  1.412167 A    
N41   O17   1.301220 A    
N25   N28   1.375423 A    
C18   N18   1.342403 A    
C100  C108  1.414236 A    
C164  H84   1.110798 S    
C28   N28   1.320068 A    
N58   O52   1.300282 A    
N42   O20   1.300254 A    
N29   N32   1.375423 A    
C4    C36   1.370602 A    
C13   H13   1.081544 S    
C19   H19   1.081872 S    
C50   C70   1.407839 A    
C51   C71   1.394283 A    
N35   O5    1.299247 A    
C2    H2    1.072429 S    
C174  H111  1.110660 S    
C162  H79   1.110338 S    
C165  H88   1.115451 S    
C99   C107  1.427572 A    
C132  C140  1.398252 A    
C119  N47   1.443088 S    
C62   C66   1.404811 A    
C151  C152  1.453089 S    
C135  C152  1.395344 A    
C160  H74   1.110497 S    
C91   C99   1.399866 A    
N46   O27   1.301168 A    
N19   Ni1   1.842235 S    
C89   C97   1.398297 A    
O62   C163  1.412345 S    
N48   O32   1.300834 A    
O64   C167  1.412042 S    
C92   C100  1.395017 A    
C19   C42   1.374642 A    
C93   C101  1.400282 A    
C15   H15   1.079681 S    
N18   N19   1.378469 A    
C106  N34   1.437937 S    
C16   H16   1.077851 S    
C159  H72   1.114889 S    
C161  H78   1.111384 S    
C81   O61   1.383577 S    
C46   C53   1.412037 S    
C2    C34   1.382222 A    
C9    H9    1.081494 S    
C169  H97   1.112444 S    
C52   C72   1.402422 A    
C156  H64   1.110673 S    
N20   Ni2   1.842235 S    
