data_mof_unit_56065.cif
_audit_creation_date              2013-03-05T15:55:45-0500
_audit_creation_method            fapswitch 2.2
_symmetry_space_group_name_H-M    P1
_symmetry_Int_Tables_number       1
_space_group_crystal_system       triclinic
_cell_length_a                    10.591641
_cell_length_b                    12.381374
_cell_length_c                    13.245899
_cell_angle_alpha                 116.866114
_cell_angle_beta                  76.822367
_cell_angle_gamma                 101.174878
_cell_volume                      1500.49889519

loop_
_atom_site_label
_atom_site_type_symbol
_atom_site_description
_atom_site_fract_x
_atom_site_fract_y
_atom_site_fract_z
_atom_type_partial_charge
O1    O     O_R   0.537510 0.972500 0.318130 -0.580923
O2    O     O_R   0.487140 0.806530 0.359650 -0.607693
C1    C     C_R   0.513376 0.854726 0.286654 0.769436
O3    O     O_R   0.708330 0.082950 0.479220 -0.587917
O4    O     O_R   0.657960 0.916980 0.520740 -0.595612
C2    C     C_R   0.740335 0.999596 0.499501 0.789199
Cu1   Cu    Cu3+1 0.529830 0.098270 0.475420 1.014037
Cu2   Cu    Cu3+1 0.470170 0.901730 0.524580 0.934412
O5    O     O_R   0.512860 0.193470 0.640350 -0.535090
O6    O     O_R   0.462490 0.027500 0.681870 -0.599075
O7    O     O_R   0.342040 0.083020 0.479260 -0.511020
O8    O     O_R   0.291670 0.917050 0.520780 -0.607060
C3    C     C_R   0.481527 0.144959 0.713252 0.827048
C4    C     C_R   0.259659 0.000176 0.500200 0.805802
C5    C     C_3   0.986234 0.091783 0.477063 -0.073997
C6    C     C_3   0.068315 0.985114 0.396330 -0.164710
H1    H     H_    0.972469 0.167297 0.458492 0.180835
C7    C     C_3   0.122504 0.999661 0.500012 -0.008269
C8    C     C_3   0.042632 0.106147 0.580765 -0.089636
C9    C     C_3   0.931604 0.014233 0.603005 -0.180994
C10   C     C_3   0.013692 0.907583 0.522282 -0.130468
C11   C     C_3   0.957209 0.893196 0.418596 -0.172533
C12   C     C_3   0.877441 0.999762 0.499367 -0.014240
H2    H     H_    0.080348 0.193192 0.647212 0.200145
H3    H     H_    0.872390 0.026075 0.687407 0.160453
H4    H     H_    0.027488 0.832050 0.540804 0.168317
C13   C     C_R   0.353462 0.273890 0.028801 -0.151181
H5    H     H_    0.351050 0.093939 0.892759 0.155564
H6    H     H_    0.267618 0.457241 0.222414 0.187014
C14   C     C_R   0.462661 0.227585 0.835120 -0.062231
C15   C     C_R   0.622846 0.810212 0.089106 -0.255067
C16   C     C_R   0.679624 0.726244 0.984632 -0.188087
C17   C     C_R   0.647988 0.601346 0.952648 0.323282
C18   C     C_R   0.539863 0.559730 0.018144 -0.036017
C19   C     C_R   0.482755 0.646477 0.125470 0.042004
C20   C     C_R   0.486659 0.435577 0.982236 0.085992
C21   C     C_R   0.396818 0.397610 0.060342 0.143895
C22   C     C_R   0.343118 0.484147 0.165077 -0.185884
C23   C     C_R   0.378412 0.606791 0.193089 -0.161925
C24   C     C_R   0.509846 0.350154 0.868059 -0.126222
C25   C     C_R   0.388948 0.188557 0.916950 -0.188436
C26   C     C_R   0.532875 0.770869 0.164034 -0.095881
H7    H     H_    0.660043 0.905334 0.116084 0.185439
H8    H     H_    0.322346 0.669915 0.268729 0.176270
C27   C     C_R   0.729307 0.356491 0.347038 0.264569
H9    H     H_    0.749233 0.179710 0.331573 0.175366
H10   H     H_    0.760735 0.553674 0.303104 0.199459
N1    N     N_R   0.575030 0.246270 0.438190 -0.254208
C28   C     C_R   0.328493 0.764477 0.650594 0.079075
C29   C     C_R   0.302561 0.677613 0.693512 -0.247937
C30   C     C_R   0.373368 0.577138 0.641465 -0.092109
C31   C     C_R   0.466345 0.557777 0.541325 0.038572
C32   C     C_R   0.496729 0.654517 0.506746 0.284964
C33   C     C_R   0.536624 0.451126 0.479758 -0.152927
C34   C     C_R   0.650442 0.454085 0.399540 0.004900
C35   C     C_R   0.679950 0.551862 0.369310 -0.181076
C36   C     C_R   0.603232 0.647716 0.419497 -0.189755
C37   C     C_R   0.496163 0.339696 0.490883 0.474066
C38   C     C_R   0.688914 0.253985 0.369196 -0.069434
N2    N     N_R   0.425760 0.754330 0.561190 -0.211332
H11   H     H_    0.275564 0.844003 0.692670 0.131965
H12   H     H_    0.358895 0.520560 0.685767 0.201985
H13   H     H_    0.230474 0.690046 0.769367 0.168269
H14   H     H_    0.633459 0.716647 0.389242 0.200055
H15   H     H_    0.127561 0.973319 0.311951 0.148769
H16   H     H_    0.557576 0.379403 0.802174 0.191343
N3    N     N_R   0.738076 0.521384 0.864678 0.095075
O9    O     O_R   0.783142 0.442364 0.883116 -0.349917
O10   O     O_R   0.790651 0.540027 0.774223 -0.362901
H17   H     H_    0.758786 0.758739 0.933891 0.185743
N4    N     N_R   0.852129 0.361299 0.274667 0.120779
O11   O     O_R   0.937381 0.456120 0.308897 -0.368946
O12   O     O_R   0.888360 0.263271 0.185505 -0.369319
N5    N     N_R   0.364433 0.316523 0.539789 0.115311
O13   O     O_R   0.269226 0.312865 0.490828 -0.376835
O14   O     O_R   0.337907 0.311307 0.638426 -0.401528
H18   H     H_    0.918785 0.806145 0.352525 0.146967
H19   H     H_    0.287782 0.243983 0.089191 0.162018

loop_
_geom_bond_atom_site_label_1
_geom_bond_atom_site_label_2
_geom_bond_distance
_ccdc_geom_bond_type
C34   C35   1.399291 A    
C1    C26   1.471296 S    
C15   C26   1.398661 A    
H9    C38   1.081935 S    
C27   N4    1.437976 S    
C7    C10   1.534488 S    
C4    C7    1.452036 S    
C8    C9    1.546322 S    
C10   H4    1.110330 S    
C13   H19   1.084015 S    
Cu1   Cu2   2.719090 S    
C5    C8    1.545145 S    
C37   N5    1.431568 S    
C28   N2    1.356093 A    
C15   H7    1.083487 S    
N1    C38   1.353115 A    
C20   C21   1.419200 A    
C7    C8    1.530764 S    
O4    C2    1.299596 A    
O7    C4    1.300104 A    
C9    H3    1.110199 S    
C5    C6    1.545419 S    
H5    C25   1.083203 S    
C35   C36   1.387496 A    
C5    H1    1.110392 S    
C18   C19   1.421335 A    
C19   C26   1.417906 A    
O5    C3    1.305455 A    
H6    C22   1.084332 S    
C14   C25   1.399724 A    
C5    C12   1.534050 S    
C24   H16   1.077891 S    
C10   C11   1.545346 S    
C29   H13   1.082682 S    
C30   H12   1.071202 S    
O3    Cu1   1.950366 S    
C32   N2    1.385558 A    
C31   C33   1.446971 A    
Cu1   O7    1.952272 S    
C28   H11   1.081629 S    
N5    O13   1.301321 A    
C30   C31   1.412541 A    
C3    C14   1.460107 S    
C20   C24   1.397080 A    
O3    C2    1.296109 A    
N4    O12   1.301362 A    
C32   C36   1.403440 A    
C16   H17   1.083199 S    
N3    O9    1.301856 A    
O1    C1    1.311545 A    
C19   C23   1.414579 A    
C21   C22   1.388930 A    
C13   C25   1.392064 A    
C15   C16   1.385675 A    
C9    C12   1.530571 S    
Cu2   O8    1.950367 S    
C29   C30   1.391418 A    
C14   C24   1.396482 A    
N5    O14   1.300769 A    
C6    C7    1.530935 S    
O8    C4    1.295960 A    
C31   C32   1.423816 A    
C17   N3    1.437005 S    
C36   H14   1.065936 S    
C33   C37   1.426389 A    
Cu1   O5    1.941661 S    
C33   C34   1.420453 A    
C27   C38   1.396030 A    
C6    C11   1.546954 S    
O1    Cu1   1.952381 S    
O2    Cu2   1.941661 S    
C11   H18   1.110428 S    
O6    C3    1.306373 A    
O4    Cu2   1.952271 S    
N1    C37   1.379127 A    
C23   H8    1.080828 S    
Cu1   N1    2.049220 S    
O2    C1    1.304956 A    
N4    O11   1.301494 A    
C16   C17   1.398174 A    
C22   C23   1.384645 A    
C13   C21   1.402958 A    
C2    C12   1.451370 S    
C17   C18   1.432477 A    
C8    H2    1.109886 S    
C18   C20   1.425603 A    
C9    C10   1.545284 S    
C27   C34   1.417154 A    
Cu2   O6    1.952380 S    
C28   C29   1.386438 A    
C11   C12   1.530844 S    
C6    H15   1.110183 S    
N3    O10   1.301881 A    
Cu2   N2    2.037212 S    
H10   C35   1.081626 S    
