data_mof_unit_55817.cif
_audit_creation_date              2013-03-05T16:03:14-0500
_audit_creation_method            fapswitch 2.2
_symmetry_space_group_name_H-M    P1
_symmetry_Int_Tables_number       1
_space_group_crystal_system       triclinic
_cell_length_a                    6.939568
_cell_length_b                    14.318089
_cell_length_c                    16.016356
_cell_angle_alpha                 90.108976
_cell_angle_beta                  89.8299
_cell_angle_gamma                 90.080582
_cell_volume                      1591.39533723

loop_
_atom_site_label
_atom_site_type_symbol
_atom_site_description
_atom_site_fract_x
_atom_site_fract_y
_atom_site_fract_z
_atom_type_partial_charge
O1    O     O_R   0.361630 0.167340 0.164570 -0.597663
O2    O     O_R   0.638370 0.832660 0.835430 -0.594240
O3    O     O_R   0.690860 0.157560 0.338690 -0.593269
O4    O     O_R   0.309140 0.842440 0.661310 -0.592100
O5    O     O_R   0.861260 0.336420 0.339380 -0.595033
O6    O     O_R   0.138740 0.663580 0.660620 -0.597574
C1    C     C_R   0.521583 0.134567 0.367945 0.900462
C2    C     C_R   0.478419 0.865464 0.632080 0.902883
O7    O     O_R   0.691330 0.156310 0.165190 -0.590534
O8    O     O_R   0.308670 0.843690 0.834810 -0.590415
O9    O     O_R   0.861730 0.335160 0.164640 -0.595348
O10   O     O_R   0.138270 0.664840 0.835360 -0.592975
C3    C     C_R   0.522632 0.134133 0.136430 0.942901
C4    C     C_R   0.477264 0.865831 0.863608 0.947985
O11   O     O_R   0.361150 0.168600 0.339320 -0.592885
O12   O     O_R   0.638850 0.831400 0.660680 -0.591931
O13   O     O_3   0.527950 0.310560 0.252000 -0.257261
O14   O     O_3   0.472050 0.689440 0.748000 -0.268819
V1    V     V_3+5 0.802770 0.240990 0.251980 1.165473
V2    V     V_3+5 0.197230 0.759010 0.748020 1.159460
O15   O     O_R   0.191450 0.346190 0.165260 -0.587047
O16   O     O_R   0.808550 0.653810 0.834740 -0.589531
C5    C     C_R   0.022279 0.370146 0.138347 0.945035
C6    C     C_R   0.977421 0.629840 0.861722 0.947899
O17   O     O_R   0.190980 0.347440 0.338770 -0.585273
O18   O     O_R   0.809020 0.652560 0.661230 -0.592541
C7    C     C_R   0.022237 0.370396 0.367018 0.925676
C8    C     C_R   0.977913 0.631007 0.631893 0.920721
V3    V     V_3+5 0.302780 0.262760 0.251980 1.179397
V4    V     V_3+5 0.697220 0.737240 0.748020 1.164029
O19   O     O_3   0.027730 0.193200 0.251960 -0.276468
O20   O     O_3   0.972270 0.806800 0.748040 -0.273299
C9    C     C_3   0.940205 0.417690 0.525011 -0.061143
C10   C     C_3   0.062035 0.585682 0.472549 -0.108450
C11   C     C_3   0.112283 0.473063 0.562067 -0.078615
C12   C     C_3   0.890420 0.530337 0.435344 -0.123032
H1    H     H_    0.208125 0.452240 0.614043 0.157996
H2    H     H_    0.800871 0.553468 0.382420 0.179402
H3    H     H_    0.888602 0.347876 0.545202 0.150117
H4    H     H_    0.111886 0.655445 0.451318 0.125502
C13   C     C_3   0.989077 0.562280 0.560960 -0.133900
C14   C     C_3   0.012714 0.440876 0.436625 -0.143942
C15   C     C_3   0.817183 0.507846 0.524496 -0.102838
C16   C     C_3   0.184872 0.495456 0.472837 -0.101276
H5    H     H_    0.665293 0.513174 0.545946 0.124962
H6    H     H_    0.336619 0.490085 0.451193 0.142791
C17   C     C_R   0.849287 0.681446 0.026350 -0.246793
C18   C     C_R   0.157658 0.319716 0.974887 -0.249060
C19   C     C_R   0.770380 0.706362 0.103096 -0.246064
C20   C     C_R   0.205783 0.289084 0.895270 -0.242129
C21   C     C_R   0.757517 0.641086 0.167397 0.424707
C22   C     C_R   0.172495 0.345868 0.826360 0.432083
C23   C     C_R   0.839309 0.552374 0.156387 -0.306515
C24   C     C_R   0.102478 0.436894 0.838166 -0.315439
C25   C     C_R   0.924063 0.525879 0.079294 0.077213
C26   C     C_R   0.057990 0.470826 0.919106 0.080244
C27   C     C_R   0.920459 0.590249 0.011941 0.118846
C28   C     C_R   0.078599 0.409618 0.988247 0.119148
C29   C     C_R   0.011500 0.437052 0.068221 -0.268427
C30   C     C_R   0.986326 0.562639 0.931786 -0.270695
H7    H     H_    0.851504 0.734451 0.978326 0.151788
H8    H     H_    0.177022 0.270316 0.025078 0.156145
H9    H     H_    0.713185 0.776082 0.111325 0.178804
H10   H     H_    0.258768 0.218555 0.886892 0.175543
H11   H     H_    0.834958 0.504773 0.208705 0.147695
H12   H     H_    0.079200 0.479692 0.783457 0.126540
C31   C     C_3   0.321746 0.028293 0.480127 -0.097512
C32   C     C_3   0.678244 0.971784 0.519936 -0.100058
C33   C     C_3   0.395557 0.926210 0.474988 -0.112614
C34   C     C_3   0.604433 0.073868 0.525074 -0.111592
H13   H     H_    0.308979 0.865301 0.454051 0.116125
H14   H     H_    0.691027 0.134771 0.546016 0.123799
H15   H     H_    0.173757 0.051324 0.463998 0.119869
H16   H     H_    0.826234 0.948758 0.536069 0.118903
C35   C     C_3   0.490007 0.937315 0.561580 -0.117083
C36   C     C_3   0.509986 0.062757 0.438480 -0.114946
C37   C     C_3   0.416274 0.038767 0.567327 -0.114443
C38   C     C_3   0.583713 0.961308 0.432738 -0.119473
H17   H     H_    0.347038 0.070970 0.622909 0.154281
H18   H     H_    0.652927 0.929107 0.377152 0.146899
H19   H     H_    0.243325 0.839633 0.236666 0.135780
H20   H     H_    0.748453 0.161852 0.762593 0.153685
C39   C     C_R   0.652748 0.180556 0.969729 -0.203450
C40   C     C_R   0.341338 0.820422 0.029767 -0.208555
C41   C     C_R   0.713598 0.205615 0.889876 -0.091161
C42   C     C_R   0.277910 0.795839 0.109383 -0.094140
C43   C     C_R   0.701798 0.141839 0.824607 -0.030878
C44   C     C_R   0.291436 0.859353 0.174787 -0.028867
C45   C     C_R   0.627883 0.052655 0.838565 -0.176081
C46   C     C_R   0.368824 0.947896 0.161149 -0.171109
C47   C     C_R   0.565206 0.024999 0.919046 0.113470
C48   C     C_R   0.432950 0.975282 0.080809 0.111488
C49   C     C_R   0.578044 0.090277 0.986035 0.108158
C50   C     C_R   0.419395 0.910122 0.013755 0.109117
C51   C     C_R   0.486700 0.934772 0.932982 -0.307942
C52   C     C_R   0.512586 0.065298 0.066991 -0.307102
H21   H     H_    0.662906 0.233205 0.018042 0.133105
H22   H     H_    0.330194 0.767890 0.981406 0.134730
H23   H     H_    0.768626 0.275213 0.878463 0.141480
H24   H     H_    0.219862 0.726753 0.120576 0.143395
H25   H     H_    0.618583 0.006247 0.785344 0.106685
H26   H     H_    0.379021 0.994121 0.214464 0.105475
N1    N     N_R   0.196761 0.308512 0.744121 0.217699
O21   O     O_R   0.336312 0.250417 0.728370 -0.445473
O22   O     O_R   0.056886 0.316136 0.690835 -0.472144
N2    N     N_R   0.656542 0.663902 0.242991 0.217552
O23   O     O_R   0.647546 0.750008 0.268859 -0.455826
O24   O     O_R   0.552192 0.600782 0.280154 -0.450168

loop_
_geom_bond_atom_site_label_1
_geom_bond_atom_site_label_2
_geom_bond_distance
_ccdc_geom_bond_type
C22   N1    1.430253 S    
C19   H9    1.082456 S    
C25   C29   1.420518 A    
C20   H10   1.083154 S    
C12   C14   1.537744 S    
C31   C37   1.551682 S    
O4    C2    1.305396 A    
V1    O19   1.705382 S    
C17   C19   1.390296 A    
C32   C35   1.545671 S    
C5    C29   1.479719 S    
O9    V1    1.986070 S    
C24   H12   1.082839 S    
C9    H3    1.109753 S    
C10   H4    1.110258 S    
C9    C14   1.537696 S    
C11   H1    1.108621 S    
C36   C38   1.543205 S    
O3    C1    1.305418 A    
C38   H18   1.110141 S    
C17   C27   1.415006 A    
N2    O23   1.301393 A    
C32   H16   1.110414 S    
H20   C43   1.082761 S    
C39   C49   1.416492 A    
C8    C13   1.503480 S    
C48   C52   1.419126 A    
O13   V3    1.705012 S    
C33   H13   1.110228 S    
O7    C3    1.298124 A    
C46   H26   1.081803 S    
C9    C11   1.551309 S    
O5    C7    1.296584 A    
C18   H8    1.080575 S    
O7    V1    1.999427 S    
O6    C8    1.294442 A    
O8    V2    1.999428 S    
C19   C21   1.394636 A    
C20   C22   1.392101 A    
O3    V1    1.988990 S    
O14   V4    1.705013 S    
C45   C47   1.416216 A    
C42   H24   1.082599 S    
O14   V2    2.152842 S    
C18   C20   1.387708 A    
C2    O12   1.301002 A    
C34   C37   1.552323 S    
O17   V3    1.998518 S    
C13   C15   1.539888 S    
C33   C38   1.552276 S    
C10   C13   1.539749 S    
C14   C16   1.540839 S    
C11   C13   1.538298 S    
O1    V3    1.996059 S    
C22   C24   1.403848 A    
O11   V3    1.987613 S    
C23   C25   1.417380 A    
C32   C38   1.551665 S    
C24   C26   1.416889 A    
C41   C43   1.389256 A    
C9    C15   1.548688 S    
C10   C16   1.548786 S    
O8    C4    1.297565 A    
C27   C30   1.417184 A    
C1    O11   1.300987 A    
C3    C52   1.486342 S    
C28   C29   1.416630 A    
O15   V3    1.992054 S    
C2    C35   1.530833 S    
C26   C30   1.420193 A    
C21   C23   1.402570 A    
C41   H23   1.082344 S    
C47   C49   1.424497 A    
C15   H5    1.110337 S    
C46   C48   1.416170 A    
C6    C30   1.481078 S    
O10   V2    1.986070 S    
C48   C50   1.424497 A    
C37   H17   1.110168 S    
N1    O22   1.299264 A    
C40   C50   1.416746 A    
C11   C16   1.547910 S    
C35   C37   1.543256 S    
C31   H15   1.110415 S    
C39   C41   1.393159 A    
C44   C46   1.393491 A    
O18   V4    1.998520 S    
C49   C52   1.418899 A    
C25   C27   1.420479 A    
C34   C36   1.543607 S    
O16   C6    1.297140 A    
O1    C3    1.294300 A    
C12   H2    1.104153 S    
C4    C51   1.486380 S    
C23   H11   1.081468 S    
V2    O20   1.705382 S    
O16   V4    1.992054 S    
C45   H25   1.081825 S    
C40   C42   1.393419 A    
C17   H7    1.081649 S    
C18   C28   1.415625 A    
C1    C36   1.530846 S    
O5    V1    1.996444 S    
O17   C7    1.296670 A    
O6    V2    1.996446 S    
O10   C6    1.292976 A    
O18   C8    1.298810 A    
O2    V4    1.996055 S    
C40   H22   1.081513 S    
O15   C5    1.298605 A    
V3    O19   2.151708 S    
V4    O20   2.151707 S    
C7    C14   1.503683 S    
N2    O24   1.301192 A    
C21   N2    1.434482 S    
O9    C5    1.290749 A    
O13   V1    2.152841 S    
C10   C12   1.549555 S    
C26   C28   1.421191 A    
C33   C35   1.543567 S    
C42   C44   1.389187 A    
C50   C51   1.419177 A    
O2    C4    1.294937 A    
H19   C44   1.082717 S    
C47   C51   1.419137 A    
O4    V2    1.988994 S    
C32   C34   1.551429 S    
C39   H21   1.081647 S    
N1    O21   1.301314 A    
C43   C45   1.393645 A    
C12   C15   1.548492 S    
C34   H14   1.110243 S    
C31   C36   1.545687 S    
C31   C33   1.551419 S    
O12   V4    1.987612 S    
C16   H6    1.110390 S    
