data_mof_unit_51184.cif
_audit_creation_date              2012-12-11T15:48:09-0500
_audit_creation_method            fapswitch 2.2
_symmetry_space_group_name_H-M    P1
_symmetry_Int_Tables_number       1
_space_group_crystal_system       triclinic
_cell_length_a                    6.91669
_cell_length_b                    17.623127
_cell_length_c                    19.500454
_cell_angle_alpha                 108.586408
_cell_angle_beta                  89.307312
_cell_angle_gamma                 90.339936
_cell_volume                      2252.83875065

loop_
_atom_site_label
_atom_site_type_symbol
_atom_type_description
_atom_site_fract_x
_atom_site_fract_y
_atom_site_fract_z
_atom_type_partial_charge
O1    O     O_R   0.494330 0.415710 0.413720 -0.540828
O2    O     O_R   0.819360 0.430070 0.560210 -0.538648
O3    O     O_R   0.994320 0.584290 0.586280 -0.537009
C1    C     C_R   0.650141 0.415216 0.581889 0.718106
O4    O     O_R   0.823740 0.406290 0.412670 -0.540887
O5    O     O_R   0.998730 0.560340 0.437690 -0.540998
C2    C     C_R   0.655916 0.382212 0.385224 0.711858
O6    O     O_R   0.489920 0.439660 0.562310 -0.539415
O7    O     O_3   0.662330 0.550570 0.508380 -0.374501
V1    V     V_3+5 0.935370 0.490620 0.498440 1.389984
O8    O     O_R   0.328720 0.569930 0.439790 -0.544961
C3    C     C_R   0.160699 0.585370 0.418268 0.712657
O9    O     O_R   0.324340 0.593710 0.587330 -0.544697
C4    C     C_R   0.153862 0.618148 0.614347 0.706082
V2    V     V_3+5 0.435940 0.509380 0.501560 1.383086
O10   O     O_3   0.159110 0.449430 0.491620 -0.364848
C5    C     C_R   0.292995 0.701254 0.731936 -0.250572
H1    H     H_    0.417816 0.662148 0.719940 0.129554
C6    C     C_R   0.285639 0.763606 0.798222 0.204749
C7    C     C_R   0.123357 0.814735 0.816112 -0.078032
C8    C     C_R   0.971736 0.801937 0.766550 -0.220816
H2    H     H_    0.848813 0.842048 0.779290 0.129521
C9    C     C_R   0.977383 0.739374 0.700233 0.153278
C10   C     C_R   0.140302 0.687466 0.682525 -0.083201
C11   C     C_R   0.017135 0.617589 0.311919 0.109581
C12   C     C_R   0.154262 0.634667 0.368381 -0.177718
C13   C     C_R   0.286448 0.699070 0.376820 0.140159
C14   C     C_R   0.295889 0.740430 0.324747 0.044298
C15   C     C_R   0.148188 0.726691 0.272458 -0.101468
C16   C     C_R   0.008931 0.665611 0.266420 0.115022
C17   C     C_R   0.446506 0.796177 0.324096 0.173729
C18   C     C_R   0.428765 0.847214 0.280843 0.129646
C19   C     C_R   0.278029 0.834000 0.229681 0.047355
C20   C     C_R   0.138553 0.773830 0.225653 0.029614
C21   C     C_R   0.986118 0.761592 0.175285 0.128975
C22   C     C_R   0.848846 0.701780 0.170652 -0.208320
C23   C     C_R   0.861372 0.653730 0.214812 -0.144193
C24   C     C_R   0.265107 0.878773 0.181173 -0.198476
C25   C     C_R   0.113314 0.866987 0.131724 -0.089204
C26   C     C_R   0.972752 0.808981 0.129821 -0.226051
H3    H     H_    0.372679 0.923529 0.181143 0.135905
H4    H     H_    0.855311 0.799345 0.091612 0.127407
H5    H     H_    0.731418 0.691823 0.132456 0.128229
H6    H     H_    0.751528 0.608184 0.209175 0.163839
C27   C     C_R   0.768651 0.195394 0.876458 0.098172
C28   C     C_R   0.622445 0.136288 0.869955 -0.125443
C29   C     C_R   0.478871 0.124925 0.816155 0.137816
C30   C     C_R   0.479399 0.172171 0.769433 0.014405
C31   C     C_R   0.630798 0.227366 0.773364 -0.029652
C32   C     C_R   0.779004 0.236944 0.824989 0.079617
C33   C     C_R   0.333025 0.164339 0.717842 -0.225711
C34   C     C_R   0.333829 0.210709 0.671293 0.187147
C35   C     C_R   0.483391 0.266379 0.675293 0.099027
C36   C     C_R   0.633926 0.273614 0.725584 0.018719
C37   C     C_R   0.788541 0.326987 0.727899 0.101847
C38   C     C_R   0.938292 0.333682 0.777057 -0.200221
C39   C     C_R   0.933862 0.289384 0.824880 -0.165352
C40   C     C_R   0.487308 0.314320 0.629528 -0.197372
C41   C     C_R   0.642104 0.366787 0.631475 -0.111481
C42   C     C_R   0.792920 0.372181 0.680372 -0.197617
H7    H     H_    0.215307 0.122304 0.712867 0.133544
H8    H     H_    0.372529 0.309853 0.591101 0.168166
H9    H     H_    0.912946 0.412635 0.682147 0.125486
H10   H     H_    0.059725 0.373314 0.778525 0.130913
H11   H     H_    0.054336 0.296131 0.861269 0.153971
C43   C     C_R   0.799125 0.256174 0.293267 0.144165
C44   C     C_R   0.782255 0.194010 0.227266 -0.194052
H12   H     H_    0.897922 0.150599 0.210098 0.147494
C45   C     C_R   0.618203 0.185801 0.183713 -0.098186
C46   C     C_R   0.466763 0.242097 0.207103 0.210308
C47   C     C_R   0.483741 0.304852 0.272856 -0.226511
H13   H     H_    0.368647 0.348543 0.289278 0.122761
C48   C     C_R   0.647892 0.313292 0.316600 -0.088223
O11   O     O_R   0.774940 0.060470 0.937800 -0.541716
O12   O     O_R   0.440880 0.093730 0.087350 -0.523320
O13   O     O_R   0.266130 0.939630 0.062280 -0.542350
C49   C     C_R   0.608919 0.117490 0.114970 0.693129
O14   O     O_R   0.445480 0.069960 0.939820 -0.516949
O15   O     O_R   0.270770 0.915690 0.913690 -0.510813
C50   C     C_R   0.614780 0.086018 0.918888 0.748783
O16   O     O_R   0.770300 0.084410 0.086380 -0.549396
O17   O     O_3   0.602600 0.949510 0.991670 -0.366268
V3    V     V_3+5 0.329470 0.009370 0.001550 1.498681
O18   O     O_R   0.940760 0.906160 0.912560 -0.552439
C51   C     C_R   0.110895 0.882670 0.885028 0.740321
O19   O     O_R   0.936150 0.929930 0.060100 -0.547113
C52   C     C_R   0.104222 0.915241 0.081932 0.701585
V4    V     V_3+5 0.828930 0.990450 0.998310 1.433838
O20   O     O_3   0.105670 0.050490 0.008320 -0.359150
N1    N     N_3   0.901644 0.216726 0.936322 -0.652871
H14   H     H_    0.850737 0.198042 0.978823 0.226353
H15   H     H_    0.898914 0.279002 0.959520 0.212612
N2    N     N_3   0.334679 0.063823 0.808869 -0.655429
H16   H     H_    0.341693 0.023268 0.756402 0.217438
H17   H     H_    0.198091 0.090507 0.818294 0.246703
N3    N     N_3   0.184318 0.199394 0.618654 -0.683546
H18   H     H_    0.050890 0.207646 0.645651 0.244467
H19   H     H_    0.190050 0.139978 0.584796 0.231391
N4    N     N_3   0.441281 0.773037 0.848083 -0.650762
H20   H     H_    0.455055 0.719710 0.860296 0.216653
H21   H     H_    0.568738 0.781540 0.822134 0.229176
C53   C     C_3   0.977288 0.258032 0.337743 -0.724904
H22   H     H_    0.070253 0.204708 0.313862 0.197313
H23   H     H_    0.066081 0.311493 0.340480 0.213165
H24   H     H_    0.934978 0.258836 0.393084 0.204466
N5    N     N_3   0.297919 0.236747 0.163501 -0.646535
H25   H     H_    0.339452 0.252773 0.118238 0.217669
H26   H     H_    0.193255 0.278095 0.191285 0.222928
C54   C     C_3   0.810379 0.731390 0.649268 -0.732501
H27   H     H_    0.864745 0.729649 0.594964 0.198825
H28   H     H_    0.726866 0.676215 0.645192 0.220682
H29   H     H_    0.708645 0.782558 0.668455 0.191232
N6    N     N_3   0.884707 0.551489 0.299627 -0.688641
H30   H     H_    0.784097 0.563944 0.342137 0.245922
H31   H     H_    0.961376 0.499417 0.296183 0.228801
N7    N     N_3   0.393002 0.729616 0.442877 -0.671903
H32   H     H_    0.499247 0.688667 0.445108 0.247302
H33   H     H_    0.298313 0.739047 0.487014 0.222248
C55   C     C_3   0.637193 0.794442 0.361324 -0.705717
H34   H     H_    0.632908 0.836291 0.417575 0.223283
H35   H     H_    0.671781 0.732964 0.360880 0.213524
H36   H     H_    0.760629 0.810384 0.331724 0.205334
C56   C     C_3   0.566867 0.917200 0.290381 -0.788121
H37   H     H_    0.483863 0.972743 0.296456 0.202429
H38   H     H_    0.654171 0.931187 0.340128 0.219066
H39   H     H_    0.665623 0.904813 0.242788 0.213600

loop_
_geom_bond_atom_site_label_1
_geom_bond_atom_site_label_2
_ccdc_geom_bond_type
C40   H8    S    
C28   C50   S    
C37   C38   A    
N2    H16   S    
C43   C53   S    
C45   C49   S    
C21   C22   A    
C33   H7    S    
C25   C52   S    
C1    O6    A    
C56   H37   S    
C2    C48   S    
C35   C36   A    
C38   C39   A    
C12   C13   A    
C42   H9    S    
C14   C15   A    
C54   H28   S    
O5    C3    A    
C24   C25   A    
O14   C50   A    
C56   H38   S    
N5    H25   S    
C31   C36   A    
N7    H32   S    
C53   H24   S    
C20   C21   A    
C4    C10   S    
C28   C29   A    
O8    V2    S    
O14   V3    S    
C30   C33   A    
C29   C30   A    
N3    H19   S    
C9    C10   A    
C38   H10   S    
C46   C47   A    
O1    V2    S    
O9    C4    A    
O7    V1    S    
C13   N7    S    
C26   H4    S    
C43   C44   A    
C41   C42   A    
N2    H17   S    
O11   C50   A    
C37   C42   A    
C7    C51   S    
C18   C56   S    
C53   H22   S    
C9    C54   S    
O13   V3    S    
C5    H1    S    
C55   H35   S    
V3    O20   S    
C5    C10   A    
C44   H12   S    
O18   C51   A    
C24   H3    S    
C46   N5    S    
C54   H29   S    
C25   C26   A    
C47   C48   A    
C6    N4    S    
O19   C52   A    
C56   H39   S    
C11   C12   A    
C27   C28   A    
C43   C48   A    
C15   C20   A    
C33   C34   A    
C16   C23   A    
C3    C12   S    
C44   C45   A    
O2    C1    A    
C14   C17   A    
C15   C16   A    
C11   N6    S    
N1    H15   S    
N4    H20   S    
C49   O16   A    
C55   H34   S    
N3    H18   S    
C19   C20   A    
C29   N2    S    
V4    O20   S    
C53   H23   S    
C27   N1    S    
O12   C49   A    
O13   C52   A    
C17   C55   S    
O3    C4    A    
C30   C31   A    
N4    H21   S    
O17   V3    S    
O6    V2    S    
C8    C9    A    
O2    V1    S    
O15   C51   A    
C34   C35   A    
O4    C2    A    
N6    H30   S    
C55   H36   S    
C11   C16   A    
C36   C37   A    
C22   C23   A    
O1    C2    A    
C32   C39   A    
C17   C18   A    
O18   V4    S    
C39   H11   S    
O5    V1    S    
C35   C40   A    
C19   C24   A    
C18   C19   A    
C6    C7    A    
O9    V2    S    
C21   C26   A    
C40   C41   A    
O4    V1    S    
O3    V1    S    
V1    O10   S    
C54   H27   S    
O15   V3    S    
O12   V3    S    
N1    H14   S    
N5    H26   S    
C27   C32   A    
C23   H6    S    
O17   V4    S    
C1    C41   S    
C5    C6    A    
N7    H33   S    
C34   N3    S    
O19   V4    S    
O7    V2    S    
C45   C46   A    
O16   V4    S    
C47   H13   S    
C7    C8    A    
C31   C32   A    
C13   C14   A    
C22   H5    S    
O11   V4    S    
C8    H2    S    
V2    O10   S    
O8    C3    A    
N6    H31   S    
