data_mof_unit_22315.cif
_audit_creation_date              2012-12-10T17:42:39-0500
_audit_creation_method            fapswitch 2.2
_symmetry_space_group_name_H-M    P1
_symmetry_Int_Tables_number       1
_space_group_crystal_system       triclinic
_cell_length_a                    9.923646
_cell_length_b                    10.638731
_cell_length_c                    13.174058
_cell_angle_alpha                 90.856643
_cell_angle_beta                  69.106235
_cell_angle_gamma                 89.14394
_cell_volume                      1298.94216181

loop_
_atom_site_label
_atom_site_type_symbol
_atom_type_description
_atom_site_fract_x
_atom_site_fract_y
_atom_site_fract_z
_atom_type_partial_charge
C1    C     C_R   0.504195 0.739255 0.487960 0.896849
C2    C     C_R   0.434956 0.491499 0.983899 0.043557
C3    C     C_R   0.457131 0.446149 0.877828 -0.108893
C4    C     C_R   0.546781 0.473999 0.026091 0.024124
C5    C     C_R   0.673700 0.403660 0.965802 -0.016922
C6    C     C_R   0.682709 0.342340 0.868469 0.326631
C7    C     C_R   0.570478 0.357450 0.828772 0.339902
C8    C     C_R   0.534564 0.523095 0.127892 -0.217461
C9    C     C_R   0.765171 0.431273 0.113714 0.077640
C10   C     C_R   0.363982 0.489653 0.824762 -0.060263
C11   C     C_R   0.271085 0.897849 0.444379 0.422120
C12   C     C_R   0.418701 0.495844 0.704914 0.896358
C13   C     C_R   0.135001 0.956771 0.482283 -0.216698
C14   C     C_R   0.107146 0.057686 0.555746 -0.185956
C15   C     C_R   0.219442 0.110941 0.581358 0.141598
C16   C     C_R   0.362694 0.061217 0.530272 -0.009576
C17   C     C_R   0.380955 0.941970 0.480737 -0.019588
C18   C     C_R   0.507632 0.873056 0.473100 -0.075172
C19   C     C_R   0.628647 0.934392 0.478225 -0.216179
C20   C     C_R   0.621644 0.061298 0.497274 -0.093190
C21   C     C_R   0.490282 0.126075 0.520681 -0.078484
C22   C     C_R   0.795714 0.674434 0.634236 -0.119553
C23   C     C_R   0.496179 0.260151 0.508765 0.931406
C24   C     C_R   0.835464 0.762204 0.697366 0.082695
C25   C     C_R   0.975527 0.760230 0.697041 -0.253509
C26   C     C_R   0.075247 0.671147 0.633940 -0.133344
C27   C     C_R   0.040303 0.585286 0.565574 0.170395
C28   C     C_R   0.895924 0.586036 0.565494 0.061123
C29   C     C_R   0.959938 0.416036 0.439103 0.427010
C30   C     C_R   0.102722 0.416919 0.438761 -0.155073
C31   C     C_R   0.581315 0.500671 0.295225 0.915860
C32   C     C_R   0.784872 0.389452 0.007992 -0.165080
C33   C     C_R   0.633439 0.490615 0.176299 -0.091158
C34   C     C_R   0.230071 0.547011 0.887034 0.095713
C35   C     C_R   0.198054 0.572702 0.997113 -0.199862
C36   C     C_R   0.300105 0.549620 0.044382 -0.127390
H1    H     H_    0.049705 0.922638 0.456578 0.186284
H2    H     H_    0.998395 0.096123 0.591300 0.219823
H3    H     H_    0.719327 0.108314 0.493422 0.220160
H4    H     H_    0.685105 0.678322 0.643115 0.212372
H5    H     H_    0.006756 0.826776 0.747229 0.170402
H6    H     H_    0.177928 0.669990 0.642411 0.216404
H7    H     H_    0.181837 0.348898 0.389049 0.186999
H8    H     H_    0.884684 0.340447 0.961589 0.192606
H9    H     H_    0.443940 0.581608 0.175042 0.199590
H10   H     H_    0.267646 0.575545 0.129167 0.163673
H11   H     H_    0.095892 0.617356 0.045055 0.143946
H12   H     H_    0.728562 0.884432 0.468719 0.175695
N1    N     N_R   0.856860 0.501200 0.500990 -0.136212
N2    N     N_R   0.142450 0.501280 0.501020 -0.134082
O1    O     O_R   0.385310 0.683220 0.500000 -0.605488
O2    O     O_R   0.614640 0.683250 0.500010 -0.658854
O3    O     O_R   0.328400 0.499950 0.653610 -0.625909
O4    O     O_R   0.557730 0.499970 0.653620 -0.611208
O5    O     O_R   0.385360 0.316750 0.499990 -0.650741
O6    O     O_R   0.614690 0.316780 0.500000 -0.526869
O7    O     O_R   0.442270 0.500030 0.346380 -0.586529
O8    O     O_R   0.671600 0.500050 0.346390 -0.574712
Zn1   Zn    Zn3+2 0.346880 0.499980 0.499990 0.965365
Zn2   Zn    Zn3+2 0.653120 0.500020 0.500010 1.015259
N3    N     N_3   0.874907 0.408008 0.158807 -0.364668
H13   H     H_    0.963436 0.359784 0.102688 0.207955
H14   H     H_    0.912310 0.495190 0.173510 0.193737
Cl1   Cl    Cl    0.306295 0.787903 0.335955 -0.651931
N4    N     N_3   0.181818 0.202837 0.668686 -0.384634
H15   H     H_    0.269473 0.222272 0.692152 0.212254
H16   H     H_    0.146847 0.285642 0.643178 0.240983
Cl2   Cl    Cl    0.917930 0.300448 0.360035 -0.615840
N5    N     N_3   0.731123 0.852305 0.763122 -0.432516
H17   H     H_    0.770193 0.942102 0.739496 0.248861
H18   H     H_    0.722877 0.841451 0.843865 0.211798
Cl3   Cl    Cl    0.828851 0.238748 0.798672 -0.642008
N6    N     N_3   0.127792 0.583498 0.838738 -0.450557
H19   H     H_    0.106438 0.679895 0.853608 0.180477
H20   H     H_    0.031866 0.536734 0.877990 0.199117
Cl4   Cl    Cl    0.555190 0.243002 0.735575 -0.620631

loop_
_geom_bond_atom_site_label_1
_geom_bond_atom_site_label_2
_ccdc_geom_bond_type
C16   C21   A    
O5    Zn1   S    
N6    H19   S    
C19   C20   A    
C4    C8    A    
C35   H11   S    
O3    Zn1   S    
C23   O6    A    
O4    Zn2   S    
C6    Cl3   S    
C26   C27   A    
N1    Zn2   S    
C9    N3    S    
N2    Zn1   S    
C31   O8    A    
C34   C35   A    
C3    C7    A    
C5    C6    A    
O7    Zn1   S    
O8    Zn2   S    
C15   C16   A    
C15   N4    S    
N3    H14   S    
C18   C19   A    
N5    H18   S    
C1    C18   S    
C8    H9    S    
O2    Zn2   S    
C9    C32   A    
C35   C36   A    
C16   C17   A    
N4    H16   S    
C31   C33   S    
C36   H10   S    
C13   H1    S    
C12   O3    A    
C27   N2    A    
C5    C32   A    
C30   N2    A    
C22   C28   A    
C13   C14   A    
C9    C33   A    
N6    H20   S    
N5    H17   S    
C24   N5    S    
C24   C25   A    
C11   Cl1   S    
C25   H5    S    
C20   H3    S    
C19   H12   S    
C29   N1    A    
C25   C26   A    
O6    Zn2   S    
C2    C4    A    
C29   C30   A    
C14   H2    S    
C29   Cl2   S    
C28   N1    A    
C22   H4    S    
C17   C18   A    
C32   H8    S    
C10   C34   A    
C1    O1    A    
C6    C7    A    
C10   C12   S    
C21   C23   S    
C22   C24   A    
C30   H7    S    
O1    Zn1   S    
C26   H6    S    
C2    C36   A    
C11   C17   A    
C4    C5    A    
C23   O5    A    
C7    Cl4   S    
C31   O7    A    
C2    C3    A    
C3    C10   A    
C11   C13   A    
C8    C33   A    
N3    H13   S    
C1    O2    A    
C34   N6    S    
C20   C21   A    
N4    H15   S    
C27   C28   A    
C14   C15   A    
C12   O4    A    
