data_mof_unit_6020.cif
_audit_creation_date              2012-10-26T18:59:35-0400
_audit_creation_method            fapswitch 2.2
_symmetry_space_group_name_H-M    P1
_symmetry_Int_Tables_number       1
_space_group_crystal_system       triclinic
_cell_length_a                    23.515551
_cell_length_b                    10.794813
_cell_length_c                    9.577116
_cell_angle_alpha                 90.03025
_cell_angle_beta                  90.055045
_cell_angle_gamma                 90.728185
_cell_volume                      2430.91453889

loop_
_atom_site_label
_atom_site_type_symbol
_atom_type_description
_atom_site_fract_x
_atom_site_fract_y
_atom_site_fract_z
_atom_type_partial_charge
C1    C     C_R   0.498255 0.262332 0.499883 0.547888
C2    C     C_R   0.120073 0.584732 0.439620 0.401908
C3    C     C_R   0.238073 0.488811 0.621987 -0.055424
C4    C     C_R   0.390955 0.498889 0.499860 0.550307
C5    C     C_R   0.297415 0.493477 0.624268 -0.141969
C6    C     C_R   0.328298 0.495017 0.498620 0.006990
C7    C     C_R   0.298735 0.491343 0.370959 -0.140499
C8    C     C_R   0.239524 0.486580 0.368998 -0.055386
C9    C     C_R   0.208939 0.485575 0.494323 0.240176
C10   C     C_R   0.756423 0.396334 0.423551 -0.128747
C11   C     C_R   0.697503 0.403619 0.429046 -0.193241
C12   C     C_R   0.968887 0.274219 0.581363 -0.120517
C13   C     C_R   0.671264 0.501164 0.499606 -0.035673
C14   C     C_R   0.704998 0.594351 0.565423 -0.027776
C15   C     C_R   0.764684 0.580752 0.568521 0.313692
C16   C     C_R   0.497797 0.737578 0.500034 0.545514
C17   C     C_R   0.790422 0.484622 0.491895 0.209001
C18   C     C_R   0.485540 0.063665 0.624133 0.031980
C19   C     C_R   0.490425 0.129204 0.499193 0.006330
C20   C     C_R   0.484028 0.064040 0.372752 -0.169590
C21   C     C_R   0.482796 0.934774 0.373278 -0.163424
C22   C     C_R   0.489284 0.870254 0.499744 -0.000600
C23   C     C_R   0.028168 0.274954 0.583989 -0.123220
C24   C     C_R   0.484888 0.936416 0.624472 0.033802
C25   C     C_3   0.517846 0.930556 0.757451 -0.285355
C26   C     C_3   0.519004 0.071320 0.756455 -0.275260
C27   C     C_R   0.549244 0.522766 0.072642 0.177550
C28   C     C_R   0.608844 0.502839 0.500016 0.535673
C29   C     C_R   0.452888 0.465805 0.074132 -0.013676
C30   C     C_R   0.452831 0.466227 0.925721 -0.009638
C31   C     C_R   0.548959 0.519959 0.925944 0.106323
C32   C     C_3   0.586829 0.628714 0.912121 -0.233473
C33   C     C_3   0.588019 0.636549 0.072585 0.250204
C34   C     C_R   0.059084 0.378182 0.535011 0.037507
C35   C     C_R   0.880419 0.578861 0.423485 0.447146
C36   C     C_R   0.879616 0.378807 0.530121 0.373246
C37   C     C_R   0.939216 0.376426 0.529017 0.027690
C38   C     C_R   0.969723 0.479911 0.477345 -0.078793
C39   C     C_R   0.940349 0.582721 0.423439 0.025886
C40   C     C_3   0.679354 0.712065 0.624489 -0.244662
C41   C     C_3   0.695685 0.825001 0.534934 -0.278447
C42   C     C_3   0.664493 0.941208 0.580576 -0.466133
C43   C     C_3   0.818677 0.619741 0.761647 -0.004560
C44   C     C_3   0.852171 0.719757 0.838637 -0.372350
C45   C     C_R   0.029782 0.480810 0.481149 -0.043663
C46   C     C_3   0.645981 0.610308 0.145143 -0.207452
C47   C     C_3   0.698833 0.658497 0.066563 -0.357554
C48   C     C_3   0.751447 0.657166 0.159487 -0.416407
C49   C     C_3   0.581813 0.855720 0.087944 -0.017368
C50   C     C_3   0.615406 0.916278 0.206368 -0.392481
C51   C     C_3   0.950587 0.801377 0.180284 0.010033
C52   C     C_3   0.911859 0.902683 0.126703 -0.347316
C53   C     C_R   0.060483 0.584855 0.432852 -0.017118
C54   C     C_R   0.031199 0.686973 0.380173 -0.116901
C55   C     C_R   0.971677 0.686159 0.372361 0.253231
C56   C     C_R   0.118781 0.381714 0.538677 0.401368
Cu1   Cu    Cu3+1 0.500000 0.499980 0.640670 0.933205
Cu2   Cu    Cu3+1 0.500000 0.500020 0.359330 0.970215
H1    H     H_    0.946408 0.193530 0.621273 0.168844
H2    H     H_    0.049639 0.194794 0.625542 0.168177
H3    H     H_    0.414305 0.440084 0.871091 0.118075
H4    H     H_    0.626774 0.600997 0.861082 0.089069
H5    H     H_    0.564551 0.705125 0.859209 0.139393
H6    H     H_    0.054317 0.768810 0.345727 0.170646
H7    H     H_    0.214677 0.488677 0.719317 0.131692
H8    H     H_    0.319009 0.496095 0.724156 0.121624
H9    H     H_    0.321260 0.492110 0.272408 0.121696
H10   H     H_    0.217286 0.483944 0.269948 0.130530
H11   H     H_    0.775788 0.322458 0.364500 0.148729
H12   H     H_    0.672099 0.333227 0.376524 0.122962
H13   H     H_    0.618542 0.931593 0.556367 0.145729
H14   H     H_    0.670381 0.957738 0.694208 0.152971
H15   H     H_    0.681459 0.022580 0.522404 0.157602
H16   H     H_    0.742095 0.844004 0.541444 0.236408
H17   H     H_    0.684877 0.805372 0.424604 0.143114
H18   H     H_    0.632335 0.706028 0.628986 0.148855
H19   H     H_    0.694747 0.726537 0.733090 0.145172
H20   H     H_    0.847630 0.540988 0.742827 0.156885
H21   H     H_    0.783115 0.587731 0.829378 0.113194
H22   H     H_    0.824043 0.798443 0.864322 0.153895
H23   H     H_    0.483136 0.111914 0.273432 0.135266
H24   H     H_    0.869696 0.681068 0.936701 0.087387
H25   H     H_    0.887944 0.753693 0.772713 0.179420
H26   H     H_    0.745073 0.715456 0.253397 0.181394
H27   H     H_    0.760891 0.560937 0.191871 0.174563
H28   H     H_    0.788509 0.694725 0.101151 0.157846
H29   H     H_    0.707165 0.597252 0.976294 0.143155
H30   H     H_    0.692716 0.753882 0.027314 0.156871
H31   H     H_    0.645124 0.653134 0.250483 0.185129
H32   H     H_    0.651298 0.508926 0.160364 0.123438
H33   H     H_    0.545536 0.916736 0.063327 0.137577
H34   H     H_    0.480674 0.886293 0.274469 0.174292
H35   H     H_    0.608590 0.853472 0.992515 0.103150
H36   H     H_    0.659374 0.881040 0.208520 0.127745
H37   H     H_    0.617753 0.018080 0.190217 0.104268
H38   H     H_    0.594838 0.897084 0.308216 0.175200
H39   H     H_    0.938534 0.713116 0.126722 0.125700
H40   H     H_    0.995170 0.826940 0.152779 0.124495
H41   H     H_    0.917323 0.913456 0.012188 0.091519
H42   H     H_    0.866758 0.878137 0.148993 0.174582
H43   H     H_    0.922656 0.992094 0.178341 0.171201
H44   H     H_    0.491967 0.890671 0.843846 0.149431
H45   H     H_    0.560509 0.889803 0.744186 0.115957
H46   H     H_    0.494239 0.112626 0.843231 0.140837
H47   H     H_    0.562314 0.111560 0.740870 0.139229
H48   H     H_    0.414466 0.439094 0.128642 0.113069
N1    N     N_R   0.851458 0.479691 0.479658 -0.402669
N2    N     N_R   0.147924 0.484006 0.491406 -0.395739
N3    N     N_R   0.500360 0.500930 0.147930 -0.214713
N4    N     N_R   0.500360 0.500890 0.852020 -0.232926
O1    O     O_R   0.500000 0.319640 0.618810 -0.494787
O2    O     O_R   0.582120 0.500020 0.618760 -0.504591
O3    O     O_R   0.582120 0.500060 0.381180 -0.508106
O4    O     O_2   0.851047 0.673541 0.368512 -0.451849
O5    O     O_3   0.798115 0.669145 0.635251 -0.540236
O6    O     O_3   0.558786 0.739309 0.129798 -0.531403
O7    O     O_3   0.944257 0.791302 0.326476 -0.504016
O8    O     O_2   0.850041 0.282411 0.584568 -0.515429
O9    O     O_2   0.147490 0.283526 0.588046 -0.494617
O10   O     O_2   0.150019 0.684778 0.395567 -0.494643
O11   O     O_R   0.500010 0.319680 0.381230 -0.512750
O12   O     O_R   0.417880 0.499940 0.618820 -0.509850
O13   O     O_R   0.417880 0.499980 0.381240 -0.513232
O14   O     O_R   0.499990 0.680320 0.618770 -0.507065
O15   O     O_R   0.500000 0.680360 0.381190 -0.451553

loop_
_geom_bond_atom_site_label_1
_geom_bond_atom_site_label_2
_ccdc_geom_bond_type
C51   H39   S    
C34   C56   A    
Cu2   N3    S    
C41   C42   S    
C19   C20   A    
C18   C26   S    
C44   H25   S    
C11   H12   S    
C7    C8    A    
C46   H31   S    
Cu1   O1    S    
C53   C54   A    
C27   C33   S    
C43   H20   S    
C12   C23   A    
Cu2   O13   S    
C37   C38   A    
C30   N4    A    
C18   C24   A    
C29   N3    A    
C36   C37   A    
C44   H24   S    
C17   N1    S    
C38   C39   A    
C50   H37   S    
Cu1   O2    S    
C10   C17   A    
C43   H21   S    
C15   O5    S    
C35   O4    S    
C18   C19   A    
C12   C37   A    
C56   N2    A    
C38   C45   A    
C26   H46   S    
Cu1   O12   S    
C54   C55   A    
C12   H1    S    
C39   C55   A    
Cu1   N4    S    
C8    C9    A    
C33   O6    S    
Cu2   O3    S    
C13   C28   S    
C36   O8    S    
C16   O15   A    
C43   O5    S    
C51   H40   S    
C41   H16   S    
C45   C53   A    
C13   C14   A    
C36   N1    A    
C33   C46   S    
C3    H7    S    
C49   H33   S    
C26   H47   S    
C23   H2    S    
C52   H43   S    
C1    C19   S    
C27   C31   A    
C51   C52   S    
C44   H22   S    
C24   C25   S    
C4    C6    S    
C28   O3    A    
C2    O10   S    
C25   H45   S    
C25   C26   S    
C7    H9    S    
C52   H42   S    
C28   O2    A    
C48   H26   S    
C4    O13   A    
C9    N2    S    
C47   H29   S    
C35   C39   A    
C43   C44   S    
C29   C30   A    
C3    C9    A    
C41   H17   S    
C47   C48   S    
C23   C34   A    
Cu2   O11   S    
C42   H14   S    
C4    O12   A    
C34   C45   A    
C40   C41   S    
C8    H10   S    
C56   O9    S    
C22   C24   A    
C29   H48   S    
C55   O7    S    
C15   C17   A    
C46   C47   S    
C42   H15   S    
C16   C22   S    
C48   H27   S    
C31   C32   S    
C50   H36   S    
C32   H5    S    
C5    H8    S    
C3    C5    A    
C2    C53   A    
C6    C7    A    
C46   H32   S    
C52   H41   S    
C21   C22   A    
C32   C33   S    
C16   O14   A    
C32   H4    S    
C47   H30   S    
Cu1   O14   S    
C11   C13   A    
C50   H38   S    
Cu1   Cu2   S    
C5    C6    A    
C54   H6    S    
C2    N2    A    
C42   H13   S    
C51   O7    S    
C31   N4    A    
C48   H28   S    
C40   H19   S    
C25   H44   S    
C1    O11   A    
C35   N1    A    
C10   C11   A    
C14   C40   S    
C10   H11   S    
C40   H18   S    
C49   O6    S    
C20   C21   A    
C27   N3    A    
Cu2   O15   S    
C49   C50   S    
C30   H3    S    
C14   C15   A    
C49   H35   S    
C20   H23   S    
C1    O1    A    
C21   H34   S    
