data_mof_unit_62671.cif
_audit_creation_date              2013-03-05T16:56:52-0500
_audit_creation_method            fapswitch 2.2
_symmetry_space_group_name_H-M    P1
_symmetry_Int_Tables_number       1
_space_group_crystal_system       triclinic
_cell_length_a                    17.584914
_cell_length_b                    16.86682
_cell_length_c                    15.90042
_cell_angle_alpha                 89.667324
_cell_angle_beta                  92.27345
_cell_angle_gamma                 89.731864
_cell_volume                      4712.24124106

loop_
_atom_site_label
_atom_site_type_symbol
_atom_site_description
_atom_site_fract_x
_atom_site_fract_y
_atom_site_fract_z
_atom_type_partial_charge
O1    O     O_R   0.389130 0.566570 0.500000 -0.575606
O2    O     O_R   0.389130 0.433430 0.500000 -0.563585
C1    C     C_R   0.353258 0.500393 0.504347 0.980507
O3    O     O_R   0.500020 0.566570 0.377150 -0.595391
O4    O     O_R   0.500020 0.433430 0.377150 -0.585137
C2    C     C_R   0.501443 0.500306 0.338483 0.931440
Zn1   Zn    Zn3+2 0.500020 0.588860 0.500000 1.107919
Zn2   Zn    Zn3+2 0.500020 0.411140 0.500000 1.124250
O5    O     O_R   0.610900 0.566520 0.500010 -0.615880
O6    O     O_R   0.610900 0.433480 0.500010 -0.581808
O7    O     O_R   0.500010 0.566510 0.622860 -0.564477
O8    O     O_R   0.500010 0.433490 0.622860 -0.581097
C3    C     C_R   0.646840 0.499936 0.494881 0.940276
C4    C     C_R   0.499538 0.499940 0.661758 0.921299
C5    C     C_3   0.465559 0.584265 0.050706 -0.425078
C6    C     C_3   0.459390 0.423644 0.052683 -0.450232
C7    C     C_3   0.441147 0.433189 0.950777 0.302786
C8    C     C_3   0.472709 0.589145 0.948472 0.306901
C9    C     C_1   0.497957 0.500417 0.750047 0.128701
C10   C     C_3   0.508105 0.502304 0.084189 -0.234590
C11   C     C_3   0.499653 0.501440 0.917058 -0.263408
C12   C     C_3   0.588071 0.483135 0.949154 -0.456498
C13   C     C_3   0.595972 0.498677 0.051665 0.342152
C14   C     C_1   0.497559 0.501472 0.825000 0.242880
C15   C     C_1   0.509167 0.502577 0.176078 0.254878
C16   C     C_1   0.506361 0.501394 0.250742 0.136625
C17   C     C_R   0.841737 0.586399 0.472114 0.247350
C18   C     C_R   0.855573 0.453037 0.531678 0.241280
C19   C     C_R   0.763743 0.573309 0.456053 -0.126777
C20   C     C_R   0.777776 0.438859 0.515585 -0.177918
C21   C     C_R   0.730257 0.502142 0.485696 -0.216825
C22   C     C_R   0.885857 0.527546 0.513005 -0.116791
C23   C     C_1   0.965980 0.536448 0.519954 0.194540
C24   C     C_1   0.033582 0.536131 0.521919 0.227964
C25   C     C_R   0.161589 0.582932 0.558686 0.223248
C26   C     C_R   0.142472 0.456903 0.485951 0.218358
C27   C     C_R   0.240491 0.571083 0.558861 0.219123
C28   C     C_R   0.221217 0.444582 0.485876 0.187897
C29   C     C_R   0.270844 0.503768 0.518050 -0.338081
C30   C     C_R   0.113625 0.526916 0.520018 -0.208420
C31   C     C_R   0.451635 0.832349 0.442775 0.168531
C32   C     C_R   0.469547 0.167433 0.429795 0.171857
C33   C     C_R   0.450641 0.748261 0.446790 0.297696
C34   C     C_R   0.469750 0.251717 0.431702 0.307818
N1    N     N_R   0.500030 0.707230 0.500020 -0.217907
N2    N     N_R   0.500030 0.292770 0.500020 -0.200994
C35   C     C_R   0.551134 0.747703 0.550964 0.338061
C36   C     C_R   0.532017 0.249707 0.566659 0.302557
C37   C     C_R   0.554884 0.832160 0.548482 -0.215542
C38   C     C_R   0.535070 0.164955 0.565608 -0.234237
C39   C     C_R   0.504230 0.875213 0.493799 -0.144686
C40   C     C_R   0.502343 0.123220 0.496914 -0.151889
C41   C     C_1   0.502946 0.962907 0.493486 0.216294
C42   C     C_1   0.502508 0.035536 0.494474 0.210832
N3    N     N_R   0.399036 0.617821 0.908968 0.259064
O9    O     O_R   0.382334 0.604218 0.830073 -0.239270
O10   O     O_R   0.370629 0.683418 0.937595 -0.217518
N4    N     N_R   0.361616 0.457810 0.925204 0.243013
O11   O     O_R   0.303858 0.442266 0.970892 -0.241365
O12   O     O_R   0.345008 0.461567 0.844724 -0.261635
N5    N     N_R   0.289529 0.626851 0.601958 0.264803
O13   O     O_R   0.282239 0.702581 0.587498 -0.238666
O14   O     O_R   0.339123 0.602107 0.659092 -0.301788
N6    N     N_R   0.249628 0.372752 0.450971 0.267592
O15   O     O_R   0.227752 0.352603 0.374919 -0.228463
O16   O     O_R   0.280483 0.319348 0.501097 -0.271919
N7    N     N_R   0.399465 0.873606 0.386021 0.245083
O17   O     O_R   0.424734 0.923445 0.331180 -0.256461
O18   O     O_R   0.326833 0.859563 0.386948 -0.214686
N8    N     N_R   0.436150 0.127071 0.358354 0.255773
O19   O     O_R   0.477963 0.081384 0.313252 -0.258010
O20   O     O_R   0.365935 0.141458 0.333874 -0.213805
N9    N     N_R   0.400031 0.705864 0.391057 0.249968
O21   O     O_R   0.415031 0.702220 0.311815 -0.304077
O22   O     O_R   0.330936 0.692089 0.413221 -0.285458
N10   N     N_R   0.441174 0.293142 0.358422 0.249776
O23   O     O_R   0.465730 0.274387 0.285115 -0.279904
O24   O     O_R   0.381287 0.337902 0.362057 -0.276098
N11   N     N_R   0.602480 0.704229 0.606036 0.235477
O25   O     O_R   0.674225 0.700873 0.589416 -0.341826
O26   O     O_R   0.582485 0.688431 0.682106 -0.258896
N12   N     N_R   0.558973 0.289441 0.640945 0.246434
O27   O     O_R   0.534536 0.267343 0.713410 -0.282410
O28   O     O_R   0.617680 0.335612 0.638814 -0.336274
C43   C     C_2   0.611846 0.874929 0.602833 1.051850
O29   O     O_2   0.623940 0.854387 0.676035 -0.492124
O30   O     O_R   0.651791 0.938850 0.570136 -0.765733
H1    H     H_    0.688582 0.963293 0.613195 0.379700
C44   C     C_2   0.574385 0.120483 0.635894 1.053915
O31   O     O_2   0.636785 0.142184 0.663334 -0.521666
O32   O     O_R   0.540029 0.054030 0.670804 -0.756568
H2    H     H_    0.572461 0.028934 0.718007 0.381323
C45   C     C_2   0.383051 0.585014 0.082978 0.993975
O33   O     O_2   0.326862 0.575118 0.037072 -0.477222
O34   O     O_R   0.371608 0.600354 0.168282 -0.708517
H3    H     H_    0.315876 0.601050 0.182418 0.404132
C46   C     C_2   0.386697 0.404460 0.101190 1.042825
O35   O     O_2   0.366936 0.443183 0.161156 -0.590668
O36   O     O_R   0.346344 0.334978 0.081619 -0.644867
H4    H     H_    0.301644 0.326243 0.118921 0.404510
C47   C     C_2   0.504159 0.347273 0.080911 1.014478
O37   O     O_2   0.529124 0.341988 0.153464 -0.522876
O38   O     O_R   0.505306 0.278001 0.033077 -0.644285
H5    H     H_    0.532717 0.232238 0.063039 0.405869
C48   C     C_2   0.492643 0.662834 0.092417 1.089342
O39   O     O_2   0.479740 0.726103 0.056303 -0.471730
O40   O     O_R   0.516663 0.665433 0.177223 -0.725339
H6    H     H_    0.528965 0.721084 0.197185 0.385319
N13   N     N_R   0.447237 0.354722 0.909341 0.249827
O41   O     O_R   0.396972 0.301265 0.927194 -0.173371
O42   O     O_R   0.477615 0.347023 0.836944 -0.305717
N14   N     N_R   0.528428 0.649151 0.919587 0.241616
O43   O     O_R   0.516725 0.683407 0.846483 -0.188060
O44   O     O_R   0.586233 0.673974 0.965088 -0.300629
N15   N     N_R   0.636201 0.573192 0.077436 0.230542
O45   O     O_R   0.637501 0.591125 0.156844 -0.300341
O46   O     O_R   0.696086 0.597103 0.039459 -0.220497
N16   N     N_R   0.645036 0.436772 0.093854 0.241990
O47   O     O_R   0.644582 0.428441 0.175267 -0.277353
O48   O     O_R   0.710446 0.421805 0.061450 -0.217193
C49   C     C_2   0.650144 0.528091 0.900610 1.078540
O49   O     O_2   0.717359 0.511139 0.914930 -0.471936
O50   O     O_R   0.632722 0.579273 0.833113 -0.729212
H7    H     H_    0.679586 0.600894 0.805922 0.398873
C50   C     C_2   0.608692 0.397850 0.920192 1.009083
O51   O     O_2   0.619001 0.342551 0.968868 -0.517742
O52   O     O_R   0.621956 0.384642 0.834844 -0.724461
H8    H     H_    0.639533 0.328515 0.823469 0.423804
N17   N     N_R   0.877324 0.657420 0.442869 0.237086
O53   O     O_R   0.877573 0.673329 0.362708 -0.258092
O54   O     O_R   0.914537 0.702956 0.495697 -0.240497
N18   N     N_R   0.905150 0.390386 0.562779 0.233774
O55   O     O_R   0.913240 0.326150 0.519028 -0.243562
O56   O     O_R   0.946161 0.399791 0.631890 -0.279118
C51   C     C_2   0.718193 0.632828 0.405632 1.059671
O57   O     O_2   0.726894 0.703799 0.417866 -0.515415
O58   O     O_R   0.665033 0.607228 0.344116 -0.753247
H9    H     H_    0.636288 0.652912 0.315684 0.378305
C52   C     C_2   0.748736 0.357302 0.528061 1.092029
O59   O     O_2   0.764755 0.321214 0.593383 -0.487465
O60   O     O_R   0.706922 0.320035 0.463038 -0.728596
H10   H     H_    0.691054 0.264311 0.478657 0.355750
N19   N     N_R   0.130203 0.649946 0.601016 0.253405
O61   O     O_R   0.149382 0.663638 0.679454 -0.216078
O62   O     O_R   0.081134 0.696463 0.561889 -0.245904
N20   N     N_R   0.091589 0.396910 0.453364 0.255734
O63   O     O_R   0.040637 0.414245 0.394460 -0.289282
O64   O     O_R   0.096810 0.324499 0.481764 -0.201527

loop_
_geom_bond_atom_site_label_1
_geom_bond_atom_site_label_2
_geom_bond_distance
_ccdc_geom_bond_type
C33   N9    1.428099 S    
C5    C8    1.637015 S    
C26   N20   1.439019 S    
O30   H1    1.013859 S    
C45   O33   1.217661 D    
C17   C19   1.403829 A    
C8    C11   1.638029 S    
N9    O22   1.300059 A    
N9    O21   1.299233 A    
O34   H3    1.014180 S    
C35   N11   1.429450 S    
N3    O9    1.298986 A    
C13   N16   1.490698 S    
N14   O44   1.296589 A    
C46   O35   1.219787 D    
O50   H7    1.014055 S    
C31   N7    1.435719 S    
C41   C42   1.225208 T    
Zn1   O7    1.987421 S    
C48   O40   1.397976 S    
C47   O37   1.220554 D    
C24   C30   1.416911 S    
O4    C2    1.282352 A    
Zn1   N1    1.996528 S    
C25   C27   1.400775 A    
C8    N14   1.494967 S    
N17   O53   1.301193 A    
O2    C1    1.294619 A    
N13   O42   1.295075 A    
C20   C21   1.420453 A    
O7    C4    1.278972 A    
C6    C46   1.553325 S    
C10   C15   1.460496 S    
N4    O12   1.302336 A    
N19   O61   1.301262 A    
C32   N8    1.434760 S    
N5    O14   1.299749 A    
N1    C35   1.372659 A    
C34   N10   1.427991 S    
O5    C3    1.290676 A    
N16   O47   1.301631 A    
C26   C30   1.403182 A    
C34   N2    1.381779 A    
C6    C7    1.646079 S    
N15   O46   1.299162 A    
C38   C40   1.408047 A    
O40   H6    1.014173 S    
N8    O19   1.300658 A    
C44   O32   1.398264 S    
N20   O64   1.301258 A    
C6    C10   1.652069 S    
C7    N4    1.497071 S    
C36   C38   1.430486 A    
C1    C29   1.474931 S    
C45   O34   1.404427 S    
C51   O58   1.397573 S    
C11   C12   1.644384 S    
C31   C33   1.419581 A    
C32   C34   1.422115 A    
O3    Zn1   1.991360 S    
N14   O43   1.303624 A    
C46   O36   1.402975 S    
C40   C42   1.479685 S    
C28   N6    1.431648 S    
C43   O30   1.398455 S    
C5    C10   1.644522 S    
C27   C29   1.423192 A    
N2    C36   1.380806 A    
N7    O17   1.300077 A    
C37   C43   1.488604 S    
C51   O57   1.223216 D    
C28   C29   1.413692 A    
N10   O23   1.299271 A    
C35   C37   1.426732 A    
O32   H2    1.013827 S    
N11   O26   1.299423 A    
N18   O55   1.301245 A    
C12   C50   1.558485 S    
C37   C39   1.414892 A    
N4    O11   1.298814 A    
C43   O29   1.222705 D    
C7    C11   1.648881 S    
O1    C1    1.287539 A    
N6    O16   1.301449 A    
C38   C44   1.487843 S    
O36   H4    1.014109 S    
C10   C13   1.649699 S    
C18   C22   1.402002 A    
Zn2   O8    1.991719 S    
C23   C24   1.187929 T    
C33   N1    1.370712 A    
C49   O49   1.226941 D    
C8    N3    1.494305 S    
N18   O56   1.301175 A    
O3    C2    1.279343 A    
C19   C51   1.491413 S    
O8    C4    1.283413 A    
N12   O28   1.297441 A    
N3    O10   1.303667 A    
C50   O51   1.216855 D    
C17   N17   1.437508 S    
O52   H8    1.013977 S    
C12   C49   1.558854 S    
N20   O63   1.301260 A    
C48   O39   1.224860 D    
N7    O18   1.300748 A    
N19   O62   1.301001 A    
C20   C52   1.484538 S    
C17   C22   1.398343 A    
O1    Zn1   1.987628 S    
C4    C9    1.405291 S    
C3    C21   1.480494 S    
O2    Zn2   1.984173 S    
N10   O24   1.296244 A    
O6    C3    1.293126 A    
C7    N13   1.487138 S    
C5    C45   1.558058 S    
O4    Zn2   1.987073 S    
C27   N5    1.437421 S    
C52   O59   1.223306 D    
O58   H9    1.013807 S    
C47   O38   1.398341 S    
C22   C23   1.417645 S    
C5    C48   1.553676 S    
C18   C20   1.403653 A    
C25   C30   1.398263 A    
C15   C16   1.190217 T    
C19   C21   1.425420 A    
N13   O41   1.303534 A    
N6    O15   1.301878 A    
C52   O60   1.398672 S    
C2    C16   1.401246 S    
C26   C28   1.399326 A    
C36   N12   1.427150 S    
C9    C14   1.192319 T    
N5    O13   1.301383 A    
N16   O48   1.303086 A    
C49   O50   1.397001 S    
C39   C41   1.479155 S    
C13   N15   1.496427 S    
N11   O25   1.300278 A    
Zn1   O5    1.984154 S    
C6    C47   1.560863 S    
Zn2   O6    1.987617 S    
N12   O27   1.298846 A    
C11   C14   1.462746 S    
C32   C40   1.401988 A    
O38   H5    1.014469 S    
C50   O52   1.404924 S    
C12   C13   1.652918 S    
N8    O20   1.301117 A    
Zn2   N2    1.996523 S    
C18   N18   1.439577 S    
C44   O31   1.223132 D    
O60   H10   1.013993 S    
C31   C39   1.410615 A    
N15   O45   1.299403 A    
C25   N19   1.437943 S    
N17   O54   1.300874 A    
