data_mof_unit_16009.cif
_audit_creation_date              2013-03-05T15:45:31-0500
_audit_creation_method            fapswitch 2.2
_symmetry_space_group_name_H-M    P1
_symmetry_Int_Tables_number       1
_space_group_crystal_system       triclinic
_cell_length_a                    9.858715
_cell_length_b                    11.037333
_cell_length_c                    13.391892
_cell_angle_alpha                 92.625788
_cell_angle_beta                  83.068865
_cell_angle_gamma                 110.870382
_cell_volume                      1351.65693065

loop_
_atom_site_label
_atom_site_type_symbol
_atom_site_description
_atom_site_fract_x
_atom_site_fract_y
_atom_site_fract_z
_atom_type_partial_charge
O1    O     O_R   0.426290 0.668220 0.490680 -0.594955
O2    O     O_R   0.659360 0.703290 0.520190 -0.502120
C1    C     C_R   0.558623 0.746105 0.500101 0.794450
O3    O     O_R   0.326580 0.473880 0.629020 -0.560081
O4    O     O_R   0.559660 0.508940 0.658530 -0.580286
C2    C     C_R   0.420506 0.467884 0.688295 0.844326
Cu1   Cu    Cu3+1 0.362000 0.479240 0.482530 1.152009
Cu2   Cu    Cu3+1 0.638000 0.520760 0.517470 1.157597
O5    O     O_R   0.340640 0.296710 0.479810 -0.530183
O6    O     O_R   0.573710 0.331780 0.509320 -0.563069
O7    O     O_R   0.440340 0.491060 0.341470 -0.524784
O8    O     O_R   0.673420 0.526120 0.370980 -0.536009
C3    C     C_R   0.445875 0.255275 0.489901 0.873634
C4    C     C_R   0.576032 0.512029 0.308735 0.878566
C5    C     C_R   0.791169 0.487415 0.059559 0.613650
C6    C     C_R   0.615459 0.504841 0.198464 -0.367526
C7    C     C_R   0.220405 0.366544 0.827885 0.584481
C8    C     C_R   0.173935 0.324846 0.928111 -0.228491
C9    C     C_R   0.279093 0.347950 0.995692 0.533655
C10   C     C_R   0.429511 0.406779 0.962700 -0.011494
C11   C     C_R   0.471943 0.411683 0.858732 -0.188743
C12   C     C_R   0.539478 0.447102 0.029525 -0.063373
C13   C     C_R   0.683697 0.455939 0.993037 -0.260374
C14   C     C_R   0.715651 0.427560 0.891604 0.677393
C15   C     C_R   0.607611 0.397606 0.825855 -0.098621
C16   C     C_R   0.511605 0.488411 0.129003 -0.042152
C17   C     C_R   0.755682 0.505390 0.161552 0.551165
C18   C     C_R   0.370534 0.415880 0.792713 -0.190281
C19   C     C_2   0.593245 0.887463 0.492875 -0.264896
C20   C     C_2   0.506303 0.936222 0.447884 -0.177279
H1    H     H_    0.310258 0.050326 0.501714 0.196046
C21   C     C_2   0.420352 0.117554 0.481067 -0.376968
C22   C     C_2   0.531115 0.075474 0.451767 0.577728
H2    H     H_    0.867531 0.412589 0.443295 0.201813
N1    N     N_2   0.845330 0.551960 0.543750 0.077015
C23   C     C_2   0.921681 0.488471 0.494579 0.215643
N2    N     N_2   0.154690 0.448120 0.456210 0.067622
C24   C     C_2   0.077568 0.509261 0.509212 0.116227
F1    F     F_    0.861125 0.526174 0.223608 -0.567499
C25   C     C_2   0.396361 0.857177 0.381254 0.935831
O9    O     O_2   0.278493 0.871264 0.383169 -0.525858
O10   O     O_R   0.430615 0.771077 0.312502 -0.738714
H3    H     H_    0.345958 0.725380 0.272592 0.355859
C26   C     C_2   0.725363 0.973136 0.538468 0.984815
O11   O     O_2   0.840853 0.954400 0.519458 -0.476122
O12   O     O_R   0.717888 0.073117 0.603956 -0.730577
H4    H     H_    0.814920 0.122861 0.630111 0.392136
C27   C     C_2   0.138494 0.597248 0.592209 0.971003
O13   O     O_2   0.106951 0.557485 0.678641 -0.442870
O14   O     O_R   0.209899 0.729719 0.574054 -0.717755
H5    H     H_    0.240144 0.780954 0.637522 0.340532
F2    F     F_    0.091909 0.366861 0.384070 -0.446973
F3    F     F_    0.911136 0.659328 0.595231 -0.496981
F4    F     F_    0.848459 0.420925 0.857787 -0.528709
F5    F     F_    0.930850 0.498219 0.026944 -0.561880
C28   C     C_2   0.395995 0.546657 0.147685 0.954057
O15   O     O_2   0.286635 0.497258 0.206395 -0.416378
O16   O     O_R   0.406789 0.651536 0.088446 -0.748083
H6    H     H_    0.316838 0.676832 0.100114 0.360085
F6    F     F_    0.119230 0.350003 0.763285 -0.546698
F7    F     F_    0.237204 0.295295 0.089128 -0.567364
C29   C     C_2   0.016327 0.256541 0.962388 1.091978
O17   O     O_2   0.930212 0.204773 0.901274 -0.495685
O18   O     O_R   0.965703 0.250296 0.064901 -0.611604
H7    H     H_    0.856522 0.202101 0.078438 0.341603
C30   C     C_2   0.617873 0.312130 0.739153 0.957659
O19   O     O_2   0.735006 0.327586 0.689169 -0.487486
O20   O     O_R   0.492464 0.208710 0.718672 -0.782853
H8    H     H_    0.513174 0.148919 0.664540 0.356418
F8    F     F_    0.668064 0.160313 0.422563 -0.603223

loop_
_geom_bond_atom_site_label_1
_geom_bond_atom_site_label_2
_geom_bond_distance
_ccdc_geom_bond_type
O4    Cu2   1.944407 S    
C30   O20   1.398000 S    
C13   C14   1.403779 A    
O6    C3    1.292172 A    
C14   C15   1.402807 A    
C19   C20   1.367622 D    
N1    F3    1.336366 S    
C28   O15   1.222173 D    
C9    C10   1.413503 A    
C3    C21   1.451251 S    
C5    C17   1.391652 A    
N1    C23   1.305817 D    
C29   O18   1.399046 S    
Cu2   O8    1.950536 S    
C21   C22   1.342891 D    
C6    C17   1.408845 A    
C23   C24   1.506737 S    
C7    C8    1.407543 A    
Cu1   N2    2.020386 S    
C20   C25   1.490133 S    
Cu1   Cu2   2.689238 S    
O1    Cu1   1.954025 S    
O18   H7    1.014005 S    
Cu1   O7    1.944407 S    
C29   O17   1.223232 D    
C16   C28   1.487778 S    
C22   F8    1.363073 S    
C9    F7    1.358274 S    
O3    Cu1   1.950537 S    
C27   O13   1.221278 D    
C27   O14   1.396557 S    
C25   O9    1.223236 D    
N2    C24   1.314811 D    
O8    C4    1.309870 A    
C30   O19   1.222392 D    
H2    C23   1.084146 S    
C10   C12   1.424140 A    
C19   C26   1.491628 S    
C6    C16   1.424286 A    
O4    C2    1.299194 A    
O20   H8    1.009534 S    
O7    C4    1.297104 A    
C4    C6    1.486889 S    
C26   O11   1.223489 D    
O10   H3    1.009776 S    
C5    C13   1.405031 A    
C7    F6    1.356736 S    
C14   F4    1.359018 S    
Cu1   O5    1.948670 S    
O5    C3    1.296669 A    
C10   C11   1.402394 A    
O3    C2    1.310665 A    
C8    C9    1.405656 A    
C12   C16   1.415418 A    
C17   F1    1.358309 S    
C1    C19   1.478695 S    
N2    F2    1.337990 S    
C11   C15   1.416545 A    
C12   C13   1.416933 A    
C8    C29   1.489404 S    
O2    Cu2   1.948668 S    
O2    C1    1.300978 A    
C26   O12   1.394992 S    
C20   C22   1.467197 S    
O14   H5    1.013959 S    
O16   H6    1.013777 S    
O12   H4    1.014033 S    
C7    C18   1.410676 A    
C24   C27   1.478492 S    
C11   C18   1.425988 A    
Cu2   O6    1.954027 S    
C2    C18   1.494440 S    
C15   C30   1.479096 S    
H1    C21   1.085193 S    
C28   O16   1.398818 S    
C25   O10   1.392233 S    
O1    C1    1.299106 A    
Cu2   N1    2.020249 S    
C5    F5    1.357911 S    
