data_mof_unit_48694.cif
_audit_creation_date              2012-10-26T20:07:42-0400
_audit_creation_method            fapswitch 2.2
_symmetry_space_group_name_H-M    P1
_symmetry_Int_Tables_number       1
_space_group_crystal_system       triclinic
_cell_length_a                    9.667298
_cell_length_b                    10.86972
_cell_length_c                    17.119242
_cell_angle_alpha                 84.651243
_cell_angle_beta                  92.606393
_cell_angle_gamma                 89.605268
_cell_volume                      1789.10626589

loop_
_atom_site_label
_atom_site_type_symbol
_atom_type_description
_atom_site_fract_x
_atom_site_fract_y
_atom_site_fract_z
_atom_type_partial_charge
C1    C     C_R   0.499248 0.264212 0.491334 0.589777
C2    C     C_R   0.065805 0.567353 0.440908 0.348210
C3    C     C_R   0.514750 0.507786 0.650545 0.578025
C4    C     C_R   0.484520 0.505696 0.349437 0.615584
C5    C     C_R   0.521464 0.524383 0.736549 -0.042413
C6    C     C_R   0.481348 0.504153 0.264048 -0.011726
C7    C     C_R   0.405289 0.538006 0.784893 0.266511
C8    C     C_R   0.529530 0.603767 0.213364 0.259385
C9    C     C_R   0.428958 0.535281 0.867093 0.283165
C10   C     C_R   0.536385 0.590394 0.132679 0.275757
C11   C     C_R   0.564452 0.520581 0.901802 0.171590
C12   C     C_R   0.501242 0.737007 0.506779 0.600586
C13   C     C_R   0.502256 0.475715 0.103285 0.180053
C14   C     C_R   0.676383 0.524311 0.853710 -0.108651
C15   C     C_R   0.450967 0.380624 0.153960 -0.109001
C16   C     C_R   0.655093 0.528107 0.772677 -0.148283
C17   C     C_R   0.440283 0.394652 0.233313 -0.161397
C18   C     C_R   0.374265 0.063892 0.488145 0.153555
C19   C     C_R   0.629849 0.939403 0.500277 0.175466
C20   C     C_R   0.381056 0.938985 0.515327 0.121183
C21   C     C_R   0.622739 0.066015 0.475166 0.152773
C22   C     C_R   0.505292 0.872881 0.511026 -0.063559
C23   C     C_R   0.497794 0.130721 0.480630 -0.073267
C24   C     C_R   0.083693 0.429093 0.555873 0.372200
C25   C     C_R   0.918729 0.562905 0.440735 0.368990
C26   C     C_R   0.934522 0.427203 0.557264 0.310937
Cu1   Cu    Cu3+1 0.640660 0.500020 0.500000 1.202244
Cu2   Cu    Cu3+1 0.359340 0.499980 0.500000 1.244922
H1    H     H_    0.781079 0.523355 0.879177 0.200918
H2    H     H_    0.965984 0.999654 0.537089 0.437341
H3    H     H_    0.146873 0.812965 0.490707 0.377729
H4    H     H_    0.617412 0.182389 0.311144 0.335194
H5    H     H_    0.133003 0.356490 0.661334 0.389306
H6    H     H_    0.763840 0.659261 0.396608 0.396445
H7    H     H_    0.890313 0.305225 0.760488 0.392607
H8    H     H_    0.180425 0.617218 0.239832 0.370208
H9    H     H_    0.419421 0.294573 0.131671 0.186987
H10   H     H_    0.745242 0.535036 0.737870 0.237493
H11   H     H_    0.403585 0.317956 0.271429 0.184580
H12   H     H_    0.556761 0.851990 0.346090 0.356134
H13   H     H_    0.088914 0.620447 0.654548 0.382581
H14   H     H_    0.504924 0.699858 0.038443 0.337439
H15   H     H_    0.343648 0.611362 0.950653 0.337614
H16   H     H_    0.183641 0.981172 0.364531 0.371764
N1    N     N_2   0.589856 0.517178 0.984366 -0.183712
N2    N     N_2   0.500409 0.458217 0.022127 -0.185859
N3    N     N_R   0.852070 0.500030 0.499980 -0.303482
N4    N     N_R   0.147930 0.499970 0.500020 -0.261478
O1    O     O_R   0.618740 0.319660 0.500000 -0.418416
O2    O     O_2   0.493194 0.848804 0.193992 -0.220307
O3    O     O_3   0.537882 0.764321 0.338587 -0.541336
O4    O     O_2   0.144339 0.464213 0.785063 -0.231315
O5    O     O_2   0.184044 0.683467 0.792031 -0.166084
O6    O     O_3   0.189661 0.601959 0.657743 -0.444832
O7    O     O_3   0.572746 0.691929 0.083790 -0.575750
O8    O     O_3   0.317115 0.551090 0.912790 -0.580314
O9    O     O_2   0.132507 0.178043 0.503041 -0.145347
O10   O     O_2   0.241821 0.222232 0.377946 -0.276177
O11   O     O_3   0.124864 0.010477 0.405088 -0.442259
O12   O     O_R   0.381260 0.680340 0.500000 -0.443946
O13   O     O_2   0.772967 0.780384 0.606385 -0.236619
O14   O     O_2   0.865820 0.821174 0.475761 -0.258810
O15   O     O_3   0.889135 0.989254 0.573132 -0.362406
O16   O     O_2   0.343490 0.807956 0.651068 -0.210351
O17   O     O_2   0.198630 0.991937 0.621872 -0.149787
O18   O     O_3   0.138400 0.799939 0.548076 -0.452591
O19   O     O_2   0.854538 0.201016 0.460944 -0.154083
O20   O     O_2   0.825403 0.035332 0.374495 -0.161718
O21   O     O_3   0.676215 0.233731 0.343814 -0.501950
O22   O     O_3   0.168637 0.356279 0.608393 -0.561545
O23   O     O_R   0.381170 0.319630 0.500010 -0.428227
O24   O     O_3   0.843571 0.617458 0.376754 -0.550333
O25   O     O_2   0.722053 0.283306 0.630881 -0.233692
O26   O     O_2   0.953781 0.200742 0.634374 -0.167501
O27   O     O_3   0.905781 0.374824 0.720321 -0.556819
O28   O     O_2   0.029292 0.759819 0.327238 -0.164975
O29   O     O_2   0.265501 0.719522 0.370544 -0.286809
O30   O     O_3   0.144999 0.564167 0.284607 -0.462179
O31   O     O_R   0.618830 0.680370 0.499990 -0.489414
O32   O     O_R   0.631780 0.498870 0.613920 -0.473869
O33   O     O_R   0.368220 0.501130 0.386080 -0.436333
O34   O     O_R   0.394210 0.498840 0.613930 -0.418886
O35   O     O_R   0.605790 0.501160 0.386070 -0.470892
O36   O     O_2   0.725282 0.770806 0.235071 -0.139050
S1    S     S_3+6 0.573281 0.750404 0.245084 0.107240
S2    S     S_3+6 0.228629 0.571648 0.753607 0.126139
S3    S     S_3+6 0.215895 0.123613 0.442974 0.094869
S4    S     S_3+6 0.791871 0.877202 0.539165 0.126575
S5    S     S_3+6 0.263536 0.885161 0.586768 0.130312
S6    S     S_3+6 0.751244 0.132942 0.413728 0.115711
S7    S     S_3+6 0.871192 0.318325 0.633757 0.090026
S8    S     S_3+6 0.130154 0.658121 0.356572 0.111622

loop_
_geom_bond_atom_site_label_1
_geom_bond_atom_site_label_2
_ccdc_geom_bond_type
H3    O18   S    
O29   S8    D    
O15   S4    S    
O10   S3    D    
O3    S1    S    
C24   O22   S    
N1    N2    D    
O17   S5    D    
H7    O27   S    
C1    O23   A    
C19   C21   A    
C24   C26   A    
Cu1   O31   S    
C13   N2    S    
C11   C14   A    
C7    S2    S    
H16   O11   S    
C12   O31   A    
C12   C22   S    
C7    C9    A    
C8    S1    S    
C17   H11   S    
C15   H9    S    
C5    C16   A    
O2    S1    D    
C4    O33   A    
O20   S6    D    
O5    S2    D    
C25   N3    A    
O27   S7    S    
H2    O15   S    
O16   S5    D    
C3    O32   A    
O18   S5    S    
C21   S6    S    
Cu2   O12   S    
Cu2   O34   S    
C18   C23   A    
C24   N4    A    
C19   C22   A    
O36   S1    D    
O25   S7    D    
C4    C6    S    
Cu1   O32   S    
O6    S2    S    
C6    C8    A    
C2    N4    A    
C26   S7    S    
O14   S4    D    
O19   S6    D    
O9    S3    D    
O26   S7    D    
O13   S4    D    
H14   O7    S    
C3    O34   A    
C9    O8    S    
C2    S8    S    
C10   O7    S    
C9    C11   A    
H5    O22   S    
O28   S8    D    
C26   N3    A    
C20   C22   A    
C19   S4    S    
C13   C15   A    
C14   C16   A    
C11   N1    S    
Cu2   O23   S    
C14   H1    S    
O21   S6    S    
H6    O24   S    
C5    C7    A    
Cu1   N3    S    
C15   C17   A    
C6    C17   A    
Cu2   N4    S    
Cu2   O33   S    
C3    C5    S    
C10   C13   A    
C1    C23   S    
H4    O21   S    
H12   O3    S    
C20   S5    S    
C18   S3    S    
O30   S8    S    
C21   C23   A    
H8    O30   S    
C4    O35   A    
C25   O24   S    
O4    S2    D    
C2    C25   A    
C18   C20   A    
O11   S3    S    
H13   O6    S    
Cu1   O35   S    
C12   O12   A    
H15   O8    S    
C8    C10   A    
Cu1   Cu2   S    
C1    O1    A    
Cu1   O1    S    
C16   H10   S    
