data_mof_unit_58170.cif
_audit_creation_date              2012-12-11T14:21:05-0500
_audit_creation_method            fapswitch 2.2
_symmetry_space_group_name_H-M    P1
_symmetry_Int_Tables_number       1
_space_group_crystal_system       triclinic
_cell_length_a                    22.06565
_cell_length_b                    7.205132
_cell_length_c                    14.93128
_cell_angle_alpha                 89.950128
_cell_angle_beta                  107.469452
_cell_angle_gamma                 90.226373
_cell_volume                      2264.35614019

loop_
_atom_site_label
_atom_site_type_symbol
_atom_type_description
_atom_site_fract_x
_atom_site_fract_y
_atom_site_fract_z
_atom_type_partial_charge
O1    O     O_R   0.584770 0.505770 0.002090 -0.520783
O2    O     O_R   0.415230 0.005770 0.997910 -0.518679
O3    O     O_R   0.467060 0.173340 0.861950 -0.530783
O4    O     O_R   0.532940 0.673340 0.138050 -0.535004
C1    C     C_R   0.455326 0.344067 0.825494 0.765812
C2    C     C_R   0.544449 0.844172 0.174545 0.756681
O5    O     O_R   0.587510 0.175890 0.993210 -0.534527
O6    O     O_R   0.412490 0.675890 0.006790 -0.537622
O7    O     O_R   0.536540 0.008150 0.130100 -0.536241
O8    O     O_R   0.463460 0.508150 0.869900 -0.537447
C3    C     C_R   0.613615 0.345378 0.001410 0.670067
C4    C     C_R   0.386485 0.844190 0.998288 0.675520
O9    O     O_3   0.483140 0.340040 0.044760 -0.378669
O10   O     O_3   0.516860 0.840040 0.955240 -0.374312
V1    V     V_3+5 0.503130 0.064190 0.991700 1.543368
V2    V     V_3+5 0.496870 0.564190 0.008300 1.533777
C5    C     C_2   0.219485 0.731401 0.019099 0.057161
C6    C     C_2   0.787134 0.226612 0.011492 0.031962
C7    C     C_2   0.182908 0.886543 0.010549 -0.316267
C8    C     C_2   0.818716 0.380891 0.996277 -0.312641
H1    H     H_    0.205742 0.020801 0.011921 0.156217
H2    H     H_    0.791719 0.506092 0.971153 0.157422
C9    C     C_2   0.288934 0.743586 0.030715 -0.264233
C10   C     C_2   0.716532 0.227139 0.991059 -0.282126
C11   C     C_2   0.316645 0.852673 0.980423 -0.178993
C12   C     C_2   0.683643 0.360837 0.019679 -0.192533
H3    H     H_    0.319130 0.651620 0.083039 0.138193
H4    H     H_    0.690934 0.106523 0.954775 0.186710
C13   C     C_R   0.926575 0.887730 0.723144 -0.109083
C14   C     C_R   0.072828 0.387746 0.277192 -0.113020
C15   C     C_R   0.570558 0.848276 0.278015 -0.156263
C16   C     C_R   0.428881 0.347929 0.722085 -0.156899
C17   C     C_R   0.933607 0.926294 0.563958 -0.074973
C18   C     C_R   0.065901 0.428049 0.436380 -0.072686
C19   C     C_R   0.962889 0.928757 0.662596 -0.107614
C20   C     C_R   0.036885 0.432424 0.337669 -0.113501
C21   C     C_R   0.861305 0.858549 0.687680 -0.212649
C22   C     C_R   0.137724 0.353944 0.313064 -0.196523
C23   C     C_R   0.829823 0.862779 0.590568 0.078323
C24   C     C_R   0.169283 0.360715 0.410087 0.075405
C25   C     C_R   0.867454 0.883389 0.528596 0.068286
C26   C     C_R   0.131794 0.383459 0.471978 0.066578
C27   C     C_R   0.762061 0.845577 0.552819 0.073914
C28   C     C_R   0.236990 0.343783 0.447777 0.075748
C29   C     C_R   0.733418 0.847396 0.453889 0.090204
C30   C     C_R   0.265714 0.346191 0.546705 0.088366
C31   C     C_R   0.773295 0.828566 0.396728 -0.136508
C32   C     C_R   0.225787 0.328351 0.603942 -0.141435
C33   C     C_R   0.838382 0.850536 0.432753 -0.090439
C34   C     C_R   0.160755 0.351179 0.567904 -0.095583
C35   C     C_R   0.721866 0.824950 0.609869 -0.182301
C36   C     C_R   0.277064 0.324197 0.390571 -0.179211
C37   C     C_R   0.656864 0.798659 0.570977 -0.176204
C38   C     C_R   0.341990 0.298125 0.429277 -0.177657
C39   C     C_R   0.627570 0.807368 0.473348 0.083941
C40   C     C_R   0.371392 0.306525 0.526884 0.084616
C41   C     C_R   0.665655 0.850858 0.414715 0.002679
C42   C     C_R   0.333522 0.349848 0.585741 0.001661
C43   C     C_R   0.561244 0.774540 0.433887 0.165231
C44   C     C_R   0.437657 0.273966 0.566041 0.166186
C45   C     C_R   0.533137 0.788218 0.335047 0.146286
C46   C     C_R   0.466001 0.288045 0.664795 0.141891
C47   C     C_R   0.634895 0.896594 0.319227 -0.126410
C48   C     C_R   0.364566 0.395910 0.681206 -0.119071
H5    H     H_    0.865547 0.836492 0.384257 0.167840
H6    H     H_    0.133566 0.338471 0.616488 0.174387
H7    H     H_    0.629904 0.774700 0.619581 0.135577
H8    H     H_    0.368830 0.274929 0.380520 0.134288
H9    H     H_    0.836415 0.835226 0.738673 0.105023
H10   H     H_    0.162406 0.324720 0.262621 0.115477
H11   H     H_    0.754830 0.792469 0.323336 0.139833
H12   H     H_    0.244156 0.292922 0.677426 0.158565
H13   H     H_    0.739047 0.822644 0.685352 0.124881
H14   H     H_    0.259865 0.323448 0.315065 0.129846
O11   O     O_R   0.036450 0.233070 0.130130 -0.538088
O12   O     O_R   0.963550 0.733070 0.869870 -0.535126
O13   O     O_R   0.912470 0.560570 0.006790 -0.540665
O14   O     O_R   0.087530 0.060570 0.993210 -0.545212
C49   C     C_R   0.887184 0.390676 0.002881 0.778591
C50   C     C_R   0.113698 0.891835 0.001110 0.778035
O15   O     O_R   0.032920 0.562940 0.138050 -0.538575
O16   O     O_R   0.967080 0.062940 0.861950 -0.544846
O17   O     O_R   0.084790 0.730500 0.002090 -0.520349
O18   O     O_R   0.915210 0.230500 0.997910 -0.536254
C51   C     C_R   0.045148 0.394604 0.174644 0.746343
C52   C     C_R   0.954488 0.894602 0.825503 0.725092
O19   O     O_3   0.016820 0.396170 0.955260 -0.375424
O20   O     O_3   0.983180 0.896170 0.044740 -0.384410
V3    V     V_3+5 0.996880 0.672090 0.008300 1.521567
V4    V     V_3+5 0.003120 0.172090 0.991700 1.508159
C53   C     C_2   0.195616 0.541746 0.026456 0.811521
O21   O     O_2   0.199546 0.423351 0.969870 -0.541992
O22   O     O_R   0.172383 0.495315 0.100915 -0.678455
H15   H     H_    0.158787 0.360445 0.098711 0.269187
C54   C     C_2   0.819760 0.050908 0.049269 0.836447
O23   O     O_2   0.797511 0.902643 0.014608 -0.572907
O24   O     O_R   0.874143 0.054179 0.127149 -0.613952
H16   H     H_    0.891399 0.925452 0.146940 0.297378
C55   C     C_2   0.030687 0.980323 0.704243 0.823106
O25   O     O_2   0.067127 0.873099 0.757515 -0.547806
O26   O     O_R   0.052045 0.154490 0.685643 -0.651753
H17   H     H_    0.097851 0.177773 0.723734 0.296274
C56   C     C_2   0.969816 0.489734 0.296159 0.829319
O27   O     O_2   0.932036 0.385844 0.242347 -0.529002
O28   O     O_R   0.950626 0.665243 0.316000 -0.656940
H18   H     H_    0.905070 0.692021 0.278332 0.281482
C57   C     C_3   0.522113 0.717359 0.497853 -0.803131
H19   H     H_    0.471570 0.687050 0.461510 0.225501
H20   H     H_    0.542477 0.589588 0.536699 0.215680
H21   H     H_    0.523079 0.829564 0.549088 0.209653
C58   C     C_3   0.476472 0.216681 0.501827 -0.803168
H22   H     H_    0.526954 0.186261 0.537958 0.225221
H23   H     H_    0.455690 0.088908 0.463002 0.215673
H24   H     H_    0.475740 0.328868 0.450593 0.209408
C59   C     C_2   0.279067 0.962539 0.898028 0.818082
O29   O     O_2   0.299973 0.109564 0.878821 -0.526408
O30   O     O_R   0.221326 0.893891 0.839676 -0.625992
H25   H     H_    0.201241 0.979672 0.785052 0.319977
C60   C     C_2   0.716964 0.516911 0.080286 0.844968
O31   O     O_2   0.697603 0.675601 0.063069 -0.524389
O32   O     O_R   0.769948 0.481665 0.157647 -0.627876
H26   H     H_    0.788334 0.598868 0.193156 0.300192
C61   C     C_2   0.666996 0.016761 0.265924 0.761900
O33   O     O_2   0.692660 0.161066 0.301195 -0.534353
O34   O     O_R   0.669640 0.962649 0.177387 -0.641744
H27   H     H_    0.695408 0.051962 0.150911 0.317435
C62   C     C_2   0.332910 0.516566 0.734648 0.771126
O35   O     O_2   0.306920 0.659601 0.698848 -0.539660
O36   O     O_R   0.331176 0.464655 0.824020 -0.629649
H28   H     H_    0.305505 0.553541 0.850531 0.322435
C63   C     C_3   0.462788 0.747285 0.291630 -0.768460
H29   H     H_    0.445184 0.770240 0.214862 0.180444
H30   H     H_    0.452787 0.600169 0.304604 0.209460
H31   H     H_    0.434442 0.840457 0.322575 0.203985
C64   C     C_3   0.536336 0.247906 0.707828 -0.762563
H32   H     H_    0.554240 0.271630 0.784525 0.181936
H33   H     H_    0.546055 0.100753 0.695048 0.210044
H34   H     H_    0.564665 0.341031 0.676434 0.203467
C65   C     C_2   0.971431 0.973157 0.498560 0.841804
O37   O     O_2   0.027144 0.927649 0.517284 -0.534998
O38   O     O_R   0.943553 0.072059 0.415910 -0.625327
H35   H     H_    0.973375 0.089244 0.376446 0.324672
C66   C     C_2   0.027946 0.474233 0.501506 0.842173
O39   O     O_2   0.972041 0.429080 0.482106 -0.533431
O40   O     O_R   0.055852 0.571971 0.584613 -0.626736
H36   H     H_    0.025880 0.588021 0.623850 0.322877

loop_
_geom_bond_atom_site_label_1
_geom_bond_atom_site_label_2
_ccdc_geom_bond_type
C64   H34   S    
C22   H10   S    
O22   H15   S    
C39   C43   A    
C15   C45   A    
C37   C39   A    
C58   H22   S    
O1    C3    A    
C63   H31   S    
O2    C4    A    
C2    O7    A    
O24   H16   S    
C61   O33   D    
C23   C25   A    
O14   V4    S    
O5    C3    A    
C29   C41   A    
C5    C9    S    
C33   H5    S    
C20   C56   S    
C6    C10   S    
C7    H1    S    
C10   C12   D    
C36   H14   S    
C11   C59   S    
O40   H36   S    
C49   O18   A    
C17   C19   A    
O14   C50   A    
C61   O34   S    
C38   H8    S    
C66   O39   D    
C14   C22   A    
C44   C46   A    
C29   C31   A    
O11   V4    S    
C35   H13   S    
O11   C51   A    
C58   H23   S    
C54   O23   D    
C36   C38   A    
C18   C26   A    
C59   O30   S    
C5    C53   S    
C57   H19   S    
C9    H3    S    
C18   C20   A    
O12   V3    S    
C1    C16   S    
O15   V3    S    
C28   C36   A    
C32   C34   A    
C2    C15   S    
O6    V2    S    
C64   H33   S    
C30   C42   A    
C6    C54   S    
C57   H20   S    
O18   V4    S    
C32   H12   S    
C50   O17   A    
C19   C55   S    
C25   C33   A    
C28   C30   A    
C41   C47   A    
C30   C32   A    
C60   O32   S    
C42   C48   A    
O17   V3    S    
C65   O37   D    
C38   C40   A    
C18   C66   S    
C43   C45   A    
O26   H17   S    
C15   C47   A    
C64   H32   S    
C12   C60   S    
C16   C48   A    
O4    C2    A    
C53   O21   D    
C23   C27   A    
C3    C12   S    
C63   H30   S    
O16   C52   A    
C43   C57   S    
C40   C44   A    
C35   C37   A    
C46   C64   S    
O4    V2    S    
C62   O36   S    
C53   O22   S    
C27   C29   A    
C21   H9    S    
C55   O25   D    
O6    C4    A    
C48   C62   S    
O13   V3    S    
C13   C52   S    
O13   C49   A    
C56   O28   S    
O1    V2    S    
C14   C51   S    
O2    V1    S    
C34   H6    S    
C31   H11   S    
O32   H26   S    
C26   C34   A    
C55   O26   S    
C8    H2    S    
C39   C41   A    
O34   H27   S    
C57   H21   S    
O19   V4    S    
C62   O35   D    
O12   C52   A    
O3    V1    S    
O36   H28   S    
C66   O40   S    
C8    C49   S    
C10   H4    S    
C24   C26   A    
O3    C1    A    
C63   H29   S    
C47   C61   S    
C60   O31   D    
C54   O24   S    
C31   C33   A    
O28   H18   S    
C13   C19   A    
O16   V4    S    
C14   C20   A    
C4    C11   S    
C17   C25   A    
O7    V1    S    
C16   C46   A    
C1    O8    A    
C21   C23   A    
C44   C58   S    
O8    V2    S    
O38   H35   S    
C22   C24   A    
C65   O38   S    
C27   C35   A    
C17   C65   S    
O5    V1    S    
C5    C7    D    
C40   C42   A    
C58   H24   S    
C6    C8    D    
C9    C11   D    
C7    C50   S    
C37   H7    S    
C45   C63   S    
C24   C28   A    
O20   V3    S    
O9    V2    S    
C13   C21   A    
C56   O27   D    
O10   V1    S    
O30   H25   S    
O15   C51   A    
C59   O29   D    
