data_mof_unit_46352.cif
_audit_creation_date              2013-03-05T15:54:45-0500
_audit_creation_method            fapswitch 2.2
_symmetry_space_group_name_H-M    P1
_symmetry_Int_Tables_number       1
_space_group_crystal_system       triclinic
_cell_length_a                    12.347975
_cell_length_b                    13.152395
_cell_length_c                    14.997953
_cell_angle_alpha                 77.567324
_cell_angle_beta                  101.409525
_cell_angle_gamma                 116.723767
_cell_volume                      2110.26359922

loop_
_atom_site_label
_atom_site_type_symbol
_atom_site_description
_atom_site_fract_x
_atom_site_fract_y
_atom_site_fract_z
_atom_type_partial_charge
O1    O     O_R   0.972510 0.318130 0.526570 -0.555208
O2    O     O_R   0.806530 0.359650 0.490890 -0.603030
C1    C     C_R   0.855016 0.286593 0.506803 0.841981
O3    O     O_R   0.082980 0.479210 0.647590 -0.541187
O4    O     O_R   0.917000 0.520730 0.611900 -0.592243
C2    C     C_R   0.997655 0.497162 0.670997 0.882015
Cu1   Cu    Cu3+1 0.098270 0.475420 0.521130 0.977161
Cu2   Cu    Cu3+1 0.901730 0.524580 0.478870 0.939637
O5    O     O_R   0.193470 0.640350 0.509110 -0.590526
O6    O     O_R   0.027490 0.681870 0.473430 -0.591407
O7    O     O_R   0.083000 0.479270 0.388100 -0.586268
O8    O     O_R   0.917020 0.520790 0.352410 -0.597864
C3    C     C_R   0.145105 0.713726 0.487226 0.794563
C4    C     C_R   0.001041 0.501220 0.329196 0.774204
C5    C     C_R   0.028866 0.601004 0.171590 -0.224339
C6    C     C_R   0.999965 0.499356 0.233174 -0.063554
C7    C     C_R   0.964817 0.394814 0.202899 -0.182156
C8    C     C_R   0.955125 0.389956 0.109123 0.087392
C9    C     C_R   0.988635 0.493287 0.046669 0.028103
C10   C     C_R   0.025554 0.599098 0.078483 0.105102
C11   C     C_R   0.907824 0.283721 0.076848 0.030996
C12   C     C_R   0.897959 0.280328 0.982128 0.314495
C13   C     C_R   0.946099 0.384701 0.920443 -0.110103
C14   C     C_R   0.985438 0.491254 0.952850 -0.068394
C15   C     C_R   0.021044 0.596232 0.891463 0.141153
C16   C     C_R   0.056781 0.701446 0.923728 0.166942
C17   C     C_R   0.058087 0.701541 0.017154 -0.225253
C18   C     C_R   0.955633 0.386665 0.827241 0.331350
C19   C     C_R   0.991475 0.491839 0.767654 -0.189002
C20   C     C_R   0.020049 0.594122 0.798791 -0.261545
H1    H     H_    0.055296 0.681416 0.196602 0.130919
H2    H     H_    0.942067 0.317354 0.252792 0.159847
H3    H     H_    0.045305 0.672787 0.750092 0.174246
H4    H     H_    0.085903 0.782093 0.042275 0.150210
C21   C     C_R   0.272158 0.024225 0.380513 0.161789
H5    H     H_    0.091881 0.888322 0.387591 0.163521
H6    H     H_    0.457799 0.216016 0.313077 0.158495
C22   C     C_R   0.227722 0.835872 0.469243 -0.109396
C23   C     C_R   0.815098 0.084352 0.562679 -0.100938
C24   C     C_R   0.735688 0.969590 0.581192 -0.112147
C25   C     C_R   0.612384 0.933039 0.550049 -0.148737
C26   C     C_R   0.566421 0.010418 0.494800 0.086513
C27   C     C_R   0.651243 0.123587 0.463902 0.046527
C28   C     C_R   0.439376 0.978171 0.468012 0.058715
C29   C     C_R   0.398942 0.055834 0.406100 0.059733
C30   C     C_R   0.485498 0.160022 0.366841 -0.218794
C31   C     C_R   0.609874 0.191201 0.390362 0.152253
C32   C     C_R   0.351066 0.870347 0.501142 -0.225832
C33   C     C_R   0.187948 0.914158 0.411797 -0.160012
C34   C     C_R   0.773706 0.163342 0.507417 -0.104175
H7    H     H_    0.375406 0.809456 0.550740 0.157472
H8    H     H_    0.908545 0.111828 0.594350 0.166839
H9    H     H_    0.556469 0.842964 0.569051 0.129316
H10   H     H_    0.768968 0.909313 0.623450 0.155509
C35   C     C_R   0.345404 0.325490 0.644501 -0.278760
H11   H     H_    0.340823 0.255590 0.699304 0.194211
N1    N     N_R   0.246280 0.438190 0.553160 -0.174004
C36   C     C_R   0.759621 0.646265 0.376196 0.086835
C37   C     C_R   0.663555 0.678574 0.349958 -0.242348
C38   C     C_R   0.560415 0.623513 0.396784 -0.171600
C39   C     C_R   0.551928 0.534726 0.470972 0.004524
C40   C     C_R   0.652985 0.504832 0.495270 0.216638
C41   C     C_R   0.447763 0.474900 0.521900 -0.078507
C42   C     C_R   0.447447 0.386663 0.595872 0.017926
C43   C     C_R   0.548085 0.359376 0.619355 0.265028
C44   C     C_R   0.647410 0.417603 0.569329 -0.238009
C45   C     C_R   0.342848 0.498257 0.502600 0.008209
C46   C     C_R   0.246140 0.353114 0.622845 0.326975
N2    N     N_R   0.754320 0.561190 0.447410 -0.205259
H12   H     H_    0.335839 0.563699 0.447747 0.129353
H13   H     H_    0.839376 0.689733 0.339619 0.128517
H14   H     H_    0.489107 0.652301 0.373565 0.136765
H15   H     H_    0.669135 0.746708 0.293183 0.156895
H16   H     H_    0.720149 0.392780 0.592857 0.243943
N3    N     N_3   0.226320 0.100386 0.320407 -0.597554
H17   H     H_    0.259549 0.176594 0.348457 0.224772
H18   H     H_    0.257872 0.118965 0.256464 0.225021
N4    N     N_3   0.688695 0.279755 0.327510 -0.570109
H19   H     H_    0.774486 0.279634 0.335899 0.199942
H20   H     H_    0.695902 0.359373 0.336106 0.264037
N5    N     N_3   0.144826 0.292741 0.674956 -0.474019
H21   H     H_    0.111684 0.204992 0.671840 0.202189
H22   H     H_    0.178232 0.305074 0.743316 0.245108
N6    N     N_R   0.552531 0.273131 0.695377 0.127495
O9    O     O_R   0.584393 0.195084 0.684680 -0.294991
O10   O     O_R   0.546839 0.284921 0.778044 -0.328620
N7    N     N_3   0.863007 0.179163 0.140324 -0.585348
H23   H     H_    0.771202 0.129913 0.118891 0.263468
H24   H     H_    0.913482 0.133177 0.140549 0.263166
N8    N     N_R   0.825733 0.172137 0.948497 0.158342
O11   O     O_R   0.726434 0.158028 0.892779 -0.246722
O12   O     O_R   0.852246 0.084735 0.979560 -0.333390
N9    N     N_R   0.936408 0.284685 0.793793 0.146743
O13   O     O_R   0.859308 0.251586 0.721570 -0.322709
O14   O     O_R   0.999090 0.226683 0.833902 -0.345270
N10   N     N_3   0.092236 0.807952 0.861584 -0.580664
H25   H     H_    0.177914 0.827974 0.843592 0.227002
H26   H     H_    0.103320 0.875104 0.894440 0.239895

loop_
_geom_bond_atom_site_label_1
_geom_bond_atom_site_label_2
_geom_bond_distance
_ccdc_geom_bond_type
C35   H11   1.081770 S    
C11   N7    1.436665 S    
N9    O13   1.300568 A    
C8    C11   1.404682 A    
C25   C26   1.419423 A    
C9    C10   1.414747 A    
N7    H23   1.045497 S    
C35   C46   1.389976 A    
Cu1   Cu2   2.708452 S    
C22   C33   1.396108 A    
C29   C30   1.396831 A    
Cu1   O7    1.958339 S    
C21   N3    1.433747 S    
Cu2   N2    2.029360 S    
C46   N5    1.425699 S    
C18   C19   1.407698 A    
N6    O10   1.301249 A    
O4    C2    1.297553 A    
O7    C4    1.298931 A    
N4    H20   1.044450 S    
C36   H13   1.081648 S    
C38   H14   1.077806 S    
C5    C6    1.391904 A    
C44   H16   1.061391 S    
C8    C9    1.412456 A    
C39   C41   1.441037 A    
O5    C3    1.303908 A    
C32   H7    1.075428 S    
C6    C7    1.392577 A    
N10   H26   1.045759 S    
C21   C33   1.394196 A    
C13   C14   1.422615 A    
C37   H15   1.082575 S    
C22   C32   1.392188 A    
C23   H8    1.081535 S    
C37   C38   1.394639 A    
N9    O14   1.300816 A    
C11   C12   1.410284 A    
N10   H25   1.045577 S    
C26   C28   1.424038 A    
N1    C45   1.368780 A    
O3    Cu1   1.956074 S    
N5    H22   1.044862 S    
C1    C34   1.472874 S    
N5    H21   1.045220 S    
C17   H4    1.084332 S    
C16   N10   1.438852 S    
C5    C10   1.394210 A    
C41   C45   1.423982 A    
C40   C44   1.401869 A    
C14   C15   1.419202 A    
O3    C2    1.301851 A    
C23   C24   1.383113 A    
N4    H19   1.042472 S    
C43   N6    1.436686 S    
C15   C16   1.413685 A    
C40   N2    1.386528 A    
C38   C39   1.410422 A    
O1    C1    1.306270 A    
N3    H17   1.045647 S    
C19   C20   1.389504 A    
N8    O12   1.301234 A    
Cu2   O8    1.956074 S    
C35   C42   1.402169 A    
C23   C34   1.402388 A    
C7    C8    1.400617 A    
C12   N8    1.436784 S    
C36   N2    1.358041 A    
C13   C18   1.419618 A    
N6    O9    1.301281 A    
N3    H18   1.045222 S    
C25   H9    1.076225 S    
C3    C22   1.463769 S    
C24   C25   1.387256 A    
O8    C4    1.298278 A    
C24   H10   1.082909 S    
N7    H24   1.044806 S    
C16   C17   1.398370 A    
C4    C6    1.442949 S    
C26   C27   1.421320 A    
N1    C46   1.356387 A    
C21   C29   1.420073 A    
C28   C29   1.421865 A    
C15   C20   1.393637 A    
Cu1   O5    1.934413 S    
C30   C31   1.390241 A    
C20   H3    1.084318 S    
O1    Cu1   1.945758 S    
O2    Cu2   1.934414 S    
O6    C3    1.303354 A    
O4    Cu2   1.958341 S    
C27   C34   1.425265 A    
C5    H1    1.085241 S    
C10   C17   1.395918 A    
C45   H12   1.076600 S    
C42   C43   1.403789 A    
C9    C14   1.405511 A    
C36   C37   1.392557 A    
N8    O11   1.301127 A    
O2    C1    1.304145 A    
C39   C40   1.429750 A    
C41   C42   1.421597 A    
C2    C19   1.451727 S    
Cu2   O6    1.945757 S    
C43   C44   1.387636 A    
C7    H2    1.083639 S    
C12   C13   1.424965 A    
C18   N9    1.436413 S    
C31   N4    1.436357 S    
H6    C30   1.082259 S    
C27   C31   1.425323 A    
Cu1   N1    2.041318 S    
H5    C33   1.083798 S    
C28   C32   1.402594 A    
