data_mof_unit_31433.cif
_audit_creation_date              2012-10-26T17:10:32-0400
_audit_creation_method            fapswitch 2.2
_symmetry_space_group_name_H-M    P1
_symmetry_Int_Tables_number       1
_space_group_crystal_system       triclinic
_cell_length_a                    16.875555
_cell_length_b                    16.868211
_cell_length_c                    16.872078
_cell_angle_alpha                 67.848595
_cell_angle_beta                  67.776151
_cell_angle_gamma                 67.811674
_cell_volume                      3960.1185457

loop_
_atom_site_label
_atom_site_type_symbol
_atom_type_description
_atom_site_fract_x
_atom_site_fract_y
_atom_site_fract_z
_atom_type_partial_charge
C1    C     C_R   0.598007 0.018902 0.597844 0.070364
C2    C     C_R   0.401969 0.981188 0.402130 0.070379
C3    C     C_R   0.019139 0.597763 0.597944 0.070637
C4    C     C_R   0.981152 0.402152 0.401978 0.070628
C5    C     C_R   0.598006 0.597789 0.018986 0.070410
C6    C     C_R   0.401964 0.402178 0.981127 0.070423
C7    C     C_R   0.025651 0.829364 0.565858 0.803473
C8    C     C_R   0.974360 0.170637 0.434139 0.803559
C9    C     C_R   0.829354 0.565854 0.025751 0.803379
C10   C     C_R   0.170647 0.434145 0.974254 0.803376
C11   C     C_R   0.565844 0.025743 0.829354 0.803753
C12   C     C_R   0.434155 0.974259 0.170646 0.803773
C13   C     C_R   0.434156 0.170638 0.974308 0.803709
C14   C     C_R   0.565843 0.829362 0.025695 0.803680
C15   C     C_R   0.974310 0.434144 0.170637 0.803328
C16   C     C_R   0.025704 0.565853 0.829364 0.803247
C17   C     C_R   0.170647 0.974213 0.434158 0.803478
C18   C     C_R   0.829354 0.025790 0.565842 0.803481
C19   C     C_R   0.547821 0.008721 0.547981 0.115809
C20   C     C_R   0.452153 0.991384 0.451985 0.115811
C21   C     C_R   0.008942 0.547893 0.547779 0.116677
C22   C     C_R   0.991391 0.452000 0.452138 0.116695
C23   C     C_R   0.547831 0.547918 0.008805 0.117013
C24   C     C_R   0.452137 0.452038 0.991326 0.117017
C25   C     C_R   0.589084 0.951314 0.492592 -0.179338
C26   C     C_R   0.410889 0.048791 0.507373 -0.179344
C27   C     C_R   0.951337 0.492781 0.589041 -0.181462
C28   C     C_R   0.048999 0.507111 0.410873 -0.181462
C29   C     C_R   0.458186 0.554673 0.057473 -0.181309
C30   C     C_R   0.541782 0.445283 0.942659 -0.181303
C31   C     C_R   0.541813 0.942810 0.445118 -0.180678
C32   C     C_R   0.458162 0.057296 0.554848 -0.180683
C33   C     C_R   0.410894 0.507251 0.048896 -0.180204
C34   C     C_R   0.589073 0.492706 0.951237 -0.180201
C35   C     C_R   0.942726 0.445345 0.541773 -0.182207
C36   C     C_R   0.057610 0.554548 0.458143 -0.182212
C37   C     C_R   0.558435 0.022394 0.686310 -0.221508
C38   C     C_R   0.441545 0.977678 0.313670 -0.221541
C39   C     C_R   0.022583 0.686202 0.558405 -0.223043
C40   C     C_R   0.977652 0.313731 0.441530 -0.223117
C41   C     C_R   0.686458 0.558332 0.022407 -0.220516
C42   C     C_R   0.313517 0.441642 0.977687 -0.220547
C43   C     C_R   0.313503 0.977721 0.441624 -0.219331
C44   C     C_R   0.686478 0.022354 0.558354 -0.219293
C45   C     C_R   0.441540 0.313731 0.977621 -0.221616
C46   C     C_R   0.558435 0.686243 0.022470 -0.221580
C47   C     C_R   0.977673 0.441625 0.313561 -0.220559
C48   C     C_R   0.022569 0.558307 0.686376 -0.220542
C49   C     C_R   0.604007 0.035520 0.733027 -0.101216
C50   C     C_R   0.395991 0.964499 0.266971 -0.101210
C51   C     C_R   0.035352 0.733073 0.604087 -0.101043
C52   C     C_R   0.964722 0.266918 0.395902 -0.101025
C53   C     C_R   0.733113 0.604120 0.035311 -0.100636
C54   C     C_R   0.266885 0.395877 0.964718 -0.100627
C55   C     C_R   0.266911 0.964619 0.395926 -0.100714
C56   C     C_R   0.733088 0.035402 0.604072 -0.100721
C57   C     C_R   0.395966 0.266951 0.964587 -0.101300
C58   C     C_R   0.604031 0.733046 0.035440 -0.101309
C59   C     C_R   0.964833 0.395845 0.266855 -0.100752
C60   C     C_R   0.035246 0.604145 0.733137 -0.100767
C61   C     C_R   0.688684 0.050699 0.688725 -0.067271
C62   C     C_R   0.311331 0.949285 0.311290 -0.067162
C63   C     C_R   0.050091 0.688983 0.688945 -0.067466
C64   C     C_R   0.949880 0.311056 0.311093 -0.067207
C65   C     C_R   0.688773 0.688863 0.050422 -0.067277
C66   C     C_R   0.311243 0.311154 0.949563 -0.067156
Cu1   Cu    Cu3+1 0.995180 0.995180 0.424630 0.940153
Cu2   Cu    Cu3+1 0.004820 0.004820 0.575370 0.940304
Cu3   Cu    Cu3+1 0.995180 0.424630 0.995180 0.939129
Cu4   Cu    Cu3+1 0.004820 0.575370 0.004820 0.939282
Cu5   Cu    Cu3+1 0.424630 0.995180 0.995180 0.941316
Cu6   Cu    Cu3+1 0.575370 0.004820 0.004820 0.941383
H1    H     H_    0.492493 0.012822 0.719336 0.156280
H2    H     H_    0.507480 0.987269 0.280635 0.156276
H3    H     H_    0.013183 0.719113 0.492422 0.155545
H4    H     H_    0.987108 0.280796 0.507490 0.155550
H5    H     H_    0.718941 0.491409 0.015428 0.153769
H6    H     H_    0.281026 0.508555 0.984693 0.153755
H7    H     H_    0.280967 0.984780 0.508519 0.154116
H8    H     H_    0.719006 0.015317 0.491451 0.154131
H9    H     H_    0.507482 0.280759 0.987131 0.156293
H10   H     H_    0.492483 0.719205 0.012982 0.156296
H11   H     H_    0.984587 0.508549 0.281134 0.153738
H12   H     H_    0.015718 0.491360 0.718782 0.153742
O1    O     O_R   0.124540 0.978640 0.385460 -0.587632
O2    O     O_R   0.875460 0.021360 0.614540 -0.587606
O3    O     O_R   0.978640 0.385460 0.124540 -0.587078
O4    O     O_R   0.021360 0.614540 0.875460 -0.587030
O5    O     O_R   0.385460 0.124540 0.978640 -0.587441
O6    O     O_R   0.614540 0.875460 0.021360 -0.587417
O7    O     O_R   0.614540 0.021360 0.875460 -0.587722
O8    O     O_R   0.385460 0.978640 0.124540 -0.587738
O9    O     O_R   0.875460 0.614540 0.021360 -0.587374
O10   O     O_R   0.124540 0.385460 0.978640 -0.587397
O11   O     O_R   0.021360 0.875460 0.614540 -0.587115
O12   O     O_R   0.978640 0.124540 0.385460 -0.587184
O13   O     O_R   0.013780 0.867370 0.487190 -0.587791
O14   O     O_R   0.986220 0.132630 0.512810 -0.587802
O15   O     O_R   0.867370 0.487190 0.013780 -0.588423
O16   O     O_R   0.132630 0.512810 0.986220 -0.588439
O17   O     O_R   0.487190 0.013780 0.867370 -0.587170
O18   O     O_R   0.512810 0.986220 0.132630 -0.587178
O19   O     O_R   0.512810 0.132630 0.986220 -0.587139
O20   O     O_R   0.487190 0.867370 0.013780 -0.587130
O21   O     O_R   0.986220 0.512810 0.132630 -0.588410
O22   O     O_R   0.013780 0.487190 0.867370 -0.588404
O23   O     O_R   0.132630 0.986220 0.512810 -0.587818
O24   O     O_R   0.867370 0.013780 0.487190 -0.587808
H13   H     H_    0.424931 0.103059 0.595923 0.127674
H14   H     H_    0.575043 0.897045 0.404044 0.127667
H15   H     H_    0.103503 0.595434 0.424934 0.127355
H16   H     H_    0.896826 0.404466 0.574982 0.127368
H17   H     H_    0.657583 0.487186 0.911722 0.125881
H18   H     H_    0.342383 0.512773 0.088406 0.125870
H19   H     H_    0.342370 0.088238 0.512998 0.128272
H20   H     H_    0.657602 0.911865 0.486968 0.128274
H21   H     H_    0.574985 0.404331 0.896782 0.127123
H22   H     H_    0.424983 0.595629 0.103348 0.127122
H23   H     H_    0.088505 0.512545 0.342362 0.126038
H24   H     H_    0.911821 0.487352 0.657549 0.126060
C67   C     C_R   0.726280 0.091030 0.726395 0.150605
C68   C     C_R   0.782329 0.037572 0.782336 -0.001347
C69   C     C_R   0.816696 0.076947 0.816816 -0.157415
C70   C     C_R   0.795544 0.169625 0.795911 -0.123386
C71   C     C_R   0.740000 0.223072 0.740499 -0.139278
C72   C     C_R   0.705441 0.184010 0.705817 -0.167107
H25   H     H_    0.799096 0.965669 0.798932 0.097331
H26   H     H_    0.859703 0.035597 0.859728 0.098181
H27   H     H_    0.822188 0.200049 0.822650 0.116724
H28   H     H_    0.723717 0.294824 0.724417 0.121393
H29   H     H_    0.662474 0.226087 0.662962 0.119330
C73   C     C_R   0.273806 0.908819 0.273690 0.150459
C74   C     C_R   0.294727 0.815824 0.294350 -0.167211
C75   C     C_R   0.260240 0.776628 0.259736 -0.139304
C76   C     C_R   0.204685 0.829955 0.204312 -0.123354
C77   C     C_R   0.183452 0.922646 0.183325 -0.157497
C78   C     C_R   0.217747 0.962155 0.217738 -0.001429
H30   H     H_    0.337704 0.773839 0.337215 0.119374
H31   H     H_    0.276588 0.704865 0.275881 0.121408
H32   H     H_    0.178096 0.799427 0.177625 0.116736
H33   H     H_    0.140437 0.963902 0.140402 0.098254
H34   H     H_    0.200917 0.034067 0.201079 0.097484
C79   C     C_R   0.088674 0.727545 0.727428 0.152474
C80   C     C_R   0.181456 0.707972 0.707576 -0.168171
C81   C     C_R   0.218758 0.743578 0.743031 -0.129408
C82   C     C_R   0.163741 0.798904 0.798478 -0.121501
C83   C     C_R   0.071239 0.818808 0.818649 -0.160754
C84   C     C_R   0.033613 0.783407 0.783395 -0.001035
H35   H     H_    0.224731 0.665200 0.664693 0.119614
H36   H     H_    0.290369 0.728277 0.727512 0.129912
H37   H     H_    0.192812 0.826357 0.825811 0.120017
H38   H     H_    0.028673 0.861653 0.861577 0.098155
H39   H     H_    0.961831 0.799222 0.799392 0.096247
C85   C     C_R   0.910870 0.272719 0.272829 0.152059
C86   C     C_R   0.965537 0.216817 0.216830 -0.001168
C87   C     C_R   0.927478 0.181666 0.181778 -0.160934
C88   C     C_R   0.834933 0.201860 0.202187 -0.121293
C89   C     C_R   0.780305 0.257227 0.257673 -0.129447
C90   C     C_R   0.818041 0.292583 0.292922 -0.168599
H40   H     H_    0.037348 0.200781 0.200643 0.096563
H41   H     H_    0.969742 0.138790 0.138818 0.098340
H42   H     H_    0.805526 0.174602 0.175010 0.120137
H43   H     H_    0.708660 0.272758 0.273379 0.129962
H44   H     H_    0.775064 0.335395 0.335833 0.119762
C91   C     C_R   0.726634 0.727013 0.090022 0.151394
C92   C     C_R   0.705384 0.707668 0.182913 -0.167745
C93   C     C_R   0.739740 0.743314 0.221235 -0.134386
C94   C     C_R   0.795510 0.798436 0.167134 -0.122245
C95   C     C_R   0.817064 0.818123 0.074535 -0.159120
C96   C     C_R   0.782848 0.782734 0.035894 -0.001230
H45   H     H_    0.662164 0.665126 0.225488 0.119486
H46   H     H_    0.723078 0.728247 0.292923 0.125380
H47   H     H_    0.821982 0.825935 0.196989 0.118390
H48   H     H_    0.860197 0.860858 0.032677 0.098216
H49   H     H_    0.799778 0.798529 0.964043 0.096884
C97   C     C_R   0.273464 0.273090 0.909802 0.151226
C98   C     C_R   0.217244 0.217347 0.963783 -0.001309
C99   C     C_R   0.183106 0.182048 0.924980 -0.159220
C100  C     C_R   0.204740 0.201851 0.832364 -0.122192
C101  C     C_R   0.260514 0.257000 0.778407 -0.134405
C102  C     C_R   0.294795 0.292553 0.816892 -0.167887
H50   H     H_    0.200250 0.201464 0.035645 0.097055
H51   H     H_    0.139969 0.139293 0.966725 0.098299
H52   H     H_    0.178326 0.174424 0.802383 0.118414
H53   H     H_    0.277238 0.272160 0.706705 0.125406
H54   H     H_    0.338017 0.335118 0.774427 0.119543

loop_
_geom_bond_atom_site_label_1
_geom_bond_atom_site_label_2
_ccdc_geom_bond_type
C25   C31   A    
C39   C51   A    
C78   H34   S    
C11   O7    A    
C26   C32   A    
C88   C89   A    
C6    C45   A    
C64   C85   S    
Cu2   O2    S    
C95   C96   A    
C83   C84   A    
C8    O12   A    
C57   C66   A    
Cu5   O20   S    
Cu4   O4    S    
C74   C75   A    
C76   C77   A    
C21   C36   A    
C27   H24   S    
C34   H17   S    
C22   C35   A    
C45   C57   A    
C59   C64   A    
C18   O2    A    
C20   C26   A    
C60   C63   A    
C17   O1    A    
C23   C29   A    
C87   C88   A    
C82   C83   A    
C17   O23   A    
C41   H5    S    
Cu1   O24   S    
C13   C57   S    
C10   O10   A    
C43   H7    S    
C98   H50   S    
C55   C62   A    
C65   C91   S    
C3    C48   A    
C4    C22   S    
Cu2   O14   S    
C61   C67   S    
C16   C60   S    
C68   H25   S    
C8    O14   A    
C26   H19   S    
C14   O6    A    
C37   H1    S    
C1    C44   A    
C46   H10   S    
C71   H28   S    
Cu5   O8    S    
C4    C40   A    
C29   C33   A    
C73   C74   A    
C5    C23   S    
C95   H48   S    
Cu2   O23   S    
C39   H3    S    
C13   O19   A    
C53   C65   A    
C8    C52   S    
C81   H36   S    
Cu3   O3    S    
C16   O22   A    
Cu5   O17   S    
C3    C39   A    
C74   H30   S    
C9    O15   A    
C22   C28   A    
C46   C58   A    
C94   H47   S    
C66   C97   S    
C92   C93   A    
C97   C102  A    
C10   C54   S    
C19   C32   A    
Cu4   O16   S    
C48   C60   A    
C24   C30   A    
C96   H49   S    
C76   H32   S    
C14   C58   S    
Cu1   O1    S    
Cu2   O11   S    
C49   C61   A    
C32   H13   S    
C30   C34   A    
C2    C20   S    
Cu1   Cu2   S    
C99   C100  A    
C69   C70   A    
Cu4   O9    S    
C51   C63   A    
Cu3   O10   S    
C52   C64   A    
C25   H20   S    
C75   H31   S    
Cu6   O7    S    
C80   C81   A    
C27   C35   A    
C73   C78   A    
C40   C52   A    
C1    C19   S    
C28   H23   S    
C48   H12   S    
C89   C90   A    
C12   O18   A    
C77   H33   S    
C11   C49   S    
C62   C73   S    
C37   C49   A    
C2    C38   A    
C58   C65   A    
C14   O20   A    
Cu5   O5    S    
C44   H8    S    
C2    C43   A    
Cu3   O22   S    
C23   C34   A    
C6    C24   S    
C36   H15   S    
C33   H18   S    
C11   O17   A    
C10   O16   A    
C41   C53   A    
C85   C86   A    
C93   H46   S    
C5    C46   A    
C89   H43   S    
C54   C66   A    
Cu3   O15   S    
C43   C55   A    
C97   C98   A    
Cu6   O19   S    
C87   H41   S    
C42   H6    S    
C47   H11   S    
Cu1   O12   S    
C50   C62   A    
C3    C21   S    
C9    C53   S    
C84   H39   S    
C9    O9    A    
C81   C82   A    
C93   C94   A    
C85   C90   A    
C101  C102  A    
C15   O3    A    
C100  H52   S    
C38   H2    S    
C91   C96   A    
C5    C41   A    
C94   C95   A    
C7    O13   A    
C80   H35   S    
C13   O5    A    
C86   H40   S    
C56   C61   A    
C15   C59   S    
C12   O8    A    
C45   H9    S    
C99   H51   S    
C77   C78   A    
Cu4   O21   S    
C12   C50   S    
C102  H54   S    
C67   C68   A    
C75   C76   A    
C38   C50   A    
C30   H21   S    
C18   C56   S    
C100  C101  A    
C7    O11   A    
C29   H22   S    
C24   C33   A    
C15   O21   A    
C83   H38   S    
C7    C51   S    
C67   C72   A    
C42   C54   A    
C44   C56   A    
C69   H26   S    
C71   C72   A    
Cu6   O18   S    
C72   H29   S    
C17   C55   S    
C31   H14   S    
C70   H27   S    
C21   C27   A    
Cu3   Cu4   S    
C19   C25   A    
C18   O24   A    
C79   C84   A    
C101  H53   S    
Cu1   O13   S    
C47   C59   A    
C82   H37   S    
C40   H4    S    
C91   C92   A    
C92   H45   S    
Cu5   Cu6   S    
C28   C36   A    
C98   C99   A    
C6    C42   A    
C86   C87   A    
C16   O4    A    
C63   C79   S    
C90   H44   S    
C70   C71   A    
Cu6   O6    S    
C68   C69   A    
C88   H42   S    
C20   C31   A    
C35   H16   S    
C79   C80   A    
C1    C37   A    
C4    C47   A    
