data_mof_unit_20844.cif
_audit_creation_date              2012-12-10T20:38:24-0500
_audit_creation_method            fapswitch 2.2
_symmetry_space_group_name_H-M    P1
_symmetry_Int_Tables_number       1
_space_group_crystal_system       triclinic
_cell_length_a                    9.845779
_cell_length_b                    10.742693
_cell_length_c                    16.523316
_cell_angle_alpha                 90.631514
_cell_angle_beta                  84.773985
_cell_angle_gamma                 89.316003
_cell_volume                      1740.1566009

loop_
_atom_site_label
_atom_site_type_symbol
_atom_type_description
_atom_site_fract_x
_atom_site_fract_y
_atom_site_fract_z
_atom_type_partial_charge
C1    C     C_R   0.499582 0.739788 0.498818 0.913006
C2    C     C_R   0.531432 0.554871 0.263982 -0.014285
C3    C     C_R   0.382695 0.939493 0.520457 0.132650
C4    C     C_R   0.480849 0.491475 0.654369 0.914917
C5    C     C_R   0.500574 0.871517 0.496489 -0.135904
C6    C     C_R   0.621494 0.931124 0.469330 -0.174331
C7    C     C_R   0.623045 0.059377 0.461694 -0.005318
C8    C     C_R   0.503631 0.127775 0.488853 -0.204374
C9    C     C_R   0.384931 0.066969 0.517580 0.140881
C10   C     C_3   0.249522 0.074034 0.483388 -0.439528
C11   C     C_3   0.247636 0.933859 0.485818 -0.454616
C12   C     C_R   0.341437 0.504884 0.790490 -0.027378
C13   C     C_R   0.923074 0.602560 0.526613 0.114220
C14   C     C_R   0.934803 0.404871 0.465631 -0.077739
C15   C     C_R   0.078696 0.404843 0.465461 -0.110198
C16   C     C_R   0.501653 0.260283 0.494415 0.877355
C17   C     C_R   0.065885 0.601928 0.527436 0.180237
C18   C     C_3   0.056371 0.656086 0.611341 -0.552118
C19   C     C_3   0.902319 0.659805 0.609415 -0.228166
C20   C     C_R   0.519243 0.507526 0.346495 0.839679
C21   C     C_R   0.469434 0.488436 0.744469 -0.167362
C22   C     C_R   0.589364 0.489166 0.786115 0.002216
C23   C     C_R   0.446093 0.695922 0.165694 0.020238
C24   C     C_R   0.583459 0.540145 0.864163 -0.215038
C25   C     C_R   0.458740 0.579759 0.904123 0.124709
C26   C     C_R   0.338082 0.555463 0.869043 -0.114572
C27   C     C_2   0.719802 0.428476 0.754163 0.414062
C28   C     C_2   0.742781 0.116440 0.416193 0.413027
C29   C     C_2   0.843603 0.789348 0.607817 0.487131
C30   C     C_2   0.340953 0.788718 0.146745 0.368955
C31   C     C_2   0.212690 0.458157 0.761813 0.387714
C32   C     C_R   0.432221 0.639380 0.241501 -0.303709
C33   C     C_R   0.649433 0.531912 0.212076 -0.188340
C34   C     C_R   0.662574 0.584546 0.135347 -0.191439
C35   C     C_R   0.558777 0.661647 0.110343 0.158044
C36   C     C_2   0.449661 0.623257 0.988779 -0.146410
C37   C     C_2   0.554626 0.674569 0.022616 -0.117669
H1    H     H_    0.711691 0.877002 0.448089 0.186880
H2    H     H_    0.814824 0.457679 0.776578 0.101683
H3    H     H_    0.749262 0.557881 0.093300 0.144620
H4    H     H_    0.730427 0.201534 0.382797 0.053606
H5    H     H_    0.169993 0.118963 0.526559 0.219419
H6    H     H_    0.165341 0.899206 0.529522 0.197688
H7    H     H_    0.886203 0.327446 0.438964 0.155138
H8    H     H_    0.090115 0.588814 0.655611 0.242552
H9    H     H_    0.847755 0.598376 0.654651 0.198806
H10   H     H_    0.888465 0.857204 0.565418 0.074572
H11   H     H_    0.729217 0.470518 0.229976 0.149531
H12   H     H_    0.256186 0.111161 0.420583 0.202726
H13   H     H_    0.247316 0.798790 0.186495 0.064505
H14   H     H_    0.214696 0.394417 0.710386 0.100416
H15   H     H_    0.358346 0.598449 0.026982 0.145490
H16   H     H_    0.253887 0.889130 0.424513 0.205113
H17   H     H_    0.138071 0.327229 0.438542 0.150991
H18   H     H_    0.345348 0.663922 0.284061 0.149284
H19   H     H_    0.104765 0.748274 0.614741 0.190907
H20   H     H_    0.648092 0.697552 0.986160 0.147164
H21   H     H_    0.241165 0.572659 0.904284 0.176412
H22   H     H_    0.675545 0.541616 0.895340 0.129376
N1    N     N_R   0.857140 0.500860 0.500530 -0.106201
N2    N     N_R   0.142780 0.500820 0.500530 -0.103362
O1    O     O_R   0.385310 0.683210 0.499990 -0.618223
O2    O     O_2   0.855624 0.067230 0.413586 -0.598155
O3    O     O_2   0.744621 0.819077 0.654147 -0.545732
O4    O     O_2   0.358809 0.857237 0.088378 -0.537006
O5    O     O_2   0.102186 0.486507 0.797321 -0.603057
O6    O     O_R   0.614650 0.683240 0.500000 -0.618455
O7    O     O_R   0.371780 0.500000 0.615800 -0.639670
O8    O     O_R   0.601120 0.500040 0.615800 -0.558466
O9    O     O_R   0.385350 0.316760 0.500000 -0.621217
O10   O     O_R   0.614690 0.316790 0.500010 -0.609936
O11   O     O_R   0.398880 0.499960 0.384200 -0.616680
O12   O     O_R   0.628220 0.500000 0.384200 -0.629506
O13   O     O_2   0.721917 0.340591 0.706528 -0.533215
Zn1   Zn    Zn3+2 0.346870 0.499980 0.499990 0.943742
Zn2   Zn    Zn3+2 0.653130 0.500020 0.500010 0.987715

loop_
_geom_bond_atom_site_label_1
_geom_bond_atom_site_label_2
_ccdc_geom_bond_type
C31   O5    D    
C10   H5    S    
C1    O1    A    
C19   H9    S    
C7    C8    A    
C13   N1    A    
N2    Zn1   S    
O7    Zn1   S    
C29   H10   S    
C1    C5    S    
C36   C37   D    
C35   C37   S    
C18   C19   S    
O10   Zn2   S    
C28   H4    S    
O8    Zn2   S    
C2    C32   A    
C34   C35   A    
C17   N2    A    
C27   H2    S    
C8    C9    A    
C6    H1    S    
C11   H6    S    
C27   O13   D    
C9    C10   S    
C32   H18   S    
C36   H15   S    
C18   H19   S    
C30   H13   S    
C29   O3    D    
C8    C16   S    
C21   C22   A    
C16   O10   A    
O11   Zn1   S    
C4    O8    A    
C33   C34   A    
C13   C19   S    
C2    C20   S    
C23   C30   S    
C16   O9    A    
C24   C25   A    
C4    O7    A    
C25   C26   A    
C12   C21   A    
N1    Zn2   S    
C7    C28   S    
C12   C26   A    
C15   H17   S    
C3    C9    A    
C17   C18   S    
C15   N2    A    
C26   H21   S    
C2    C33   A    
C23   C35   A    
C22   C27   S    
C12   C31   S    
O12   Zn2   S    
C34   H3    S    
O1    Zn1   S    
C19   C29   S    
C18   H8    S    
C14   H7    S    
C31   H14   S    
C3    C5    A    
C11   H16   S    
C6    C7    A    
C14   N1    A    
C13   C17   A    
C23   C32   A    
C4    C21   S    
C5    C6    A    
C24   H22   S    
C1    O6    A    
C20   O12   A    
C22   C24   A    
C30   O4    D    
C3    C11   S    
C10   C11   S    
C25   C36   S    
C28   O2    D    
O9    Zn1   S    
C33   H11   S    
C14   C15   A    
C20   O11   A    
O6    Zn2   S    
C10   H12   S    
C37   H20   S    
