data_mof_unit_64893.cif
_audit_creation_date              2013-03-05T16:09:24-0500
_audit_creation_method            fapswitch 2.2
_symmetry_space_group_name_H-M    P1
_symmetry_Int_Tables_number       1
_space_group_crystal_system       triclinic
_cell_length_a                    10.770122
_cell_length_b                    12.7449
_cell_length_c                    13.909296
_cell_angle_alpha                 98.03154
_cell_angle_beta                  90.302635
_cell_angle_gamma                 92.929953
_cell_volume                      1887.89981869

loop_
_atom_site_label
_atom_site_type_symbol
_atom_site_description
_atom_site_fract_x
_atom_site_fract_y
_atom_site_fract_z
_atom_type_partial_charge
O1    O     O_R   0.492240 0.399110 0.356330 -0.549106
O2    O     O_R   0.505790 0.575900 0.366540 -0.580590
C1    C     C_R   0.498895 0.483523 0.315869 0.846064
O3    O     O_R   0.310920 0.411610 0.494880 -0.571305
O4    O     O_R   0.324460 0.588390 0.505090 -0.543950
C2    C     C_R   0.259586 0.500590 0.495424 0.806945
Cu1   Cu    Cu3+1 0.491980 0.395330 0.493960 1.007939
Cu2   Cu    Cu3+1 0.508020 0.604670 0.506040 1.022916
O5    O     O_R   0.494210 0.424100 0.633460 -0.573140
O6    O     O_R   0.507760 0.600890 0.643670 -0.560092
O7    O     O_R   0.675540 0.411610 0.494910 -0.581978
O8    O     O_R   0.689080 0.588390 0.505120 -0.594687
C3    C     C_R   0.501353 0.516521 0.684137 0.825477
C4    C     C_R   0.740471 0.499525 0.498038 0.780238
C5    C     C_3   0.064755 0.413553 0.411538 0.179432
H1    H     H_    0.088534 0.335213 0.431630 0.121906
C6    C     C_3   0.920308 0.414553 0.412743 -0.428032
H2    H     H_    0.879927 0.429339 0.342576 0.207732
H3    H     H_    0.881818 0.334843 0.425082 0.168289
H4    H     H_    0.098431 0.393322 0.600251 0.173860
H5    H     H_    0.888931 0.400688 0.611113 0.181236
C7    C     C_3   0.072090 0.474556 0.590383 -0.445705
C8    C     C_3   0.075928 0.615556 0.473394 0.435685
C9    C     C_3   0.121749 0.502880 0.491652 -0.064349
C10   C     C_3   0.878037 0.499939 0.494830 0.017217
C11   C     C_3   0.929457 0.477752 0.593538 -0.382904
C12   C     C_3   0.931772 0.610179 0.474490 -0.369436
H6    H     H_    0.893188 0.626170 0.403761 0.165459
H7    H     H_    0.898079 0.673801 0.529749 0.203331
H8    H     H_    0.115321 0.527539 0.653018 0.228168
H9    H     H_    0.902554 0.540651 0.652351 0.201987
C13   C     C_1   0.502841 0.526296 0.787397 -0.158386
C14   C     C_2   0.506445 0.546655 0.978583 0.170780
C15   C     C_2   0.493739 0.459482 0.021923 -0.134278
C16   C     C_1   0.495504 0.466560 0.125709 0.087824
C17   C     C_1   0.504432 0.535767 0.874431 -0.044290
C18   C     C_1   0.497177 0.474206 0.212647 -0.102512
H10   H     H_    0.481872 0.381399 0.979144 0.132954
N1    N     N_1   0.479930 0.238040 0.484880 -0.155855
C19   C     C_2   0.461466 0.028012 0.475146 0.080851
C20   C     C_2   0.538183 0.971957 0.524925 0.066581
C21   C     C_1   0.526503 0.854516 0.518636 0.251914
C22   C     C_1   0.473303 0.145473 0.481374 0.203053
N2    N     N_1   0.520070 0.761960 0.515120 -0.146437
N3    N     N_3   0.522187 0.650114 0.034375 -0.558103
H11   H     H_    0.450374 0.695513 0.014950 0.233930
H12   H     H_    0.605914 0.685358 0.013884 0.226858
N4    N     N_3   0.634707 0.027998 0.585890 -0.598123
H13   H     H_    0.621405 0.009906 0.656263 0.229055
H14   H     H_    0.719576 0.998486 0.561714 0.222757
N5    N     N_3   0.364881 0.971956 0.414242 -0.561454
H15   H     H_    0.377973 0.990138 0.343878 0.221474
H16   H     H_    0.280003 0.001312 0.438574 0.240656
N6    N     N_R   0.116848 0.419168 0.314524 0.129052
O9    O     O_R   0.219926 0.373651 0.291176 -0.371612
O10   O     O_R   0.055338 0.456838 0.247279 -0.340789
N7    N     N_R   0.123721 0.702431 0.549015 0.126651
O11   O     O_R   0.084432 0.709178 0.637902 -0.384684
O12   O     O_R   0.196514 0.779664 0.526063 -0.352691
N8    N     N_3   0.115262 0.639110 0.376809 -0.534335
H17   H     H_    0.082883 0.712351 0.364953 0.233933
H18   H     H_    0.211996 0.645550 0.372251 0.256618

loop_
_geom_bond_atom_site_label_1
_geom_bond_atom_site_label_2
_geom_bond_distance
_ccdc_geom_bond_type
O4    Cu2   1.977027 S    
N5    H16   1.045481 S    
C8    C9    1.594774 S    
C5    C6    1.556573 S    
C8    C12   1.550837 S    
C12   H7    1.113023 S    
C19   N5    1.433786 S    
C14   N3    1.435078 S    
C20   C21   1.485891 S    
C3    C13   1.424150 S    
Cu1   N1    1.988438 S    
Cu2   O8    1.971484 S    
C2    C9    1.487095 S    
N4    H14   1.045500 S    
C14   C15   1.337510 D    
C6    C10   1.550520 S    
C11   H9    1.113002 S    
C5    C9    1.575262 S    
N3    H11   1.045568 S    
Cu1   O7    1.977027 S    
Cu2   N2    1.988435 S    
N7    O11   1.301746 A    
O4    C2    1.278852 A    
C21   N2    1.172253 T    
O3    Cu1   1.971484 S    
C13   C17   1.199639 T    
C7    C9    1.558462 S    
Cu2   O6    1.921674 S    
N4    H13   1.045460 S    
C16   C18   1.199485 T    
H5    C11   1.113256 S    
O8    C4    1.277601 A    
C6    H2    1.110168 S    
O2    C1    1.283364 A    
N3    H12   1.045576 S    
C4    C10   1.482269 S    
C8    N8    1.476513 S    
O7    C4    1.285434 A    
N6    O10   1.302165 A    
N7    O12   1.302696 A    
O3    C2    1.285893 A    
C10   C12   1.555200 S    
C5    H1    1.115313 S    
C5    N6    1.473662 S    
Cu1   O5    1.923478 S    
Cu1   Cu2   2.646450 S    
C14   C17   1.435825 S    
C1    C18   1.423960 S    
N8    H18   1.043835 S    
C15   C16   1.433732 S    
C7    C11   1.539482 S    
C12   H6    1.114657 S    
C8    N7    1.485872 S    
O5    C3    1.283888 A    
N6    O9    1.300563 A    
C19   C20   1.365648 D    
N1    C22   1.172427 T    
C7    H8    1.109492 S    
C6    H3    1.113450 S    
C10   C11   1.545361 S    
O1    Cu1   1.921673 S    
C20   N4    1.433690 S    
C19   C22   1.486260 S    
O2    Cu2   1.923477 S    
N5    H15   1.045434 S    
H4    C7    1.113789 S    
N8    H17   1.046810 S    
O1    C1    1.281022 A    
O6    C3    1.280524 A    
C15   H10   1.086954 S    
