data_mof_unit_37128.cif
_audit_creation_date              2012-12-10T16:49:29-0500
_audit_creation_method            fapswitch 2.2
_symmetry_space_group_name_H-M    P1
_symmetry_Int_Tables_number       1
_space_group_crystal_system       triclinic
_cell_length_a                    7.818014
_cell_length_b                    8.556136
_cell_length_c                    12.812367
_cell_angle_alpha                 90.131252
_cell_angle_beta                  88.035537
_cell_angle_gamma                 94.006882
_cell_volume                      854.447358335

loop_
_atom_site_label
_atom_site_type_symbol
_atom_type_description
_atom_site_fract_x
_atom_site_fract_y
_atom_site_fract_z
_atom_type_partial_charge
C1    C     C_R   0.454632 0.205449 0.497172 0.934659
C2    C     C_R   0.652085 0.361297 0.142097 -0.092718
C3    C     C_R   0.540892 0.425261 0.868308 -0.251613
C4    C     C_R   0.457476 0.572002 0.131655 -0.198551
C5    C     C_R   0.550149 0.443186 0.975076 -0.017733
C6    C     C_R   0.446598 0.552218 0.025273 0.029583
C7    C     C_2   0.431204 0.041487 0.495358 -0.298836
C8    C     C_2   0.569172 0.958549 0.503185 -0.329194
C9    C     C_2   0.743315 0.249629 0.205802 0.520254
C10   C     C_2   0.251186 0.749245 0.799523 0.485353
C11   C     C_2   0.014441 0.698400 0.458108 0.702352
C12   C     C_R   0.545529 0.794559 0.502204 1.011188
C13   C     C_2   0.985522 0.301588 0.541863 0.693890
C14   C     C_R   0.466876 0.509366 0.699256 0.968341
C15   C     C_R   0.533070 0.490515 0.300779 0.876231
C16   C     C_R   0.552358 0.474735 0.189700 -0.202637
C17   C     C_R   0.447203 0.523988 0.810395 -0.145867
C18   C     C_R   0.337343 0.642365 0.967702 0.383535
C19   C     C_R   0.658245 0.351909 0.032863 0.471743
C20   C     C_R   0.345978 0.635737 0.858842 -0.068992
H1    H     H_    0.390232 0.662550 0.171538 0.195616
H2    H     H_    0.018019 0.230456 0.474781 0.017791
H3    H     H_    0.608771 0.335504 0.828035 0.197207
H4    H     H_    0.301127 0.989656 0.487968 0.188894
H5    H     H_    0.699261 0.010376 0.510523 0.175794
H6    H     H_    0.698524 0.220746 0.284886 0.033785
H7    H     H_    0.130767 0.788019 0.831174 0.127433
H8    H     H_    0.171760 0.688345 0.076974 0.353224
H9    H     H_    0.823486 0.303011 0.924422 0.339315
H10   H     H_    0.982155 0.769615 0.525194 0.025099
N1    N     N_2   0.054030 0.541640 0.471970 -0.186776
N2    N     N_2   0.945970 0.458360 0.528030 -0.190903
O1    O     O_R   0.609680 0.261530 0.506880 -0.638140
O2    O     O_2   0.310469 0.807210 0.718016 -0.587385
O3    O     O_3   0.227522 0.742665 0.015243 -0.758232
O4    O     O_3   0.763989 0.248623 0.984970 -0.689344
O5    O     O_2   0.027330 0.757232 0.371336 -0.594244
O6    O     O_2   0.972293 0.242630 0.628584 -0.593770
O7    O     O_R   0.390320 0.738470 0.493120 -0.605654
O8    O     O_R   0.323330 0.288220 0.488910 -0.652098
O9    O     O_R   0.676670 0.711780 0.511090 -0.660337
O10   O     O_R   0.619510 0.488830 0.661140 -0.615382
O11   O     O_R   0.380490 0.511170 0.338860 -0.601103
O12   O     O_R   0.333160 0.515520 0.643180 -0.600623
O13   O     O_R   0.666840 0.484480 0.356820 -0.638792
O14   O     O_2   0.869473 0.188083 0.170976 -0.485365
Zn1   Zn    Zn3+2 0.691200 0.482180 0.511990 0.973103
Zn2   Zn    Zn3+2 0.308800 0.517820 0.488010 0.999900

loop_
_geom_bond_atom_site_label_1
_geom_bond_atom_site_label_2
_ccdc_geom_bond_type
C10   H7    S    
C4    C16   A    
C12   O9    A    
C5    C19   A    
C9    H6    S    
C2    C16   A    
C18   O3    S    
C13   N2    S    
C3    H3    S    
N1    N2    D    
C14   C17   S    
C8    C12   S    
C14   O10   A    
C12   O7    A    
O9    Zn1   S    
C11   N1    S    
C9    O14   D    
C10   O2    D    
C4    H1    S    
H9    O4    S    
C13   O6    D    
C5    C6    A    
O1    Zn1   S    
C4    C6    A    
O10   Zn1   S    
C15   O11   A    
C13   H2    S    
C3    C17   A    
C18   C20   A    
C19   O4    S    
O13   Zn1   S    
N1    Zn2   S    
C6    C18   A    
N2    Zn1   S    
C15   O13   A    
C8    H5    S    
C7    H4    S    
O12   Zn2   S    
C7    C8    D    
C17   C20   A    
C1    O1    A    
C11   H10   S    
C14   O12   A    
O11   Zn2   S    
C11   O5    D    
O8    Zn2   S    
C1    O8    A    
C2    C19   A    
C1    C7    S    
C2    C9    S    
C15   C16   S    
H8    O3    S    
C10   C20   S    
O7    Zn2   S    
C3    C5    A    
