data_mof_unit_33046.cif
_audit_creation_date              2012-12-10T17:33:00-0500
_audit_creation_method            fapswitch 2.2
_symmetry_space_group_name_H-M    P1
_symmetry_Int_Tables_number       1
_space_group_crystal_system       triclinic
_cell_length_a                    12.360057
_cell_length_b                    13.229296
_cell_length_c                    14.238591
_cell_angle_alpha                 93.206593
_cell_angle_beta                  107.642363
_cell_angle_gamma                 116.99055
_cell_volume                      1925.05318465

loop_
_atom_site_label
_atom_site_type_symbol
_atom_type_description
_atom_site_fract_x
_atom_site_fract_y
_atom_site_fract_z
_atom_type_partial_charge
C1    C     C_R   0.650962 0.714296 0.509108 0.867904
C2    C     C_R   0.845288 0.493507 0.918509 0.090793
C3    C     C_R   0.799662 0.514982 0.993373 0.137147
C4    C     C_R   0.948081 0.466745 0.944677 0.081474
C5    C     C_R   0.018014 0.480964 0.048132 0.114428
C6    C     C_R   0.966457 0.496747 0.120250 -0.146846
C7    C     C_R   0.858782 0.513283 0.093155 -0.220925
C8    C     C_R   0.978901 0.420688 0.870959 -0.214005
C9    C     C_R   0.076672 0.391087 0.898752 -0.138289
C10   C     C_R   0.153613 0.414027 0.000691 0.027903
C11   C     C_R   0.131112 0.468762 0.075704 -0.040988
C12   C     C_R   0.618400 0.516661 0.686795 0.801642
C13   C     C_R   0.252895 0.383914 0.029781 0.378704
C14   C     C_R   0.326414 0.406280 0.132074 -0.253291
C15   C     C_R   0.223823 0.510960 0.175417 0.296310
C16   C     C_R   0.135759 0.968067 0.360633 -0.133454
C17   C     C_R   0.251293 0.161945 0.466129 -0.053796
C18   C     C_R   0.739701 0.919420 0.586680 -0.168896
C19   C     C_R   0.837928 0.034621 0.614886 -0.117631
C20   C     C_R   0.938276 0.069285 0.578174 -0.123636
C21   C     C_R   0.938304 0.989796 0.506952 0.044381
C22   C     C_R   0.828304 0.875714 0.468116 0.002306
C23   C     C_R   0.345986 0.285241 0.485999 0.787761
C24   C     C_R   0.042673 0.020479 0.471684 0.078679
C25   C     C_R   0.033181 0.939323 0.395717 0.084501
C26   C     C_R   0.917974 0.833761 0.350203 -0.249330
C27   C     C_R   0.813695 0.804525 0.381603 0.360182
C28   C     C_R   0.155495 0.130419 0.508019 -0.201045
C29   C     C_R   0.244199 0.079397 0.395225 -0.177603
C30   C     C_R   0.736642 0.838160 0.516776 -0.059073
C31   C     C_R   0.255120 0.685957 0.662169 -0.217715
C32   C     C_R   0.655410 0.342998 0.362965 0.108827
C33   C     C_R   0.733665 0.309726 0.332235 -0.241830
C34   C     C_R   0.382093 0.484034 0.313285 0.918326
C35   C     C_R   0.868820 0.369190 0.383682 -0.178152
C36   C     C_R   0.928345 0.463673 0.467227 -0.007497
C37   C     C_R   0.843830 0.495059 0.495513 0.233445
C38   C     C_R   0.067868 0.528051 0.523396 -0.091193
C39   C     C_R   0.119575 0.622560 0.606392 0.074494
C40   C     C_R   0.035248 0.652335 0.632327 0.301619
C41   C     C_R   0.901473 0.589916 0.577764 -0.248833
C42   C     C_R   0.159383 0.502927 0.501249 0.089196
C43   C     C_R   0.338735 0.656636 0.636517 0.063570
C44   C     C_R   0.681409 0.520315 0.793336 -0.062574
C45   C     C_R   0.311762 0.468889 0.205403 -0.158666
C46   C     C_R   0.694124 0.536266 0.967056 -0.137325
C47   C     C_R   0.634348 0.537715 0.867258 -0.149953
C48   C     C_R   0.787940 0.501267 0.820036 -0.206032
Cu1   Cu    Cu3+1 0.416420 0.526630 0.522910 0.978565
Cu2   Cu    Cu3+1 0.583580 0.473370 0.477090 0.967294
H1    H     H_    0.822325 0.525579 0.150677 0.165500
H2    H     H_    0.318273 0.102824 0.362276 0.155488
H3    H     H_    0.906062 0.776519 0.285731 0.177681
H4    H     H_    0.129053 0.906333 0.302744 0.162670
H5    H     H_    0.170133 0.195713 0.566418 0.151582
H6    H     H_    0.012855 0.159429 0.606351 0.130832
H7    H     H_    0.442730 0.705656 0.679714 0.123276
H8    H     H_    0.297796 0.758300 0.725769 0.202608
H9    H     H_    0.128355 0.432709 0.439715 0.116223
H10   H     H_    0.550788 0.296225 0.322317 0.120531
H11   H     H_    0.924184 0.339505 0.356360 0.135545
H12   H     H_    0.689296 0.237419 0.268118 0.162237
H13   H     H_    0.845993 0.619507 0.603039 0.228297
H14   H     H_    0.396362 0.375822 0.154041 0.201501
H15   H     H_    0.091992 0.351147 0.839232 0.190339
H16   H     H_    0.657378 0.551018 0.023526 0.173935
H17   H     H_    0.551666 0.552360 0.848060 0.174483
H18   H     H_    0.923158 0.398950 0.790940 0.139491
N1    N     N_R   0.290690 0.566960 0.557640 -0.176163
N2    N     N_R   0.709100 0.433710 0.442970 -0.189273
O1    O     O_R   0.545970 0.684450 0.528810 -0.576492
O2    O     O_R   0.687130 0.639470 0.490120 -0.569888
O3    O     O_R   0.519670 0.535100 0.660030 -0.588112
O4    O     O_R   0.660830 0.490120 0.621340 -0.607213
O5    O     O_R   0.312870 0.360530 0.509880 -0.594895
O6    O     O_R   0.454030 0.315550 0.471190 -0.592587
O7    O     O_R   0.339170 0.509880 0.378660 -0.549029
O8    O     O_R   0.480330 0.464900 0.339970 -0.566542
Cl1   Cl    Cl    0.284810 0.313031 0.941679 -0.631109
H19   H     H_    0.669027 0.892921 0.623193 0.152561
H20   H     H_    0.839643 0.096510 0.669235 0.145021
Cl2   Cl    Cl    0.660845 0.693396 0.295540 -0.610495
Cl3   Cl    Cl    0.254029 0.637800 0.253657 -0.585347
Cl4   Cl    Cl    0.092216 0.768905 0.734164 -0.609459
H21   H     H_    0.827058 0.495277 0.763169 0.163230
H22   H     H_    0.005118 0.491082 0.197563 0.182704

loop_
_geom_bond_atom_site_label_1
_geom_bond_atom_site_label_2
_ccdc_geom_bond_type
C13   Cl1   S    
C12   O4    A    
C17   C29   A    
C40   Cl4   S    
C19   C20   A    
C23   O6    A    
C4    C8    A    
C26   C27   A    
C17   C23   S    
C31   C43   A    
C31   H8    S    
C21   C22   A    
C36   C37   A    
C46   H16   S    
C3    C7    A    
Cu2   O4    S    
C34   O7    A    
C5    C6    A    
C18   C19   A    
Cu2   O2    S    
C11   C15   A    
C35   C36   A    
Cu1   O7    S    
C8    C9    A    
Cu1   O5    S    
C18   C30   A    
C13   C14   A    
C9    C10   A    
C44   C47   A    
C20   H6    S    
C43   N1    A    
Cu1   N1    S    
C37   N2    A    
Cu2   O8    S    
C47   H17   S    
C25   C26   A    
C28   H5    S    
C14   C45   A    
C9    H15   S    
C1    O2    A    
C24   C25   A    
C39   C40   A    
C33   H12   S    
C15   Cl3   S    
C2    C48   A    
C16   C29   A    
C42   N1    A    
C2    C4    A    
Cu2   O6    S    
C14   H14   S    
C35   H11   S    
C34   C45   S    
C1    O1    A    
C32   H10   S    
C40   C41   A    
C8    H18   S    
C22   C27   A    
Cu1   O3    S    
C41   H13   S    
C26   H3    S    
C16   C25   A    
C46   C47   A    
C22   C30   A    
C17   C28   A    
C27   Cl2   S    
C24   C28   A    
C23   O5    A    
C4    C5    A    
C10   C13   A    
C42   H9    S    
C32   N2    A    
C5    C11   A    
C6    C7    A    
C3    C46   A    
C6    H22   S    
C32   C33   A    
C36   C38   A    
C2    C3    A    
Cu2   N2    S    
C7    H1    S    
C12   C44   S    
C19   H20   S    
C34   O8    A    
C38   C39   A    
C1    C30   S    
C33   C35   A    
C31   C39   A    
C37   C41   A    
C16   H4    S    
C10   C11   A    
C43   H7    S    
C38   C42   A    
C20   C21   A    
C18   H19   S    
Cu1   Cu2   S    
Cu1   O1    S    
C21   C24   A    
C15   C45   A    
C48   H21   S    
C12   O3    A    
C44   C48   A    
C29   H2    S    
