data_mof_unit_7814.cif
_audit_creation_date              2012-12-10T18:38:09-0500
_audit_creation_method            fapswitch 2.2
_symmetry_space_group_name_H-M    P1
_symmetry_Int_Tables_number       1
_space_group_crystal_system       triclinic
_cell_length_a                    15.097339
_cell_length_b                    13.833382
_cell_length_c                    10.705899
_cell_angle_alpha                 89.567405
_cell_angle_beta                  91.102866
_cell_angle_gamma                 90.296853
_cell_volume                      2235.3913743

loop_
_atom_site_label
_atom_site_type_symbol
_atom_type_description
_atom_site_fract_x
_atom_site_fract_y
_atom_site_fract_z
_atom_type_partial_charge
C1    C     C_R   0.329774 0.499768 0.501827 0.787822
C2    C     C_R   0.669771 0.500255 0.500979 0.787396
C3    C     C_R   0.458124 0.106454 0.594589 -0.266858
C4    C     C_R   0.465291 0.893187 0.397462 -0.270346
C5    C     C_R   0.540149 0.107860 0.404202 -0.273341
C6    C     C_R   0.533227 0.892809 0.602400 -0.268698
C7    C     C_R   0.457924 0.208340 0.591828 0.080300
C8    C     C_R   0.464882 0.791282 0.400391 0.065005
C9    C     C_R   0.540807 0.209733 0.407013 0.080648
C10   C     C_R   0.534115 0.790956 0.599940 0.092284
C11   C     C_R   0.499213 0.054486 0.499539 0.118146
C12   C     C_R   0.499270 0.945676 0.499749 0.112536
C13   C     C_R   0.500050 0.500392 0.259219 0.794503
C14   C     C_R   0.503205 0.499584 0.740587 0.786096
C15   C     C_3   0.494882 0.590829 0.037517 0.004688
C16   C     C_3   0.513958 0.409192 0.961958 -0.002421
C17   C     C_3   0.572329 0.553252 0.960974 -0.020356
C18   C     C_3   0.436369 0.446515 0.037946 -0.014501
C19   C     C_3   0.427632 0.536590 0.952356 -0.123829
C20   C     C_3   0.581000 0.463391 0.047584 -0.142646
C21   C     C_3   0.505816 0.498669 0.876755 -0.159336
C22   C     C_3   0.502238 0.501167 0.122873 -0.161467
C23   C     C_R   0.096287 0.558120 0.595456 -0.177392
C24   C     C_R   0.905543 0.472862 0.612498 -0.175666
C25   C     C_R   0.904397 0.537622 0.401498 -0.183068
C26   C     C_R   0.089955 0.446598 0.422639 -0.181066
C27   C     C_R   0.188896 0.556668 0.595672 0.118169
C28   C     C_R   0.813094 0.469237 0.611108 0.101140
C29   C     C_R   0.811921 0.535807 0.397407 0.094555
C30   C     C_R   0.182193 0.442791 0.420578 0.101569
C31   C     C_R   0.232696 0.499452 0.506292 -0.087816
C32   C     C_R   0.766030 0.501245 0.502948 -0.070888
C33   C     C_R   0.047342 0.504280 0.508623 0.043589
C34   C     C_R   0.950817 0.506423 0.508316 0.044700
Cu1   Cu    Cu3+1 0.500000 0.596430 0.500000 0.936367
Cu2   Cu    Cu3+1 0.500000 0.403570 0.500000 0.934206
H1    H     H_    0.364616 0.566756 0.914746 0.170361
H2    H     H_    0.643572 0.433325 0.087364 0.168335
H3    H     H_    0.062068 0.601534 0.663092 0.147486
H4    H     H_    0.942540 0.447793 0.694211 0.146967
H5    H     H_    0.940536 0.562932 0.320915 0.148661
H6    H     H_    0.050853 0.404038 0.356915 0.144831
H7    H     H_    0.424828 0.068482 0.669176 0.143183
H8    H     H_    0.437613 0.930742 0.316753 0.154061
H9    H     H_    0.572754 0.070982 0.329124 0.147997
H10   H     H_    0.560362 0.930085 0.683191 0.146473
H11   H     H_    0.423288 0.247096 0.662984 0.115986
H12   H     H_    0.435820 0.752388 0.322636 0.151481
H13   H     H_    0.574044 0.249482 0.334096 0.137750
H14   H     H_    0.562204 0.751948 0.678743 0.117473
N1    N     N_R   0.500000 0.258690 0.500000 -0.175231
N2    N     N_R   0.500000 0.741310 0.500000 -0.178407
O1    O     O_R   0.371460 0.581430 0.500010 -0.570924
O2    O     O_R   0.628540 0.418570 0.499990 -0.580230
O3    O     O_R   0.628540 0.581430 0.499990 -0.579396
O4    O     O_R   0.371460 0.418570 0.500010 -0.581285
O5    O     O_R   0.499980 0.581420 0.316850 -0.594441
O6    O     O_R   0.500020 0.418580 0.683150 -0.590864
O7    O     O_R   0.500020 0.581420 0.683150 -0.596797
O8    O     O_R   0.499980 0.418580 0.316850 -0.598256
C35   C     C_2   0.486407 0.693645 0.077985 0.340265
H15   H     H_    0.538651 0.726528 0.134438 0.068687
O9    O     O_2   0.421427 0.740834 0.047165 -0.556259
C36   C     C_2   0.523404 0.306168 0.922664 0.368953
H16   H     H_    0.470783 0.271765 0.868956 0.063246
O10   O     O_2   0.589085 0.260072 0.953186 -0.566789
C37   C     C_2   0.647905 0.614116 0.916698 0.295602
H17   H     H_    0.635267 0.675237 0.855240 0.075910
O11   O     O_2   0.723683 0.595736 0.950136 -0.572997
C38   C     C_2   0.361065 0.383009 0.075559 0.288437
H18   H     H_    0.373184 0.321854 0.137412 0.087680
O12   O     O_2   0.286403 0.398474 0.034867 -0.562858
C39   C     C_3   0.237869 0.613642 0.695944 -0.389496
C40   C     C_3   0.241793 0.721002 0.662461 -0.757666
H19   H     H_    0.279515 0.760424 0.736334 0.250093
H20   H     H_    0.275482 0.732167 0.572154 0.265384
H21   H     H_    0.173925 0.751408 0.655313 0.238158
H22   H     H_    0.203875 0.604434 0.786520 0.206907
H23   H     H_    0.306024 0.586449 0.711974 0.203219
C41   C     C_3   0.767384 0.431075 0.726307 -0.374042
C42   C     C_3   0.764032 0.320860 0.726343 -0.767507
H24   H     H_    0.732095 0.294600 0.812732 0.279829
H25   H     H_    0.725062 0.294387 0.644376 0.265475
H26   H     H_    0.832040 0.290777 0.723664 0.238936
H27   H     H_    0.803915 0.455620 0.811543 0.235405
H28   H     H_    0.699124 0.459559 0.733389 0.203919
C43   C     C_3   0.764778 0.568129 0.278046 -0.381048
C44   C     C_3   0.757584 0.678013 0.271628 -0.750197
H29   H     H_    0.721597 0.699562 0.184464 0.249358
H30   H     H_    0.720514 0.705376 0.352564 0.256643
H31   H     H_    0.824584 0.711557 0.271515 0.243472
H32   H     H_    0.801566 0.542297 0.195850 0.226427
H33   H     H_    0.697438 0.536165 0.269543 0.185885
C45   C     C_3   0.223420 0.379906 0.322909 -0.361669
C46   C     C_3   0.228651 0.274798 0.366760 -0.784662
H34   H     H_    0.268076 0.268728 0.455052 0.264070
H35   H     H_    0.161110 0.245386 0.382199 0.243177
H36   H     H_    0.260904 0.230780 0.294397 0.238805
H37   H     H_    0.183224 0.383493 0.234924 0.232547
H38   H     H_    0.290206 0.406530 0.299127 0.209466

loop_
_geom_bond_atom_site_label_1
_geom_bond_atom_site_label_2
_ccdc_geom_bond_type
C18   C38   S    
C43   C44   S    
C16   C21   S    
Cu1   O1    S    
C39   C40   S    
C46   H34   S    
C9    N1    A    
C3    C11   A    
C4    C8    A    
C10   N2    A    
C42   H24   S    
C46   H36   S    
C13   O8    A    
C15   C19   S    
C14   O7    A    
C3    H7    S    
C40   H20   S    
C14   C21   S    
Cu1   O7    S    
C19   C21   S    
C1    O4    A    
C5    C11   A    
C29   C32   A    
C3    C7    A    
C2    O3    A    
C6    C12   A    
C30   C31   A    
C13   O5    A    
C1    C31   S    
C17   C20   S    
C2    C32   S    
C18   C19   S    
C35   O9    D    
C1    O1    A    
C41   H28   S    
C19   H1    S    
C15   C22   S    
Cu1   Cu2   S    
C23   C33   A    
C40   H21   S    
C39   H22   S    
C38   H18   S    
C23   C27   A    
C4    C12   A    
C8    N2    A    
C25   C34   A    
C43   H32   S    
C25   C29   A    
C35   H15   S    
C42   H25   S    
C15   C35   S    
C14   O6    A    
C17   C37   S    
C40   H19   S    
Cu1   O3    S    
C37   H17   S    
C28   C32   A    
C9    H13   S    
C2    O2    A    
C25   H5    S    
C4    H8    S    
C27   C31   A    
C24   C34   A    
C37   O11   D    
C7    H11   S    
C8    H12   S    
C5    C9    A    
C41   H27   S    
Cu2   O4    S    
C20   H2    S    
C26   C33   A    
C44   H31   S    
C45   H38   S    
C16   C20   S    
C33   C34   S    
C39   H23   S    
Cu2   N1    S    
C44   H30   S    
C26   C30   A    
C10   H14   S    
C42   H26   S    
C26   H6    S    
C15   C17   S    
C6    H10   S    
C18   C22   S    
C24   C28   A    
C20   C22   S    
C41   C42   S    
Cu2   O8    S    
C6    C10   A    
C11   C12   S    
C46   H35   S    
Cu2   O6    S    
Cu1   O5    S    
C36   H16   S    
C7    N1    A    
C30   C45   S    
C5    H9    S    
C45   H37   S    
C23   H3    S    
C43   H33   S    
C24   H4    S    
C13   C22   S    
C45   C46   S    
C28   C41   S    
C17   C21   S    
C29   C43   S    
Cu2   O2    S    
C44   H29   S    
C16   C18   S    
Cu1   N2    S    
C38   O12   D    
C16   C36   S    
C27   C39   S    
C36   O10   D    
