data_mof_unit_38937.cif
_audit_creation_date              2012-12-10T18:48:39-0500
_audit_creation_method            fapswitch 2.2
_symmetry_space_group_name_H-M    P1
_symmetry_Int_Tables_number       1
_space_group_crystal_system       triclinic
_cell_length_a                    15.179348
_cell_length_b                    15.176594
_cell_length_c                    9.850315
_cell_angle_alpha                 90.255419
_cell_angle_beta                  90.026728
_cell_angle_gamma                 90.685666
_cell_volume                      2269.03962294

loop_
_atom_site_label
_atom_site_type_symbol
_atom_type_description
_atom_site_fract_x
_atom_site_fract_y
_atom_site_fract_z
_atom_type_partial_charge
C1    C     C_R   0.119836 0.380042 0.499885 0.889733
C2    C     C_R   0.970184 0.428244 0.927613 -0.054168
C3    C     C_R   0.969957 0.428354 0.071330 -0.043511
C4    C     C_R   0.029999 0.571666 0.928668 -0.044031
C5    C     C_R   0.529808 0.071759 0.072387 -0.054166
C6    C     C_R   0.470206 0.928234 0.927613 -0.054382
C7    C     C_R   0.470009 0.928331 0.071332 -0.044031
C8    C     C_R   0.530035 0.071649 0.928670 -0.043512
C9    C     C_R   0.839394 0.225476 0.502008 -0.058264
C10   C     C_R   0.160607 0.774363 0.495113 -0.057858
C11   C     C_R   0.274600 0.660610 0.499102 -0.053495
C12   C     C_R   0.880162 0.619951 0.500115 0.890161
C13   C     C_R   0.725539 0.339409 0.503781 -0.053164
C14   C     C_R   0.249590 0.314013 0.604828 -0.054012
C15   C     C_R   0.749520 0.685083 0.396501 -0.053696
C16   C     C_R   0.814650 0.750940 0.603485 -0.047966
C17   C     C_R   0.186255 0.249936 0.395194 -0.048254
C18   C     C_R   0.339394 0.725637 0.504884 -0.057858
C19   C     C_R   0.660609 0.274518 0.497991 -0.058266
C20   C     C_R   0.774464 0.160586 0.496217 -0.053165
C21   C     C_R   0.225400 0.839390 0.500896 -0.053496
C22   C     C_R   0.750484 0.814922 0.603496 -0.053694
C23   C     C_R   0.880310 0.380267 0.500233 0.892647
C24   C     C_R   0.250410 0.185988 0.395172 -0.054014
C25   C     C_R   0.313746 0.250065 0.604805 -0.048254
C26   C     C_R   0.685354 0.749065 0.396512 -0.047967
C27   C     C_R   0.186033 0.685867 0.498191 -0.129202
C28   C     C_R   0.814065 0.314034 0.501811 -0.129190
C29   C     C_R   0.813818 0.686228 0.500138 -0.123184
C30   C     C_R   0.186176 0.313764 0.499869 -0.123518
C31   C     C_R   0.685939 0.185961 0.498189 -0.129185
C32   C     C_R   0.313967 0.814133 0.501807 -0.129201
C33   C     C_R   0.313824 0.186236 0.500131 -0.123517
C34   C     C_R   0.119824 0.619599 0.499767 0.892740
C35   C     C_R   0.686184 0.813775 0.499860 -0.123179
C36   C     C_1   0.931137 0.201050 0.515733 0.177082
C37   C     C_1   0.068948 0.798490 0.478807 0.177633
C38   C     C_1   0.299207 0.568812 0.486317 0.186396
C39   C     C_1   0.701215 0.431136 0.519197 0.186868
C40   C     C_1   0.251729 0.381415 0.710843 0.239799
C41   C     C_1   0.746557 0.616710 0.292045 0.238127
C42   C     C_1   0.883129 0.754942 0.707129 0.236644
C43   C     C_1   0.118727 0.246709 0.290002 0.238555
C44   C     C_1   0.431053 0.701511 0.521193 0.177631
C45   C     C_R   0.619839 0.880050 0.499884 0.890158
C46   C     C_1   0.568867 0.298945 0.484262 0.177086
C47   C     C_1   0.798788 0.068859 0.480795 0.186861
C48   C     C_1   0.200795 0.931187 0.513688 0.186399
C49   C     C_1   0.753446 0.883294 0.707953 0.238122
C50   C     C_1   0.248270 0.118584 0.289159 0.239796
C51   C     C_1   0.381273 0.253290 0.710000 0.238554
C52   C     C_1   0.616877 0.745064 0.292863 0.236646
C53   C     C_R   0.380164 0.119958 0.500115 0.889739
C54   C     C_R   0.380176 0.880401 0.500233 0.892742
C55   C     C_R   0.619693 0.119729 0.499767 0.892648
C56   C     C_R   0.029802 0.571762 0.072386 -0.054386
H1    H     H_    0.053474 0.629339 0.126916 0.142997
H2    H     H_    0.946501 0.370672 0.873085 0.142852
H3    H     H_    0.945608 0.371093 0.125019 0.150553
H4    H     H_    0.054284 0.628953 0.874977 0.150672
H5    H     H_    0.553485 0.129335 0.126915 0.142852
H6    H     H_    0.446540 0.870654 0.873083 0.142996
H7    H     H_    0.445729 0.871041 0.125023 0.150673
H8    H     H_    0.554379 0.128913 0.874981 0.150556
N1    N     N_R   1.000000 0.500000 0.857200 -0.088783
N2    N     N_1   0.744067 0.562485 0.209044 -0.179683
N3    N     N_1   0.937398 0.758664 0.789592 -0.205723
N4    N     N_1   0.065246 0.243563 0.206285 -0.205945
N5    N     N_1   0.503684 0.681462 0.536071 -0.192430
N6    N     N_1   0.496165 0.319299 0.471408 -0.192610
N7    N     N_1   0.819042 0.996172 0.466599 -0.191134
N8    N     N_1   0.180251 0.003936 0.525813 -0.191450
N9    N     N_1   0.755936 0.937519 0.790955 -0.179683
N10   N     N_1   0.246421 0.065150 0.204923 -0.179524
N11   N     N_1   0.434754 0.256435 0.793720 -0.205951
N12   N     N_R   0.000000 0.500000 0.142800 -0.088831
N13   N     N_1   0.562611 0.741342 0.210394 -0.205729
N14   N     N_R   0.500000 0.000000 0.857200 -0.088831
N15   N     N_R   0.500000 0.000000 0.142800 -0.088783
N16   N     N_1   0.003839 0.180696 0.528583 -0.192609
N17   N     N_1   0.996318 0.818540 0.463933 -0.192429
N18   N     N_1   0.319753 0.496062 0.474200 -0.191450
N19   N     N_1   0.680960 0.503822 0.533389 -0.191135
N20   N     N_1   0.253577 0.434848 0.795082 -0.179526
O1    O     O_R   0.091610 0.408380 0.614620 -0.615590
O2    O     O_R   0.408390 0.091620 0.385380 -0.615591
O3    O     O_R   0.408390 0.091620 0.614620 -0.613085
O4    O     O_R   0.591610 0.908380 0.385380 -0.612778
O5    O     O_R   0.408390 0.908380 0.385380 -0.621734
O6    O     O_R   0.591610 0.091620 0.614620 -0.621766
O7    O     O_R   0.591610 0.091620 0.385380 -0.626140
O8    O     O_R   0.408390 0.908380 0.614620 -0.626112
O9    O     O_R   0.908390 0.591620 0.385380 -0.615223
O10   O     O_R   0.908390 0.591620 0.614620 -0.612774
O11   O     O_R   0.091610 0.408380 0.385380 -0.613085
O12   O     O_R   0.908390 0.408380 0.385380 -0.621766
O13   O     O_R   0.091610 0.591620 0.614620 -0.621735
O14   O     O_R   0.091610 0.591620 0.385380 -0.626114
O15   O     O_R   0.908390 0.408380 0.614620 -0.626140
O16   O     O_R   0.591610 0.908380 0.614620 -0.615226
Zn1   Zn    Zn3+2 0.000000 0.500000 0.653120 0.981482
Zn2   Zn    Zn3+2 1.000000 0.500000 0.346880 0.981501
Zn3   Zn    Zn3+2 0.500000 0.000000 0.653120 0.981501
Zn4   Zn    Zn3+2 0.500000 0.000000 0.346880 0.981482

loop_
_geom_bond_atom_site_label_1
_geom_bond_atom_site_label_2
_ccdc_geom_bond_type
C10   C27   A    
C23   O15   A    
C11   C18   A    
C56   N12   A    
O12   Zn2   S    
C12   C29   S    
C33   C53   S    
C40   N20   T    
N1    Zn1   S    
O7    Zn4   S    
C2    N1    A    
C19   C31   A    
C25   C51   S    
C19   C46   S    
C56   H1    S    
C22   C35   A    
C10   C37   S    
C51   N11   T    
C55   O6    A    
C26   C52   S    
C50   N10   T    
C4    N1    A    
C6    N14   A    
C4    C56   A    
C34   O13   A    
C23   O12   A    
C55   O7    A    
O8    Zn3   S    
O10   Zn1   S    
C43   N4    T    
C9    C36   S    
C13   C28   A    
C53   O2    A    
C5    N15   A    
O11   Zn2   S    
C21   C48   S    
O2    Zn4   S    
C10   C21   A    
C38   N18   T    
C8    N14   A    
C17   C30   A    
C37   N17   T    
C48   N8    T    
C32   C54   S    
O4    Zn4   S    
C15   C29   A    
C27   C34   S    
N12   Zn2   S    
C21   C32   A    
C17   C24   A    
C46   N6    T    
C13   C19   A    
C45   O4    A    
C15   C41   S    
C54   O5    A    
C36   N16   T    
C15   C26   A    
C16   C29   A    
O14   Zn2   S    
C14   C40   S    
O16   Zn3   S    
C11   C38   S    
C17   C43   S    
C54   O8    A    
C18   C44   S    
C9    C20   A    
C11   C27   A    
C1    O11   A    
C47   N7    T    
C4    H4    S    
C5    H5    S    
C44   N5    T    
C53   O3    A    
C23   C28   S    
C3    N12   A    
C24   C50   S    
C7    H7    S    
C6    C7    A    
C8    H8    S    
C22   C49   S    
O3    Zn3   S    
O15   Zn1   S    
O5    Zn4   S    
C42   N3    T    
C49   N9    T    
C12   O9    A    
C1    O1    A    
C18   C32   A    
C52   N13   T    
C35   C45   S    
C16   C42   S    
O1    Zn1   S    
C7    N15   A    
C16   C22   A    
N14   Zn3   S    
C45   O16   A    
O9    Zn2   S    
C5    C8    A    
C2    H2    S    
C41   N2    T    
C24   C33   A    
C6    H6    S    
C2    C3    A    
C14   C30   A    
C12   O10   A    
C1    C30   S    
C34   O14   A    
C14   C25   A    
N15   Zn4   S    
O6    Zn3   S    
C13   C39   S    
C20   C47   S    
C39   N19   T    
C26   C35   A    
C31   C55   S    
O13   Zn1   S    
C9    C28   A    
C25   C33   A    
C20   C31   A    
C3    H3    S    
