data_mof_unit_38245.cif
_audit_creation_date              2012-10-26T20:50:50-0400
_audit_creation_method            fapswitch 2.2
_symmetry_space_group_name_H-M    P1
_symmetry_Int_Tables_number       1
_space_group_crystal_system       triclinic
_cell_length_a                    10.986784
_cell_length_b                    10.835611
_cell_length_c                    9.551826
_cell_angle_alpha                 90.288544
_cell_angle_beta                  101.696498
_cell_angle_gamma                 90.916075
_cell_volume                      1113.33632886

loop_
_atom_site_label
_atom_site_type_symbol
_atom_type_description
_atom_site_fract_x
_atom_site_fract_y
_atom_site_fract_z
_atom_type_partial_charge
C1    C     C_R   0.500310 0.262427 0.499773 0.549266
C2    C     C_R   0.395591 0.470281 0.049599 -0.029539
C3    C     C_R   0.395679 0.469835 0.901153 -0.006996
C4    C     C_R   0.262749 0.500431 0.442925 0.575400
C5    C     C_R   0.607795 0.519752 0.951602 0.156750
C6    C     C_3   0.689449 0.632054 0.964980 -0.277721
C7    C     C_3   0.688346 0.633629 0.123498 -0.280799
C8    C     C_R   0.500694 0.737595 0.500216 0.539898
C9    C     C_R   0.737411 0.496757 0.556663 0.538922
C10   C     C_2   0.126858 0.509662 0.413145 0.257691
C11   C     C_2   0.060655 0.441871 0.490115 0.245200
C12   C     C_R   0.494879 0.129127 0.496666 -0.025112
C13   C     C_2   0.871918 0.480854 0.583156 -0.160046
C14   C     C_2   0.927085 0.464877 0.471486 -0.131421
C15   C     C_R   0.457114 0.063248 0.606046 0.062907
C16   C     C_3   0.048953 0.242350 0.567735 -0.033339
C17   C     C_3   0.129665 0.137650 0.635430 -0.337414
C18   C     C_3   0.121752 0.702798 0.309664 -0.012697
C19   C     C_3   0.030614 0.792170 0.224279 -0.385226
C20   C     C_3   0.439673 0.135177 0.973265 -0.012818
C21   C     C_3   0.326403 0.156252 0.038959 -0.375426
C22   C     C_R   0.521041 0.064011 0.378983 -0.182575
C23   C     C_R   0.519881 0.935491 0.378375 -0.168255
C24   C     C_R   0.495548 0.870726 0.497215 -0.006606
C25   C     C_R   0.458434 0.936376 0.606768 -0.021288
C26   C     C_3   0.502589 0.932324 0.765106 -0.235015
C27   C     C_3   0.497582 0.072862 0.764792 0.149883
C28   C     C_R   0.607684 0.520340 0.098969 0.151585
Cu1   Cu    Cu3+1 0.499990 0.499980 0.640670 0.961353
Cu2   Cu    Cu3+1 0.500010 0.500020 0.359330 0.915849
H1    H     H_    0.874853 0.470806 0.362430 0.156660
H2    H     H_    0.599127 0.898519 0.795866 0.082356
H3    H     H_    0.310412 0.447257 0.084147 0.129932
H4    H     H_    0.781015 0.615972 0.191123 0.151638
H5    H     H_    0.016021 0.218672 0.452207 0.119344
H6    H     H_    0.967770 0.247724 0.620452 0.134676
H7    H     H_    0.158841 0.154321 0.752026 0.192307
H8    H     H_    0.076403 0.049042 0.617577 0.081110
H9    H     H_    0.212531 0.131119 0.586319 0.195927
H10   H     H_    0.205362 0.699952 0.260915 0.164419
H11   H     H_    0.148487 0.739025 0.421455 0.117603
H12   H     H_    0.588773 0.122177 0.799153 0.099014
H13   H     H_    0.946766 0.799058 0.271982 0.149217
H14   H     H_    0.075063 0.885068 0.225571 0.094434
H15   H     H_    0.002204 0.759527 0.111772 0.155546
H16   H     H_    0.433713 0.886609 0.819401 0.155886
H17   H     H_    0.502413 0.217711 0.994544 0.143329
H18   H     H_    0.489093 0.053112 0.025256 0.110049
H19   H     H_    0.268307 0.070636 0.030028 0.140684
H20   H     H_    0.355443 0.182520 0.153250 0.128769
H21   H     H_    0.269766 0.231715 0.982584 0.147061
H22   H     H_    0.310754 0.446050 0.826471 0.167797
H23   H     H_    0.782383 0.612143 0.941856 0.133515
H24   H     H_    0.642029 0.711824 0.907006 0.139290
H25   H     H_    0.639804 0.714398 0.157212 0.136985
H26   H     H_    0.924942 0.476933 0.692182 0.119766
H27   H     H_    0.548364 0.111953 0.290830 0.124687
H28   H     H_    0.544233 0.887603 0.288388 0.126020
N1    N     N_R   0.500780 0.500930 0.148120 -0.234679
N2    N     N_R   0.500790 0.500890 0.852210 -0.234762
O1    O     O_R   0.500000 0.319640 0.618810 -0.472795
O2    O     O_3   0.064679 0.584499 0.304171 -0.615627
O3    O     O_3   0.399358 0.117354 0.824720 -0.554722
O4    O     O_R   0.500010 0.319680 0.381230 -0.513951
O5    O     O_R   0.320680 0.500000 0.575130 -0.485972
O6    O     O_R   0.320690 0.500040 0.337550 -0.518575
O7    O     O_R   0.499990 0.680320 0.618770 -0.504393
O8    O     O_R   0.500000 0.680360 0.381190 -0.511897
O9    O     O_R   0.679310 0.499960 0.662450 -0.501699
O10   O     O_R   0.679320 0.500000 0.424870 -0.499876
O11   O     O_3   0.118471 0.354627 0.586948 -0.571483

loop_
_geom_bond_atom_site_label_1
_geom_bond_atom_site_label_2
_ccdc_geom_bond_type
C23   H28   S    
C23   C24   A    
C19   H15   S    
C24   C25   A    
C26   H2    S    
C6    C7    S    
C8    C24   S    
Cu2   O4    S    
C19   H13   S    
C5    C28   A    
C28   N1    A    
C15   C27   S    
C12   C15   A    
C7    H25   S    
C14   H1    S    
C3    H22   S    
C13   H26   S    
C3    N2    A    
C20   C21   S    
C20   O3    S    
C21   H19   S    
C2    C3    A    
Cu1   O7    S    
Cu1   O1    S    
C17   H7    S    
C13   C14   D    
C16   H6    S    
C4    O6    A    
C1    C12   S    
C27   H12   S    
C26   C27   S    
Cu1   Cu2   S    
C16   O11   S    
C27   O3    S    
C22   H27   S    
Cu1   O5    S    
C2    H3    S    
C21   H20   S    
Cu2   O6    S    
C6    H24   S    
C8    O8    A    
Cu1   O9    S    
C17   H8    S    
C22   C23   A    
C16   H5    S    
C5    C6    S    
C11   C14   S    
C11   O11   S    
C10   O2    S    
C20   H17   S    
C15   C25   A    
C10   C11   D    
C26   H16   S    
C6    H23   S    
C4    C10   S    
C9    O10   A    
C1    O4    A    
C12   C22   A    
C21   H21   S    
C19   H14   S    
C8    O7    A    
C18   C19   S    
C17   H9    S    
C7    H4    S    
Cu2   N1    S    
C18   H10   S    
C4    O5    A    
C18   O2    S    
C9    C13   S    
C20   H18   S    
C5    N2    A    
Cu2   O10   S    
C25   C26   S    
C2    N1    A    
Cu1   N2    S    
Cu2   O8    S    
C7    C28   S    
C18   H11   S    
C9    O9    A    
C16   C17   S    
C1    O1    A    
