data_mof_unit_20750.cif
_audit_creation_date              2012-12-11T17:14:55-0500
_audit_creation_method            fapswitch 2.2
_symmetry_space_group_name_H-M    P1
_symmetry_Int_Tables_number       1
_space_group_crystal_system       triclinic
_cell_length_a                    7.219136
_cell_length_b                    12.113706
_cell_length_c                    21.412182
_cell_angle_alpha                 89.999482
_cell_angle_beta                  90.280192
_cell_angle_gamma                 90.000321
_cell_volume                      1872.48344062

loop_
_atom_site_label
_atom_site_type_symbol
_atom_type_description
_atom_site_fract_x
_atom_site_fract_y
_atom_site_fract_z
_atom_type_partial_charge
O1    O     O_R   0.354460 0.152320 0.595720 -0.530884
O2    O     O_R   0.645540 0.847680 0.404280 -0.534994
O3    O     O_R   0.145540 0.652320 0.404280 -0.530887
O4    O     O_R   0.854460 0.347680 0.595720 -0.535001
O5    O     O_R   0.683670 0.140090 0.727290 -0.550751
O6    O     O_R   0.316330 0.859910 0.272710 -0.526288
O7    O     O_R   0.816330 0.640090 0.272710 -0.550744
O8    O     O_R   0.183670 0.359910 0.727290 -0.526290
O9    O     O_R   0.854010 0.349340 0.727750 -0.551954
O10   O     O_R   0.145990 0.650660 0.272250 -0.524361
O11   O     O_R   0.645990 0.849340 0.272250 -0.551947
O12   O     O_R   0.354010 0.150660 0.727750 -0.524326
C1    C     C_R   0.516151 0.112672 0.747070 0.739812
C2    C     C_R   0.484136 0.888183 0.253396 0.764282
C3    C     C_R   0.983842 0.612672 0.252930 0.739719
C4    C     C_R   0.015870 0.388176 0.746607 0.764317
O13   O     O_R   0.684170 0.139420 0.596190 -0.537790
O14   O     O_R   0.315830 0.860580 0.403810 -0.537465
O15   O     O_R   0.815830 0.639420 0.403810 -0.537793
O16   O     O_R   0.184170 0.360580 0.596190 -0.537460
C5    C     C_R   0.515307 0.113068 0.574443 0.723319
C6    C     C_R   0.484696 0.886925 0.425561 0.723617
C7    C     C_R   0.984693 0.613068 0.425557 0.723316
C8    C     C_R   0.015304 0.386925 0.574439 0.723618
O17   O     O_3   0.520730 0.319480 0.661730 -0.381579
O18   O     O_3   0.479270 0.680520 0.338270 -0.376070
O19   O     O_3   0.979270 0.819480 0.338270 -0.381576
O20   O     O_3   0.020730 0.180520 0.661730 -0.376062
V1    V     V_3+5 0.795560 0.238090 0.661730 1.425079
V2    V     V_3+5 0.204440 0.761910 0.338270 1.469732
V3    V     V_3+5 0.704440 0.738090 0.338270 1.425055
V4    V     V_3+5 0.295560 0.261910 0.661730 1.469811
C9    C     C_R   0.007006 0.467253 0.798037 -0.044507
C10   C     C_R   0.990820 0.535720 0.200413 -0.090815
C11   C     C_R   0.493042 0.967260 0.201964 -0.044604
C12   C     C_R   0.509119 0.035708 0.799582 -0.090842
C13   C     C_R   0.946182 0.650839 0.836787 -0.201586
C14   C     C_R   0.038105 0.351723 0.160310 -0.213748
C15   C     C_R   0.554316 0.150799 0.163198 -0.201518
C16   C     C_R   0.461221 0.851743 0.839682 -0.213770
C17   C     C_R   0.950905 0.576564 0.786875 0.138795
C18   C     C_R   0.033986 0.424295 0.210955 0.164412
C19   C     C_R   0.549447 0.076535 0.213115 0.138903
C20   C     C_R   0.465517 0.924330 0.789042 0.164368
C21   C     C_R   0.048781 0.430841 0.858767 0.087631
C22   C     C_R   0.958428 0.575427 0.139386 0.082036
C23   C     C_R   0.451159 0.930859 0.141237 0.087680
C24   C     C_R   0.541659 0.075376 0.860608 0.082087
C25   C     C_R   0.008732 0.500697 0.910584 0.040257
C26   C     C_R   0.991684 0.505451 0.087201 0.081841
C27   C     C_R   0.491320 0.000679 0.089411 0.040244
C28   C     C_R   0.508211 0.005421 0.912791 0.081804
C29   C     C_R   0.976172 0.614014 0.897967 0.067461
C30   C     C_R   0.015025 0.390907 0.099253 0.049936
C31   C     C_R   0.524167 0.113983 0.102022 0.067456
C32   C     C_R   0.484514 0.890893 0.900738 0.049968
C33   C     C_R   0.001725 0.463923 0.974050 0.048243
C34   C     C_R   0.996808 0.542888 0.023616 0.082047
C35   C     C_R   0.498170 0.963890 0.025942 0.048255
C36   C     C_R   0.503234 0.042859 0.976376 0.082025
C37   C     C_R   0.003939 0.655925 0.007576 -0.153909
C38   C     C_R   0.988274 0.351143 0.989379 -0.202088
C39   C     C_R   0.496383 0.155911 0.992414 -0.153867
C40   C     C_R   0.511316 0.851088 0.010606 -0.202003
C41   C     C_R   0.980710 0.690544 0.946380 -0.194294
C42   C     C_R   0.006806 0.315208 0.050429 -0.174977
C43   C     C_R   0.519760 0.190518 0.053607 -0.194292
C44   C     C_R   0.492590 0.815172 0.949558 -0.174919
H1    H     H_    0.972681 0.778298 0.936687 0.140227
H2    H     H_    0.008564 0.227179 0.059652 0.141427
H3    H     H_    0.528017 0.278275 0.063298 0.140228
H4    H     H_    0.490574 0.727138 0.940332 0.141389
H5    H     H_    0.915480 0.737135 0.828083 0.132031
H6    H     H_    0.060458 0.264360 0.168501 0.132735
H7    H     H_    0.585265 0.237079 0.171895 0.132012
H8    H     H_    0.438558 0.764399 0.831489 0.132763
H9    H     H_    0.029543 0.720227 0.041024 0.168658
H10   H     H_    0.961524 0.288719 0.954808 0.155359
H11   H     H_    0.470884 0.220234 0.958964 0.168636
H12   H     H_    0.537972 0.788629 0.045169 0.155248
C45   C     C_1   0.995108 0.533088 0.478086 -0.166637
C46   C     C_1   0.004881 0.466900 0.521908 -0.163106
C47   C     C_1   0.504891 0.033088 0.521914 -0.166639
C48   C     C_1   0.495119 0.966900 0.478092 -0.163103
N1    N     N_3   0.873637 0.681821 0.131506 -0.698716
H13   H     H_    0.957758 0.741860 0.152305 0.235995
H14   H     H_    0.745300 0.681633 0.153876 0.234627
N2    N     N_3   0.159095 0.332352 0.864565 -0.686341
H15   H     H_    0.241447 0.333667 0.904779 0.237896
H16   H     H_    0.074330 0.262549 0.862643 0.216570
N3    N     N_3   0.626782 0.181680 0.868490 -0.698732
H17   H     H_    0.542832 0.241826 0.847704 0.235901
H18   H     H_    0.755101 0.181349 0.846107 0.234619
N4    N     N_3   0.340702 0.832418 0.135456 -0.686367
H19   H     H_    0.258280 0.833784 0.095259 0.237877
H20   H     H_    0.425380 0.762569 0.137364 0.216563
N5    N     N_3   0.066031 0.384876 0.273423 -0.667858
H21   H     H_    0.105737 0.301832 0.272805 0.236835
H22   H     H_    0.939888 0.388550 0.297143 0.210793
N6    N     N_3   0.910115 0.612829 0.724364 -0.681744
H23   H     H_    0.884732 0.697808 0.723615 0.232674
H24   H     H_    0.786712 0.574712 0.710473 0.228070
N7    N     N_3   0.433220 0.884962 0.726578 -0.667906
H25   H     H_    0.392852 0.802032 0.727208 0.236912
H26   H     H_    0.559410 0.888282 0.702870 0.210829
N8    N     N_3   0.590424 0.112784 0.275619 -0.681609
H27   H     H_    0.616034 0.197756 0.276364 0.232643
H28   H     H_    0.713766 0.074550 0.289492 0.228079

loop_
_geom_bond_atom_site_label_1
_geom_bond_atom_site_label_2
_ccdc_geom_bond_type
O1    C5    A    
C9    C21   A    
O3    C7    A    
C10   C18   A    
C11   C23   A    
C45   C46   T    
C25   C33   A    
C33   C38   A    
C39   H11   S    
N1    H13   S    
C35   C40   A    
C26   C30   A    
C36   C39   A    
C40   C44   A    
O20   V1    S    
O9    C4    A    
C14   C18   A    
O10   C3    A    
O16   V4    S    
O4    C8    A    
O11   C2    A    
C25   C29   A    
C43   H3    S    
N3    H18   S    
N8    H27   S    
O13   V1    S    
C8    C46   S    
C28   C36   A    
C15   C31   A    
O16   C8    A    
C37   H9    S    
C16   C32   A    
C24   N3    S    
O2    C6    A    
C10   C22   A    
C15   H7    S    
C11   C19   A    
C3    C10   S    
O5    C1    A    
O4    V1    S    
O9    V1    S    
C22   N1    S    
C13   C29   A    
C34   C37   A    
O7    C3    A    
O15   V3    S    
C35   C36   A    
O8    C4    A    
O12   V4    S    
O19   V2    S    
C40   H12   S    
N5    H22   S    
C20   N7    S    
N5    H21   S    
O5    V1    S    
N1    H14   S    
C39   C43   A    
O7    V3    S    
C38   C42   A    
C26   C34   A    
C5    C47   S    
C21   N2    S    
C1    C12   S    
C18   N5    S    
C2    C11   S    
C23   C27   A    
C32   C44   A    
O1    V4    S    
O13   C5    A    
C16   H8    S    
O2    V3    S    
C19   N8    S    
C6    C48   S    
O3    V2    S    
O15   C7    A    
C4    C9    S    
O6    C2    A    
O10   V2    S    
C31   C43   A    
C47   C48   T    
C14   C30   A    
C21   C25   A    
C44   H4    S    
N6    H24   S    
C17   N6    S    
N7    H26   S    
O12   C1    A    
N4    H20   S    
O14   V2    S    
O6    V2    S    
N2    H16   S    
C12   C20   A    
C27   C35   A    
C16   C20   A    
N3    H17   S    
C29   C41   A    
C14   H6    S    
C13   H5    S    
C7    C45   S    
O14   C6    A    
O18   V3    S    
C38   H10   S    
C15   C19   A    
C30   C42   A    
C22   C26   A    
C9    C17   A    
C33   C34   A    
C42   H2    S    
O8    V4    S    
N8    H28   S    
O17   V4    S    
C41   H1    S    
N6    H23   S    
C23   N4    S    
C12   C24   A    
C27   C31   A    
C13   C17   A    
N4    H19   S    
O11   V3    S    
C37   C41   A    
C24   C28   A    
N2    H15   S    
N7    H25   S    
C28   C32   A    
