data_mof_unit_27233.cif
_audit_creation_date              2012-12-10T17:48:16-0500
_audit_creation_method            fapswitch 2.2
_symmetry_space_group_name_H-M    P1
_symmetry_Int_Tables_number       1
_space_group_crystal_system       triclinic
_cell_length_a                    13.863164
_cell_length_b                    14.824737
_cell_length_c                    14.589108
_cell_angle_alpha                 115.278694
_cell_angle_beta                  107.120621
_cell_angle_gamma                 71.55115
_cell_volume                      2527.15521424

loop_
_atom_site_label
_atom_site_type_symbol
_atom_type_description
_atom_site_fract_x
_atom_site_fract_y
_atom_site_fract_z
_atom_type_partial_charge
C1    C     C_R   0.515405 0.118666 0.688782 0.775869
C2    C     C_R   0.485430 0.881610 0.311413 0.765598
C3    C     C_R   0.512492 0.360816 0.924118 0.060515
C4    C     C_R   0.500247 0.641577 0.075206 0.062749
C5    C     C_R   0.572738 0.321533 0.001528 0.129769
C6    C     C_R   0.440442 0.680487 0.997392 0.141099
C7    C     C_R   0.495282 0.467643 0.947427 0.056018
C8    C     C_R   0.521093 0.534316 0.051313 0.013373
C9    C     C_R   0.560477 0.492348 0.128695 -0.200162
C10   C     C_R   0.458133 0.509293 0.869831 -0.233009
C11   C     C_R   0.592164 0.387552 0.103701 -0.206448
C12   C     C_R   0.424907 0.614191 0.894738 -0.240685
C13   C     C_R   0.321076 0.313641 0.342676 -0.295432
C14   C     C_R   0.706734 0.677466 0.628467 -0.290034
C15   C     C_R   0.338566 0.235979 0.378849 0.269897
C16   C     C_R   0.657905 0.775333 0.629018 0.299770
C17   C     C_R   0.504376 0.269336 0.468527 0.009406
C18   C     C_R   0.516017 0.711647 0.507293 0.049174
C19   C     C_R   0.478984 0.364053 0.451125 -0.044638
C20   C     C_R   0.556431 0.613752 0.518389 -0.035018
C21   C     C_R   0.384248 0.382952 0.384593 -0.009705
C22   C     C_R   0.651198 0.600943 0.585926 -0.059080
C23   C     C_R   0.687240 0.986408 0.504470 0.815104
C24   C     C_R   0.312742 0.013445 0.495196 0.819353
C25   C     C_R   0.539634 0.442004 0.497570 -0.148682
C26   C     C_R   0.504535 0.530545 0.467537 -0.124506
C27   C     C_R   0.419338 0.534199 0.386153 0.335168
C28   C     C_R   0.632175 0.437293 0.573377 0.360116
C29   C     C_R   0.350968 0.470681 0.358997 0.371214
C30   C     C_R   0.687274 0.515559 0.616010 0.366664
C31   C     C_1   0.206483 0.020762 0.489506 -0.212873
C32   C     C_1   0.793484 0.979734 0.510587 -0.225351
C33   C     C_2   0.010885 0.029894 0.480606 0.077130
C34   C     C_2   0.989027 0.974180 0.522599 0.083810
C35   C     C_1   0.882646 0.976018 0.516215 -0.033363
C36   C     C_1   0.117185 0.025873 0.484712 -0.059590
C37   C     C_R   0.525563 0.186506 0.798563 -0.095031
C38   C     C_R   0.478699 0.814908 0.201796 -0.089771
C39   C     C_R   0.611548 0.216442 0.976074 -0.198780
C40   C     C_R   0.399237 0.785521 0.022940 -0.203285
C41   C     C_R   0.593959 0.150600 0.874037 -0.243361
C42   C     C_R   0.413018 0.851343 0.125578 -0.229708
C43   C     C_R   0.472435 0.290411 0.827574 0.028932
C44   C     C_R   0.535987 0.712756 0.173085 0.037200
Cu1   Cu    Cu3+1 0.526370 0.916390 0.524860 0.919677
Cu2   Cu    Cu3+1 0.473630 0.083610 0.475140 0.919373
H1    H     H_    0.251477 0.325043 0.286791 0.186080
H2    H     H_    0.782720 0.667039 0.675715 0.179094
H3    H     H_    0.629789 0.358018 0.164878 0.150766
H4    H     H_    0.388328 0.643595 0.833357 0.142023
H5    H     H_    0.373741 0.930864 0.144875 0.151902
H6    H     H_    0.634123 0.071991 0.855082 0.162300
H7    H     H_    0.660654 0.185910 0.033985 0.138736
H8    H     H_    0.351910 0.815865 0.964349 0.138295
H9    H     H_    0.565995 0.539259 0.209127 0.198520
H10   H     H_    0.454783 0.461836 0.789482 0.140124
H11   H     H_    0.442409 0.727997 0.459978 0.141593
H12   H     H_    0.579287 0.240543 0.504759 0.201236
N1    N     N_R   0.433980 0.209250 0.437830 -0.191735
N2    N     N_R   0.566020 0.790750 0.562170 -0.198740
O1    O     O_R   0.534760 0.019630 0.662610 -0.587155
O2    O     O_R   0.465240 0.980370 0.337390 -0.582123
O3    O     O_R   0.490220 0.160840 0.620610 -0.587065
O4    O     O_R   0.509780 0.839160 0.379390 -0.577097
O5    O     O_R   0.663260 0.919400 0.523940 -0.580442
O6    O     O_R   0.336740 0.080600 0.476060 -0.587270
O7    O     O_R   0.618720 0.060610 0.481950 -0.576165
O8    O     O_R   0.381280 0.939390 0.518050 -0.581416
C45   C     C_3   0.075394 0.905900 0.572329 -0.398171
C46   C     C_3   0.039364 0.867149 0.636152 -0.335635
C47   C     C_3   0.130921 0.808879 0.692484 -0.881914
H13   H     H_    0.176893 0.744483 0.636900 0.248197
H14   H     H_    0.181726 0.860804 0.749716 0.253317
H15   H     H_    0.102115 0.777739 0.733846 0.247337
H16   H     H_    0.997669 0.933283 0.694131 0.225019
H17   H     H_    0.985890 0.815730 0.584804 0.224090
H18   H     H_    0.111956 0.839203 0.510582 0.185717
H19   H     H_    0.135200 0.949771 0.624587 0.207533
C48   C     C_3   0.928883 0.096582 0.426787 -0.413338
C49   C     C_3   0.923246 0.210406 0.492658 -0.315411
C50   C     C_3   0.846246 0.277622 0.435872 -0.773005
H20   H     H_    0.870348 0.261828 0.363312 0.228175
H21   H     H_    0.767564 0.263119 0.417278 0.267855
H22   H     H_    0.843601 0.359398 0.485347 0.264639
H23   H     H_    0.898931 0.229049 0.566030 0.243613
H24   H     H_    0.000643 0.227985 0.511528 0.213150
H25   H     H_    0.948800 0.078719 0.351562 0.192280
H26   H     H_    0.850957 0.080674 0.408433 0.209568
O9    O     O_3   0.426323 0.572160 0.316039 -0.629198
C51   C     C_3   0.333819 0.635784 0.284391 0.091210
H27   H     H_    0.354259 0.705174 0.290703 0.144036
H28   H     H_    0.276408 0.665171 0.335307 0.120309
C52   C     C_3   0.288854 0.582998 0.170380 -0.273532
H29   H     H_    0.342649 0.573366 0.122142 0.207724
H30   H     H_    0.280410 0.505627 0.154930 0.258902
C53   C     C_3   0.184116 0.645908 0.137292 -0.940063
H31   H     H_    0.127134 0.654010 0.181723 0.261081
H32   H     H_    0.155216 0.606759 0.053946 0.255684
H33   H     H_    0.191561 0.723006 0.149918 0.254044
O10   O     O_3   0.679268 0.350364 0.596512 -0.618506
C54   C     C_3   0.660933 0.362318 0.692105 0.068658
H34   H     H_    0.601648 0.319760 0.677837 0.147416
H35   H     H_    0.630177 0.442773 0.740511 0.107352
C55   C     C_3   0.761743 0.315642 0.750387 -0.315836
H36   H     H_    0.784729 0.232596 0.704726 0.214071
H37   H     H_    0.824685 0.351737 0.759417 0.242021
C56   C     C_3   0.750600 0.329161 0.856586 -0.932107
H38   H     H_    0.722401 0.411109 0.902339 0.254054
H39   H     H_    0.826809 0.300392 0.898734 0.256854
H40   H     H_    0.695915 0.284310 0.847974 0.271851
C57   C     C_3   0.646611 0.691394 0.233192 -0.364968
C58   C     C_3   0.727758 0.638032 0.162797 -0.365879
C59   C     C_3   0.837406 0.626386 0.225596 -0.860335
H41   H     H_    0.853520 0.702540 0.278539 0.253199
H42   H     H_    0.847186 0.579236 0.271195 0.264571
H43   H     H_    0.894171 0.587740 0.172906 0.247167
H44   H     H_    0.716228 0.560716 0.108973 0.233076
H45   H     H_    0.720100 0.683874 0.116402 0.222523
H46   H     H_    0.667968 0.764949 0.287970 0.198586
H47   H     H_    0.654214 0.649462 0.282862 0.200524
C60   C     C_3   0.362576 0.316725 0.768271 -0.372192
C61   C     C_3   0.282240 0.374957 0.839349 -0.348115
C62   C     C_3   0.172606 0.390073 0.777134 -0.857485
H48   H     H_    0.165378 0.434826 0.729849 0.256837
H49   H     H_    0.152881 0.315012 0.725727 0.251181
H50   H     H_    0.116896 0.432613 0.830699 0.239896
H51   H     H_    0.287016 0.331237 0.886935 0.223511
H52   H     H_    0.297069 0.451431 0.892151 0.235180
H53   H     H_    0.358567 0.357710 0.718860 0.190367
H54   H     H_    0.337222 0.245055 0.713683 0.198945
O11   O     O_3   0.251003 0.493013 0.305918 -0.631647
C63   C     C_3   0.184482 0.561936 0.376824 0.032808
H55   H     H_    0.134850 0.621338 0.345441 0.162419
H56   H     H_    0.225849 0.603465 0.455128 0.103730
C64   C     C_3   0.113122 0.507144 0.386527 -0.346760
H57   H     H_    0.072408 0.465774 0.308477 0.225228
H58   H     H_    0.159328 0.451222 0.423405 0.208732
C65   C     C_3   0.033176 0.582246 0.452647 -0.932302
H59   H     H_    0.072002 0.616017 0.533757 0.264585
H60   H     H_    0.977628 0.541348 0.450975 0.258084
H61   H     H_    0.989629 0.644446 0.423229 0.258705
O12   O     O_3   0.781811 0.503175 0.682205 -0.596420
C66   C     C_3   0.773469 0.568394 0.785992 0.020481
H62   H     H_    0.748427 0.530695 0.823192 0.157127
H63   H     H_    0.717082 0.642829 0.793676 0.125276
C67   C     C_3   0.879963 0.588865 0.846433 -0.325748
H64   H     H_    0.935220 0.514893 0.842672 0.221694
H65   H     H_    0.908555 0.626591 0.811427 0.213207
C68   C     C_3   0.876260 0.656870 0.959316 -0.939272
H66   H     H_    0.821754 0.731665 0.965244 0.254801
H67   H     H_    0.954441 0.670792 0.000734 0.262188
H68   H     H_    0.851242 0.618889 0.996746 0.259381
C69   C     C_3   0.691397 0.859560 0.727681 -0.387538
C70   C     C_3   0.776846 0.902650 0.723540 -0.301649
C71   C     C_3   0.853618 0.927876 0.825803 -0.908823
H69   H     H_    0.812413 0.979444 0.890784 0.255257
H70   H     H_    0.898063 0.856536 0.839570 0.259435
H71   H     H_    0.908683 0.966996 0.823702 0.246097
H72   H     H_    0.820333 0.846877 0.661331 0.219629
H73   H     H_    0.741600 0.974399 0.708326 0.231061
H74   H     H_    0.623333 0.918165 0.753663 0.195912
H75   H     H_    0.719806 0.829159 0.791119 0.166935
C72   C     C_3   0.240806 0.198896 0.359570 -0.349491
C73   C     C_3   0.233706 0.097767 0.267646 -0.313922
C74   C     C_3   0.124209 0.079279 0.234383 -0.899366
H76   H     H_    0.099459 0.078760 0.299830 0.264232
H77   H     H_    0.069085 0.139820 0.207464 0.255095
H78   H     H_    0.122605 0.004067 0.170115 0.245716
H79   H     H_    0.256199 0.099267 0.201284 0.200851
H80   H     H_    0.285239 0.032732 0.287762 0.250269
H81   H     H_    0.223517 0.203815 0.430802 0.207362
H82   H     H_    0.171937 0.256161 0.340570 0.151084

loop_
_geom_bond_atom_site_label_1
_geom_bond_atom_site_label_2
_ccdc_geom_bond_type
C8    C9    A    
C66   C67   S    
C58   H45   S    
Cu1   N2    S    
C54   H34   S    
Cu2   N1    S    
C7    C10   A    
C62   H48   S    
C73   H80   S    
C57   C58   S    
C60   H54   S    
C4    C8    A    
C55   H37   S    
C50   H20   S    
C73   H79   S    
C7    C8    A    
C39   C41   A    
C74   H76   S    
C29   O11   S    
Cu1   Cu2   S    
C25   C28   A    
C38   C44   A    
C3    C43   A    
C26   C27   A    
C52   H29   S    
Cu2   O2    S    
C15   C72   S    
C73   C74   S    
C19   C21   A    
C38   C42   A    
C3    C7    A    
C68   H67   S    
C6    C12   A    
C58   H44   S    
C62   H49   S    
C71   H70   S    
C66   H62   S    
C53   H33   S    
C33   C36   S    
C27   C29   A    
C57   H46   S    
C34   C35   S    
C16   N2    A    
C23   O7    A    
C61   H51   S    
C52   H30   S    
C48   H26   S    
C49   H24   S    
C45   H18   S    
C72   C73   S    
C63   H55   S    
C53   H32   S    
C56   H38   S    
C46   C47   S    
C9    H9    S    
C72   H81   S    
C43   C60   S    
C41   H6    S    
C18   C20   A    
C24   O6    A    
C42   H5    S    
C59   H43   S    
C28   O10   S    
C40   C42   A    
C74   H77   S    
C64   H58   S    
C71   H71   S    
C61   H52   S    
C56   H39   S    
C45   H19   S    
C1    O3    A    
C48   H25   S    
C55   H36   S    
C50   H21   S    
C2    O4    A    
C67   H65   S    
C71   H69   S    
C67   H64   S    
C32   C35   T    
C64   H57   S    
C4    C6    A    
C68   H68   S    
C47   H14   S    
C33   C48   S    
C62   H50   S    
C14   H2    S    
C4    C44   A    
C25   C26   A    
C21   C29   A    
Cu1   O1    S    
C69   H74   S    
C57   H47   S    
C37   C43   A    
C70   H73   S    
C49   H23   S    
C11   H3    S    
C67   C68   S    
C2    C38   S    
C18   H11   S    
C51   H28   S    
C53   H31   S    
Cu1   O8    S    
C33   C34   D    
C70   C71   S    
C13   C21   A    
C72   H82   S    
C9    C11   A    
C34   C45   S    
C60   C61   S    
C64   C65   S    
C10   C12   A    
C17   N1    A    
C63   H56   S    
C18   N2    A    
C20   C22   A    
C52   C53   S    
C40   H8    S    
C13   C15   A    
C5    C11   A    
Cu1   O5    S    
C56   H40   S    
C14   C16   A    
O11   C63   S    
C46   H16   S    
C50   H22   S    
C10   H10   S    
C51   C52   S    
C13   H1    S    
C59   H41   S    
C66   H63   S    
C22   C30   A    
C31   C36   T    
C15   N1    A    
C60   H53   S    
C49   C50   S    
C3    C5    A    
C65   H61   S    
C1    O1    A    
C47   H15   S    
C12   H4    S    
Cu2   O6    S    
C65   H60   S    
C1    C37   S    
C74   H78   S    
C58   C59   S    
C17   H12   S    
Cu1   O4    S    
C30   O12   S    
C69   H75   S    
C23   C32   S    
C14   C22   A    
C5    C39   A    
C61   C62   S    
C24   C31   S    
C70   H72   S    
C68   H66   S    
C46   H17   S    
C23   O5    A    
C51   H27   S    
C39   H7    S    
Cu2   O3    S    
C20   C26   A    
C63   C64   S    
C28   C30   A    
O10   C54   S    
C17   C19   A    
C27   O9    S    
C6    C40   A    
C37   C41   A    
C45   C46   S    
C19   C25   A    
C65   H59   S    
C24   O8    A    
C48   C49   S    
C44   C57   S    
Cu2   O7    S    
C47   H13   S    
C54   H35   S    
C16   C69   S    
O12   C66   S    
C54   C55   S    
C59   H42   S    
O9    C51   S    
C55   C56   S    
C2    O2    A    
C69   C70   S    
