data_mof_unit_13995.cif
_audit_creation_date              2012-12-10T18:05:45-0500
_audit_creation_method            fapswitch 2.2
_symmetry_space_group_name_H-M    P1
_symmetry_Int_Tables_number       1
_space_group_crystal_system       triclinic
_cell_length_a                    25.952559
_cell_length_b                    25.998878
_cell_length_c                    22.152567
_cell_angle_alpha                 89.971847
_cell_angle_beta                  54.223524
_cell_angle_gamma                 89.985608
_cell_volume                      12126.6926907

loop_
_atom_site_label
_atom_site_type_symbol
_atom_type_description
_atom_site_fract_x
_atom_site_fract_y
_atom_site_fract_z
_atom_type_partial_charge
C1    C     C_R   0.400411 0.249984 0.699380 0.803529
C2    C     C_3   0.223731 0.719530 0.975291 0.263403
C3    C     C_3   0.238942 0.204644 0.974771 0.267473
C4    C     C_3   0.720664 0.272986 0.974357 0.265706
C5    C     C_3   0.245223 0.701408 0.023646 0.269676
C6    C     C_3   0.257876 0.291419 0.025396 0.267677
C7    C     C_3   0.726531 0.716333 0.975299 0.263318
C8    C     C_3   0.696288 0.223947 0.022630 0.268961
C9    C     C_3   0.307450 0.732327 0.975822 0.263515
C10   C     C_3   0.308896 0.250192 0.978331 0.265875
C11   C     C_3   0.691064 0.764315 0.022779 0.264800
C12   C     C_3   0.191789 0.767682 0.024243 0.263439
C13   C     C_3   0.235271 0.289302 0.974714 0.263431
C14   C     C_3   0.804285 0.273947 0.977120 0.265330
C15   C     C_3   0.808497 0.735744 0.976859 0.264268
C16   C     C_3   0.187850 0.245858 0.021948 0.262906
C17   C     C_1   0.638930 0.249790 0.221335 -0.144964
C18   C     C_1   0.360507 0.750259 0.778601 -0.152207
C19   C     C_1   0.360971 0.249571 0.778660 -0.144434
C20   C     C_1   0.638927 0.750092 0.221344 -0.150695
C21   C     C_1   0.139263 0.749783 0.221415 -0.151148
C22   C     C_1   0.861570 0.249425 0.778544 -0.151612
C23   C     C_1   0.860957 0.749810 0.778522 -0.151232
C24   C     C_3   0.748255 0.702518 0.024907 0.265879
C25   C     C_1   0.137559 0.248852 0.221467 -0.146298
C26   C     C_3   0.631220 0.441744 0.480413 0.119648
C27   C     C_3   0.694620 0.413425 0.441586 -0.269235
C28   C     C_3   0.711845 0.401688 0.495279 -0.965665
C29   C     C_3   0.362015 0.555462 0.656593 0.148685
C30   C     C_3   0.305703 0.592568 0.697334 -0.295934
C31   C     C_3   0.283444 0.601801 0.777257 -0.963845
C32   C     C_3   0.367237 0.442497 0.523753 0.120896
C33   C     C_3   0.304011 0.413823 0.563397 -0.268176
C34   C     C_3   0.285282 0.402825 0.510943 -0.962125
C35   C     C_3   0.275510 0.780466 0.024768 0.262387
C36   C     C_3   0.641194 0.554211 0.346467 0.146975
C37   C     C_3   0.698339 0.590503 0.306969 -0.299152
C38   C     C_3   0.726456 0.595722 0.224511 -0.960713
C39   C     C_3   0.147578 0.947112 0.350827 0.152075
C40   C     C_3   0.190697 0.913705 0.282042 -0.315261
C41   C     C_3   0.258226 0.911877 0.260630 -0.956355
C42   C     C_3   0.947904 0.061048 0.668109 0.103633
C43   C     C_3   0.903860 0.091935 0.739454 -0.279513
C44   C     C_3   0.935449 0.104041 0.778165 -0.986653
C45   C     C_3   0.853942 0.947394 0.655043 0.144732
C46   C     C_3   0.763274 0.200023 0.975555 0.262086
C47   C     C_3   0.813122 0.914642 0.725236 -0.301208
C48   C     C_3   0.743834 0.913642 0.752598 -0.972809
C49   C     C_3   0.059809 0.062712 0.329285 0.114508
C50   C     C_3   0.108165 0.092516 0.258339 -0.287486
C51   C     C_3   0.080750 0.108608 0.216253 -0.994032
C52   C     C_3   0.634916 0.182045 0.993142 0.086418
C53   C     C_3   0.578348 0.145836 0.024346 -0.352223
C54   C     C_3   0.571079 0.128563 0.963836 -0.966192
C55   C     C_3   0.375169 0.698205 0.001596 0.090459
C56   C     C_3   0.445430 0.691149 0.968587 -0.346333
C57   C     C_3   0.751359 0.797482 0.974662 0.267510
C58   C     C_3   0.454832 0.676055 0.028127 -0.988680
C59   C     C_3   0.379130 0.256595 0.010419 0.093579
C60   C     C_3   0.447983 0.246687 0.981721 -0.352919
C61   C     C_3   0.456245 0.250271 0.044396 -0.989568
C62   C     C_3   0.623433 0.791983 0.993244 0.091700
C63   C     C_3   0.553389 0.795637 0.023844 -0.344734
C64   C     C_3   0.545453 0.808557 0.962499 -0.987939
C65   C     C_3   0.124069 0.801821 0.998468 0.090712
C66   C     C_3   0.053811 0.808962 0.031505 -0.345833
C67   C     C_3   0.044407 0.824162 0.972001 -0.987992
C68   C     C_3   0.261452 0.206789 0.025603 0.261269
C69   C     C_3   0.865571 0.315869 0.006701 0.086155
C70   C     C_3   0.922093 0.352125 0.975550 -0.351322
C71   C     C_3   0.929362 0.369341 0.036080 -0.967776
C72   C     C_3   0.876284 0.707942 0.006067 0.091864
C73   C     C_3   0.946365 0.704463 0.975366 -0.344596
C74   C     C_3   0.954463 0.691280 0.036507 -0.988624
C75   C     C_3   0.117863 0.239593 0.989497 0.093346
C76   C     C_3   0.049010 0.249270 0.018083 -0.352709
C77   C     C_3   0.041124 0.246378 0.955064 -0.990286
C78   C     C_3   0.229814 0.885076 0.003790 0.120284
C79   C     C_3   0.712341 0.248853 0.073596 -0.153312
C80   C     C_3   0.227480 0.936027 0.971672 -0.874270
C81   C     C_3   0.866533 0.179670 0.002850 0.112244
C82   C     C_3   0.897975 0.160908 0.039067 -0.882626
C83   C     C_3   0.851648 0.840968 0.999361 0.117760
C84   C     C_3   0.866134 0.885000 0.032426 -0.878004
C85   C     C_3   0.188845 0.125853 0.998186 0.106451
C86   C     C_3   0.176385 0.082269 0.962555 -0.866230
C87   C     C_3   0.634146 0.318092 0.996412 0.117791
C88   C     C_3   0.602128 0.335400 0.960241 -0.888926
C89   C     C_3   0.269238 0.614934 0.996336 0.118789
C90   C     C_3   0.286557 0.750466 0.926283 -0.152148
C91   C     C_3   0.271846 0.564050 0.028378 -0.874888
C92   C     C_3   0.308015 0.370248 0.001497 0.117350
C93   C     C_3   0.322653 0.412792 0.036448 -0.874607
C94   C     C_3   0.647879 0.659135 0.000225 0.116259
C95   C     C_3   0.633082 0.615479 0.966945 -0.880073
C96   C     C_3   0.141243 0.667176 0.999941 0.121752
C97   C     C_3   0.123620 0.625957 0.966312 -0.892811
C98   C     C_3   0.752059 0.385202 0.998561 0.126215
C99   C     C_3   0.722686 0.437602 0.030903 -0.878903
C100  C     C_3   0.778114 0.616855 0.999823 0.132290
C101  C     C_3   0.286956 0.248114 0.926378 -0.153628
C102  C     C_3   0.787026 0.569031 0.032316 -0.895910
C103  C     C_3   0.173702 0.361395 0.997879 0.121697
C104  C     C_3   0.172637 0.411925 0.964014 -0.863294
C105  C     C_3   0.748982 0.112572 0.000322 0.125802
C106  C     C_3   0.778927 0.060421 0.967360 -0.889249
C107  C     C_3   0.357551 0.833021 0.001027 0.120364
C108  C     C_3   0.375325 0.873090 0.035885 -0.885395
C109  C     C_3   0.322259 0.134399 0.003613 0.124213
C110  C     C_3   0.321876 0.083653 0.038058 -0.867606
C111  C     C_3   0.722428 0.883476 0.997052 0.124767
C112  C     C_R   0.599617 0.750006 0.300621 0.806181
C113  C     C_3   0.712176 0.750468 0.073617 -0.153678
C114  C     C_3   0.715626 0.930921 0.962028 -0.883294
C115  C     C_3   0.285907 0.253359 0.320240 0.101713
C116  C     C_3   0.291046 0.233826 0.252139 -0.776996
C117  C     C_3   0.715456 0.752331 0.679177 0.114334
C118  C     C_3   0.708878 0.774694 0.746865 -0.808583
C119  C     C_3   0.714654 0.253703 0.679463 0.098130
C120  C     C_3   0.708791 0.234091 0.748006 -0.773530
C121  C     C_3   0.283562 0.749779 0.321518 0.101607
C122  C     C_3   0.291241 0.771204 0.252726 -0.781873
C123  C     C_3   0.787338 0.746591 0.319610 0.109352
C124  C     C_3   0.212696 0.749532 0.073747 -0.152618
C125  C     C_3   0.791762 0.724782 0.252970 -0.814331
C126  C     C_3   0.213655 0.247201 0.679939 0.104053
C127  C     C_3   0.208419 0.266964 0.747997 -0.787308
C128  C     C_3   0.211778 0.746488 0.680997 0.095082
C129  C     C_3   0.208725 0.725028 0.746965 -0.789421
C130  C     C_3   0.786002 0.247346 0.320192 0.102685
C131  C     C_3   0.791739 0.267369 0.251908 -0.786754
C132  C     C_3   0.788243 0.249071 0.926175 -0.151438
C133  C     C_3   0.787363 0.749500 0.926118 -0.152497
C134  C     C_3   0.209829 0.248025 0.073849 -0.154093
C135  C     C_1   0.671846 0.249319 0.154609 0.144588
C136  C     C_1   0.327073 0.750459 0.845307 0.140619
C137  C     C_1   0.327864 0.248859 0.845381 0.143331
C138  C     C_1   0.671841 0.750344 0.154620 0.139580
C139  C     C_1   0.172423 0.749560 0.154714 0.143680
C140  C     C_R   0.599608 0.249993 0.300623 0.803607
C141  C     C_1   0.828762 0.249183 0.845227 0.141476
C142  C     C_1   0.827862 0.749555 0.845196 0.143157
C143  C     C_1   0.169660 0.248295 0.154801 0.140680
C144  C     C_R   0.307977 0.231361 0.438744 -0.365540
C145  C     C_R   0.692704 0.770678 0.559885 -0.361226
C146  C     C_R   0.692012 0.231384 0.561298 -0.364261
C147  C     C_R   0.307442 0.770223 0.439772 -0.361203
C148  C     C_R   0.807187 0.729100 0.440341 -0.361995
C149  C     C_R   0.192127 0.268942 0.561055 -0.374868
C150  C     C_R   0.192694 0.729370 0.559915 -0.363405
C151  C     C_R   0.400299 0.750033 0.699356 0.805830
C152  C     C_R   0.807860 0.268989 0.438953 -0.373807
C153  C     C_R   0.255661 0.232411 0.436273 0.489140
C154  C     C_R   0.744921 0.769721 0.562489 0.482807
C155  C     C_R   0.744313 0.232462 0.563789 0.489866
C156  C     C_R   0.255245 0.769141 0.437143 0.484606
C157  C     C_R   0.754968 0.730097 0.437708 0.487185
C158  C     C_R   0.244406 0.267797 0.563586 0.481183
C159  C     C_R   0.244963 0.730326 0.562478 0.489588
C160  C     C_R   0.755586 0.267850 0.436421 0.481440
C161  C     C_R   0.196979 0.250513 0.498563 -0.172673
C162  C     C_R   0.900383 0.749979 0.699332 0.809883
C163  C     C_R   0.802987 0.749566 0.501511 -0.177878
C164  C     C_R   0.803005 0.250555 0.501466 -0.173719
C165  C     C_R   0.197019 0.749471 0.498471 -0.178241
C166  C     C_R   0.696932 0.750278 0.498664 -0.176558
C167  C     C_R   0.303093 0.249699 0.501294 -0.172422
C168  C     C_R   0.303082 0.750239 0.501293 -0.176675
C169  C     C_R   0.696904 0.249707 0.498715 -0.173006
C170  C     C_R   0.490463 0.026712 0.452495 -0.188382
C171  C     C_R   0.509518 0.973288 0.547522 -0.186732
C172  C     C_R   0.509520 0.026662 0.547531 -0.187141
C173  C     C_R   0.099366 0.249787 0.300655 0.799967
C174  C     C_R   0.490460 0.973338 0.452486 -0.188576
C175  C     C_R   0.990174 0.526711 0.452738 -0.187484
C176  C     C_R   0.009844 0.473287 0.547246 -0.189536
C177  C     C_R   0.009844 0.526661 0.547256 -0.189293
C178  C     C_R   0.990170 0.473336 0.452730 -0.188409
C179  C     C_R   0.499991 0.946330 0.499997 0.003393
C180  C     C_R   0.499995 0.053670 0.500015 0.003221
C181  C     C_R   0.000004 0.446329 0.499985 0.004084
C182  C     C_R   0.000008 0.553669 0.500004 0.004284
C183  C     C_R   0.640466 0.249800 0.499451 0.834757
C184  C     C_R   0.099679 0.749961 0.300650 0.810047
C185  C     C_R   0.359521 0.750207 0.500571 0.844494
C186  C     C_R   0.359536 0.249800 0.500558 0.835216
C187  C     C_R   0.640480 0.750212 0.499412 0.843517
C188  C     C_R   0.140500 0.749734 0.499372 0.837846
C189  C     C_R   0.859496 0.250284 0.500629 0.834902
C190  C     C_R   0.859504 0.749759 0.500625 0.838083
C191  C     C_R   0.140495 0.250271 0.499377 0.835274
C192  C     C_R   0.500000 0.109754 0.500009 0.790075
C193  C     C_R   0.499996 0.890246 0.499994 0.790117
C194  C     C_R   0.000003 0.609754 0.500006 0.788403
C195  C     C_R   0.900504 0.249871 0.699338 0.797404
C196  C     C_R   1.000000 0.390245 0.499991 0.789361
C197  C     C_R   0.500006 0.390175 0.500114 0.881920
C198  C     C_R   0.500023 0.609778 0.500217 0.906476
C199  C     C_R   0.000034 0.890243 0.500057 0.943303
C200  C     C_R   0.000039 0.109867 0.500076 0.890270
C201  C     C_R   0.557971 0.473222 0.464854 0.311631
C202  C     C_R   0.441903 0.526599 0.541508 0.307196
C203  C     C_R   0.442016 0.473271 0.537124 0.313009
C204  C     C_R   0.558187 0.526617 0.460750 0.307345
C205  C     C_R   0.044935 0.973324 0.434145 0.299775
C206  C     C_3   0.737310 0.297882 0.024118 0.264126
C207  C     C_R   0.958039 0.027032 0.566991 0.314740
C208  C     C_R   0.955945 0.973241 0.566472 0.297623
C209  C     C_R   0.042981 0.027049 0.433489 0.310367
C210  C     C_R   0.500046 0.553658 0.500793 -0.365845
C211  C     C_R   0.500006 0.446220 0.500591 -0.363700
C212  C     C_R   0.000169 0.053853 0.500113 -0.339694
C213  C     C_R   0.000157 0.946425 0.500164 -0.335805
C214  C     C_3   0.254027 0.798614 0.976416 0.269735
C215  C     C_3   0.779933 0.224886 0.025350 0.266259
C216  C     C_3   0.773033 0.783714 0.024332 0.265901
H1    H     H_    0.352782 0.217000 0.390867 0.196606
H2    H     H_    0.516965 0.953209 0.584685 0.165130
H3    H     H_    0.567710 0.778319 0.918847 0.267652
H4    H     H_    0.144733 0.773546 0.952122 0.174231
H5    H     H_    0.148539 0.839209 0.975278 0.179148
H6    H     H_    0.027945 0.772508 0.058111 0.228841
H7    H     H_    0.033393 0.839341 0.074970 0.228285
H8    H     H_    0.068487 0.861307 0.946005 0.266729
H9    H     H_    0.992902 0.828523 0.997776 0.270743
H10   H     H_    0.063963 0.794011 0.928335 0.265585
H11   H     H_    0.872576 0.282375 0.032190 0.178911
H12   H     H_    0.821820 0.336455 0.051135 0.178661
H13   H     H_    0.516967 0.046702 0.584697 0.165101
H14   H     H_    0.966260 0.332260 0.930773 0.237231
H15   H     H_    0.915310 0.386539 0.951112 0.224467
H16   H     H_    0.886543 0.390905 0.080153 0.269942
H17   H     H_    0.971418 0.394857 0.011467 0.270312
H18   H     H_    0.936186 0.335536 0.061391 0.265558
H19   H     H_    0.854074 0.669911 0.029478 0.182749
H20   H     H_    0.852931 0.736702 0.051934 0.173886
H21   H     H_    0.969862 0.674368 0.931510 0.233029
H22   H     H_    0.969909 0.741858 0.949866 0.226588
H23   H     H_    0.932082 0.721309 0.080457 0.267602
H24   H     H_    0.483013 0.953298 0.415321 0.164555
H25   H     H_    0.005810 0.689302 0.012400 0.272161
H26   H     H_    0.932431 0.653428 0.061757 0.267481
H27   H     H_    0.131281 0.200357 0.965382 0.178271
H28   H     H_    0.148647 0.267706 0.944338 0.178357
H29   H     H_    0.017799 0.220066 0.061012 0.229770
H30   H     H_    0.034026 0.287987 0.044116 0.225725
H31   H     H_    0.070315 0.276448 0.912715 0.271998
H32   H     H_    0.990617 0.252801 0.977632 0.272976
H33   H     H_    0.055645 0.207907 0.928250 0.265593
H34   H     H_    0.255734 0.891443 0.028948 0.180168
H35   H     H_    0.982478 0.546790 0.415786 0.164848
H36   H     H_    0.180253 0.873582 0.048660 0.171079
H37   H     H_    0.200759 0.931457 0.947086 0.255877
H38   H     H_    0.203411 0.965487 0.016341 0.211258
H39   H     H_    0.276418 0.949369 0.927889 0.267394
H40   H     H_    0.898390 0.208457 0.959550 0.171405
H41   H     H_    0.861840 0.146360 0.975168 0.180026
H42   H     H_    0.868904 0.129966 0.079767 0.262670
H43   H     H_    0.945965 0.145501 0.995942 0.218702
H44   H     H_    0.902591 0.193136 0.068499 0.256720
H45   H     H_    0.851153 0.856513 0.952915 0.174286
H46   H     H_    0.017545 0.453207 0.584194 0.164170
H47   H     H_    0.890762 0.812621 0.976295 0.174061
H48   H     H_    0.868548 0.870452 0.077876 0.261513
H49   H     H_    0.912502 0.902651 0.988746 0.214065
H50   H     H_    0.828469 0.914785 0.055065 0.257495
H51   H     H_    0.142730 0.144697 0.040087 0.170646
H52   H     H_    0.207834 0.108749 0.027313 0.184151
H53   H     H_    0.221356 0.061638 0.921715 0.267926
H54   H     H_    0.142000 0.054670 0.006033 0.211704
H55   H     H_    0.156327 0.097815 0.933653 0.254804
H56   H     H_    0.638945 0.352104 0.022941 0.182488
H57   H     H_    0.017541 0.546700 0.584211 0.164335
H58   H     H_    0.602602 0.289679 0.040598 0.171572
H59   H     H_    0.597348 0.302399 0.932028 0.256294
H60   H     H_    0.554159 0.350916 0.003214 0.218627
H61   H     H_    0.630890 0.365906 0.918512 0.262820
H62   H     H_    0.318717 0.626444 0.951187 0.169139
H63   H     H_    0.242993 0.608487 0.971595 0.183391
H64   H     H_    0.222987 0.550694 0.072419 0.267543
H65   H     H_    0.295776 0.534558 0.983748 0.209896
H66   H     H_    0.298826 0.568724 0.052626 0.255641
H67   H     H_    0.287805 0.388379 0.974323 0.182522
H68   H     H_    0.982470 0.453297 0.415778 0.164359
H69   H     H_    0.353464 0.351197 0.957953 0.170070
H70   H     H_    0.343929 0.396192 0.063422 0.254135
H71   H     H_    0.356734 0.440496 0.992917 0.210975
H72   H     H_    0.278364 0.433615 0.078817 0.268516
H73   H     H_    0.608785 0.687543 0.023796 0.174441
H74   H     H_    0.648596 0.643223 0.046347 0.172299
H75   H     H_    0.670702 0.585620 0.943822 0.257509
H76   H     H_    0.586739 0.597792 0.010620 0.213765
H77   H     H_    0.630459 0.630418 0.921818 0.261392
H78   H     H_    0.103764 0.697079 0.024509 0.174372
H79   H     H_    0.594165 0.418760 0.529591 0.115100
H80   H     H_    0.141474 0.649270 0.045393 0.178394
H81   H     H_    0.159150 0.594410 0.943017 0.259459
H82   H     H_    0.076179 0.609842 0.009864 0.221679
H83   H     H_    0.122025 0.642776 0.921318 0.262367
H84   H     H_    0.748529 0.377496 0.951707 0.174562
H85   H     H_    0.803008 0.387142 0.976111 0.173560
H86   H     H_    0.728140 0.447692 0.075609 0.265107
H87   H     H_    0.746737 0.467284 0.986558 0.213081
H88   H     H_    0.671398 0.437100 0.054357 0.256267
H89   H     H_    0.825937 0.630667 0.953129 0.174722
H90   H     H_    0.636074 0.479891 0.499581 0.152391
H91   H     H_    0.751386 0.605585 0.977097 0.180233
H92   H     H_    0.740062 0.553172 0.077712 0.267259
H93   H     H_    0.813464 0.539417 0.988298 0.216871
H94   H     H_    0.814506 0.578627 0.054749 0.259643
H95   H     H_    0.176439 0.370379 0.045023 0.175612
H96   H     H_    0.128284 0.341202 0.020132 0.175381
H97   H     H_    0.168196 0.404339 0.917894 0.265972
H98   H     H_    0.131563 0.435515 0.007044 0.212726
H99   H     H_    0.217096 0.433742 0.942073 0.252423
H100  H     H_    0.698039 0.110341 0.022799 0.174995
H101  H     H_    0.691741 0.376762 0.417989 0.282411
H102  H     H_    0.752499 0.120186 0.047205 0.176708
H103  H     H_    0.830173 0.061194 0.944064 0.259421
H104  H     H_    0.755112 0.030461 0.011311 0.216242
H105  H     H_    0.773725 0.050513 0.922411 0.263773
H106  H     H_    0.356880 0.852039 0.956516 0.177183
H107  H     H_    0.395121 0.803166 0.975085 0.174324
H108  H     H_    0.378685 0.854809 0.078805 0.259500
H109  H     H_    0.421992 0.890428 0.992443 0.220372
H110  H     H_    0.338853 0.903937 0.062184 0.260534
H111  H     H_    0.367870 0.154074 0.981968 0.174687
H112  H     H_    0.648447 0.786626 0.606729 0.197932
H113  H     H_    0.732612 0.437447 0.395070 0.217807
H114  H     H_    0.320020 0.125720 0.956024 0.176809
H115  H     H_    0.277044 0.062514 0.059651 0.251721
H116  H     H_    0.362608 0.059580 0.995484 0.214622
H117  H     H_    0.325897 0.090885 0.084572 0.265713
H118  H     H_    0.748372 0.894780 0.020771 0.179853
H119  H     H_    0.674007 0.870421 0.043239 0.173814
H120  H     H_    0.690168 0.920973 0.937147 0.258480
H121  H     H_    0.688213 0.960945 0.005099 0.215863
H122  H     H_    0.763271 0.946410 0.917861 0.263445
H123  H     H_    0.334156 0.265332 0.302338 0.129076
H124  H     H_    0.714315 0.437796 0.520265 0.257879
H125  H     H_    0.253695 0.287391 0.342498 0.120400
H126  H     H_    0.243545 0.222050 0.267873 0.277017
H127  H     H_    0.309919 0.264708 0.209549 0.195651
H128  H     H_    0.323641 0.200283 0.227884 0.249797
H129  H     H_    0.748484 0.718888 0.658884 0.125087
H130  H     H_    0.667721 0.738869 0.696949 0.128764
H131  H     H_    0.674473 0.807067 0.770019 0.249839
H132  H     H_    0.691426 0.744647 0.790383 0.205800
H133  H     H_    0.755602 0.788894 0.731063 0.279942
H134  H     H_    0.666742 0.266408 0.696969 0.128358
H135  H     H_    0.758936 0.382536 0.464758 0.284929
H136  H     H_    0.747600 0.287270 0.656903 0.121852
H137  H     H_    0.755882 0.221301 0.732590 0.275997
H138  H     H_    0.690866 0.265277 0.789998 0.211330
H139  H     H_    0.675124 0.201233 0.772886 0.247268
H140  H     H_    0.249173 0.717229 0.343218 0.124561
H141  H     H_    0.330676 0.735185 0.304517 0.129577
H142  H     H_    0.327164 0.802475 0.228072 0.246553
H143  H     H_    0.307311 0.740287 0.210687 0.199052
H144  H     H_    0.245235 0.786646 0.267731 0.279642
H145  H     H_    0.836164 0.757049 0.301169 0.131900
H146  H     H_    0.675999 0.375565 0.540213 0.255515
H147  H     H_    0.757316 0.781885 0.338560 0.125117
H148  H     H_    0.743676 0.714790 0.269046 0.275081
H149  H     H_    0.813150 0.753749 0.207564 0.206505
H150  H     H_    0.821921 0.689735 0.232236 0.250519
H151  H     H_    0.245582 0.212996 0.658127 0.124633
H152  H     H_    0.165365 0.235470 0.697736 0.132633
H153  H     H_    0.176040 0.300657 0.771846 0.249190
H154  H     H_    0.189239 0.236260 0.790873 0.198567
H155  H     H_    0.255943 0.278591 0.732330 0.278056
H156  H     H_    0.162480 0.755679 0.700035 0.133516
H157  H     H_    0.399737 0.570236 0.661648 0.117203
H158  H     H_    0.240540 0.782487 0.662303 0.124032
H159  H     H_    0.257343 0.716619 0.730335 0.274161
H160  H     H_    0.186207 0.753552 0.792956 0.201305
H161  H     H_    0.180243 0.689072 0.767133 0.249896
H162  H     H_    0.753640 0.213412 0.342022 0.125830
H163  H     H_    0.834082 0.235134 0.302636 0.132131
H164  H     H_    0.824750 0.300675 0.227852 0.247230
H165  H     H_    0.810402 0.236583 0.209245 0.213400
H166  H     H_    0.744464 0.279645 0.267383 0.276136
H167  H     H_    0.346149 0.516986 0.683593 0.158172
H168  H     H_    0.319710 0.629993 0.667448 0.277330
H169  H     H_    0.265781 0.576532 0.697783 0.222684
H170  H     H_    0.268345 0.565044 0.808769 0.256022
H171  H     H_    0.242512 0.628677 0.805044 0.297511
H172  H     H_    0.647200 0.217040 0.609205 0.196700
H173  H     H_    0.322154 0.619234 0.777996 0.272072
H174  H     H_    0.403917 0.420034 0.473672 0.114874
H175  H     H_    0.361499 0.480878 0.505902 0.153072
H176  H     H_    0.307869 0.376849 0.585629 0.282556
H177  H     H_    0.266308 0.437326 0.610955 0.218182
H178  H     H_    0.281831 0.439256 0.487301 0.257322
H179  H     H_    0.238333 0.383406 0.542091 0.285763
H180  H     H_    0.320849 0.377191 0.464975 0.255566
H181  H     H_    0.605465 0.568947 0.337953 0.119407
H182  H     H_    0.657110 0.515273 0.321153 0.163428
H183  H     H_    0.351831 0.785794 0.392640 0.198324
H184  H     H_    0.683446 0.629114 0.333382 0.274683
H185  H     H_    0.735363 0.575507 0.312762 0.227390
H186  H     H_    0.741884 0.557514 0.197015 0.261455
H187  H     H_    0.768347 0.621628 0.197122 0.271968
H188  H     H_    0.690838 0.612279 0.217404 0.291485
H189  H     H_    0.147323 0.931238 0.397779 0.145887
H190  H     H_    0.167475 0.986733 0.338284 0.175013
H191  H     H_    0.171405 0.873971 0.293341 0.259943
H192  H     H_    0.191819 0.929468 0.234619 0.219070
H193  H     H_    0.278753 0.951197 0.248563 0.261945
H194  H     H_    0.851419 0.713067 0.393572 0.196953
H195  H     H_    0.288264 0.887937 0.210006 0.276305
H196  H     H_    0.258488 0.894644 0.306353 0.295924
H197  H     H_    0.992970 0.082981 0.631189 0.110647
H198  H     H_    0.958495 0.023463 0.682879 0.161266
H199  H     H_    0.890851 0.128610 0.725794 0.244447
H200  H     H_    0.859609 0.069690 0.777996 0.228810
H201  H     H_    0.946973 0.067898 0.794679 0.261178
H202  H     H_    0.902702 0.127237 0.828864 0.301852
H203  H     H_    0.979662 0.126532 0.740662 0.255074
H204  H     H_    0.850928 0.931178 0.610611 0.149034
H205  H     H_    0.147366 0.283420 0.608867 0.196837
H206  H     H_    0.834586 0.987200 0.667983 0.175461
H207  H     H_    0.831708 0.874662 0.713319 0.257543
H208  H     H_    0.815838 0.930482 0.769915 0.228463
H209  H     H_    0.723788 0.953160 0.766347 0.264207
H210  H     H_    0.715794 0.889543 0.803496 0.269784
H211  H     H_    0.739838 0.897025 0.709298 0.292218
H212  H     H_    0.015706 0.086167 0.363638 0.110552
H213  H     H_    0.048576 0.025869 0.313600 0.155408
H214  H     H_    0.123136 0.127526 0.273019 0.254844
H215  H     H_    0.150881 0.068211 0.221535 0.223349
H216  H     H_    0.148376 0.713558 0.606848 0.196520
H217  H     H_    0.067889 0.074172 0.198040 0.261375
H218  H     H_    0.116782 0.131239 0.166448 0.277630
H219  H     H_    0.038020 0.133046 0.252018 0.263045
H220  H     H_    0.678636 0.161463 0.948637 0.178289
H221  H     H_    0.627846 0.215568 0.967765 0.179231
H222  H     H_    0.585070 0.111443 0.048875 0.225002
H223  H     H_    0.534204 0.165771 0.069051 0.237460
H224  H     H_    0.564200 0.162338 0.938523 0.265434
H225  H     H_    0.529048 0.103014 0.988475 0.270673
H226  H     H_    0.613912 0.107011 0.919766 0.270148
H227  H     H_    0.852620 0.283477 0.391131 0.197126
H228  H     H_    0.350755 0.660788 0.024732 0.179074
H229  H     H_    0.354463 0.726472 0.047954 0.175464
H230  H     H_    0.465901 0.660748 0.925150 0.227083
H231  H     H_    0.471240 0.727617 0.941954 0.229349
H232  H     H_    0.435239 0.706240 0.071752 0.266361
H233  H     H_    0.506339 0.671743 0.002370 0.270796
H234  H     H_    0.430787 0.638909 0.054172 0.266287
H235  H     H_    0.348185 0.228774 0.055980 0.177958
H236  H     H_    0.366082 0.296012 0.033917 0.178729
H237  H     H_    0.462552 0.207714 0.956486 0.226057
H238  H     H_    0.483016 0.046791 0.415332 0.164863
H239  H     H_    0.479368 0.275467 0.938122 0.229484
H240  H     H_    0.442053 0.288978 0.070491 0.265042
H241  H     H_    0.506783 0.243771 0.021677 0.272724
H242  H     H_    0.426980 0.220559 0.087356 0.272077
H243  H     H_    0.646637 0.763023 0.947653 0.174686
H244  H     H_    0.645854 0.829886 0.969415 0.180527
H245  H     H_    0.529633 0.758367 0.049691 0.226584
H246  H     H_    0.530028 0.825940 0.067399 0.233078
H247  H     H_    0.567712 0.846282 0.936889 0.267892
H248  H     H_    0.494138 0.810672 0.986500 0.271915
O1    O     O_3   0.500000 0.250030 0.500000 -0.493882
O2    O     O_R   0.112550 0.219620 0.335580 -0.648683
O3    O     O_R   0.112550 0.780380 0.335580 -0.654656
O4    O     O_R   0.887450 0.219620 0.664420 -0.647058
O5    O     O_R   0.594260 0.219670 0.543090 -0.652033
O6    O     O_R   0.405740 0.780330 0.456910 -0.654703
O7    O     O_R   0.405740 0.219670 0.456910 -0.651809
O8    O     O_R   0.594260 0.780330 0.543090 -0.654710
O9    O     O_R   0.094260 0.719670 0.543090 -0.653142
O10   O     O_R   0.905740 0.280330 0.456910 -0.655982
O11   O     O_R   0.905740 0.719670 0.456910 -0.653496
O12   O     O_3   0.500000 0.749970 0.500000 -0.491266
O13   O     O_R   0.094260 0.280330 0.543090 -0.655683
O14   O     O_R   0.508800 0.134220 0.543090 -0.645694
O15   O     O_R   0.491200 0.865780 0.456910 -0.646420
O16   O     O_R   0.491200 0.134220 0.456910 -0.646049
O17   O     O_R   0.508800 0.865780 0.543090 -0.645858
O18   O     O_R   0.008800 0.634220 0.543090 -0.647201
O19   O     O_R   0.991200 0.365780 0.456910 -0.646461
O20   O     O_R   0.991200 0.634220 0.456910 -0.646604
O21   O     O_R   0.008800 0.365780 0.543090 -0.646781
O22   O     O_R   0.448100 0.365830 0.543110 -0.609656
O23   O     O_3   0.000000 0.750030 0.500000 -0.490526
O24   O     O_R   0.551900 0.634170 0.456890 -0.619386
O25   O     O_R   0.551900 0.365830 0.456890 -0.608605
O26   O     O_R   0.448100 0.634170 0.543110 -0.620160
O27   O     O_R   0.948100 0.865830 0.543110 -0.633057
O28   O     O_R   0.051900 0.134170 0.456890 -0.609324
O29   O     O_R   0.051900 0.865830 0.456890 -0.633354
O30   O     O_R   0.948100 0.134170 0.543110 -0.609171
O31   O     O_R   0.637370 0.280400 0.456880 -0.609011
O32   O     O_R   0.362630 0.719600 0.543120 -0.596292
O33   O     O_R   0.362630 0.280400 0.543120 -0.609066
O34   O     O_3   0.000000 0.249970 0.500000 -0.496050
O35   O     O_R   0.637370 0.719600 0.456880 -0.596549
O36   O     O_R   0.137370 0.780400 0.456880 -0.600751
O37   O     O_R   0.862630 0.219600 0.543120 -0.591903
O38   O     O_R   0.862630 0.780400 0.543120 -0.599314
O39   O     O_R   0.137370 0.219600 0.456880 -0.591455
O40   O     O_R   0.448170 0.219660 0.664410 -0.633037
O41   O     O_R   0.551830 0.780340 0.335590 -0.630109
O42   O     O_R   0.551830 0.219660 0.335590 -0.633200
O43   O     O_R   0.448170 0.780340 0.664410 -0.629118
O44   O     O_R   0.948170 0.719660 0.664410 -0.630753
O45   O     O_R   0.387450 0.280380 0.664420 -0.637328
O46   O     O_R   0.051830 0.280340 0.335590 -0.630595
O47   O     O_R   0.051830 0.719660 0.335590 -0.629986
O48   O     O_R   0.948170 0.280340 0.664410 -0.630019
O49   O     O_3   0.615531 0.447759 0.429568 -0.597957
O50   O     O_3   0.384155 0.552103 0.581275 -0.594651
O51   O     O_3   0.384337 0.447893 0.573366 -0.595204
O52   O     O_3   0.615823 0.552261 0.422895 -0.596022
O53   O     O_3   0.085789 0.946947 0.368143 -0.621656
O54   O     O_3   0.917356 0.053352 0.633016 -0.610347
O55   O     O_3   0.917248 0.946699 0.632889 -0.623909
O56   O     O_R   0.612550 0.719620 0.335580 -0.657025
O57   O     O_3   0.086505 0.053251 0.368352 -0.609558
O58   O     O_3   0.638377 0.198008 0.051721 -0.646912
O59   O     O_3   0.369744 0.714690 0.944693 -0.652108
O60   O     O_3   0.373643 0.251836 0.950750 -0.649076
O61   O     O_3   0.628078 0.778747 0.051860 -0.648704
O62   O     O_3   0.129490 0.785311 0.055370 -0.650887
O63   O     O_3   0.862218 0.299837 0.948066 -0.647183
O64   O     O_3   0.871551 0.721434 0.947609 -0.648963
O65   O     O_3   0.123148 0.244010 0.049371 -0.648733
O66   O     O_3   0.261208 0.848163 0.946137 -0.612506
O67   O     O_R   0.612550 0.280380 0.335580 -0.637702
O68   O     O_3   0.806442 0.200550 0.058353 -0.617871
O69   O     O_3   0.792939 0.818542 0.055829 -0.615890
O70   O     O_3   0.232849 0.160503 0.942199 -0.613359
O71   O     O_3   0.694278 0.297191 0.941124 -0.619164
O72   O     O_3   0.238061 0.651878 0.053954 -0.612602
O73   O     O_3   0.264272 0.335571 0.057688 -0.615270
O74   O     O_3   0.706566 0.681603 0.943759 -0.616954
O75   O     O_3   0.200933 0.688233 0.943483 -0.620744
O76   O     O_3   0.720162 0.347725 0.055330 -0.614476
O77   O     O_3   0.744061 0.654104 0.056531 -0.619602
O78   O     O_R   0.387450 0.719620 0.664420 -0.658419
O79   O     O_3   0.225837 0.331673 0.942221 -0.615096
O80   O     O_3   0.780424 0.150315 0.943930 -0.626856
O81   O     O_3   0.298013 0.811574 0.057058 -0.617866
O82   O     O_3   0.270435 0.164584 0.058726 -0.619305
O83   O     O_3   0.756441 0.845477 0.941650 -0.617973
O84   O     O_3   0.261698 0.213763 0.373935 -0.576888
O85   O     O_3   0.739340 0.790528 0.623548 -0.587267
O86   O     O_3   0.738204 0.213877 0.626220 -0.576939
O87   O     O_3   0.261168 0.789046 0.375423 -0.589599
O88   O     O_3   0.760358 0.709302 0.376746 -0.586058
O89   O     O_R   0.887450 0.780380 0.664420 -0.653998
O90   O     O_3   0.238385 0.286546 0.625859 -0.596387
O91   O     O_3   0.239682 0.709549 0.623413 -0.584964
O92   O     O_3   0.761610 0.286707 0.374170 -0.596302
Zn1   Zn    Zn3+2 0.574170 0.293410 0.438410 0.981553
Zn2   Zn    Zn3+2 0.487410 0.793350 0.438420 0.965140
Zn3   Zn    Zn3+2 0.487410 0.206650 0.438420 0.963578
Zn4   Zn    Zn3+2 0.512590 0.793350 0.561580 0.965633
Zn5   Zn    Zn3+2 0.012590 0.706650 0.561580 0.966175
Zn6   Zn    Zn3+2 0.987410 0.293350 0.438420 0.961372
Zn7   Zn    Zn3+2 0.987410 0.706650 0.438420 0.966877
Zn8   Zn    Zn3+2 0.012590 0.293350 0.561580 0.961381
Zn9   Zn    Zn3+2 0.425830 0.706590 0.561590 0.972343
Zn10  Zn    Zn3+2 0.425830 0.293410 0.561590 0.981366
Zn11  Zn    Zn3+2 0.574170 0.706590 0.438410 0.973325
Zn12  Zn    Zn3+2 0.074170 0.793410 0.438410 0.978480
Zn13  Zn    Zn3+2 0.925830 0.206590 0.561590 0.993435
Zn14  Zn    Zn3+2 0.925830 0.793410 0.561590 0.980416
Zn15  Zn    Zn3+2 0.074170 0.206590 0.438410 0.992714
Zn16  Zn    Zn3+2 0.512590 0.206650 0.561580 0.963773

loop_
_geom_bond_atom_site_label_1
_geom_bond_atom_site_label_2
_ccdc_geom_bond_type
C36   H181  S    
C126  C127  S    
C108  H108  S    
C48   H211  S    
C104  H98   S    
C94   H74   S    
C120  H139  S    
C12   C214  S    
C173  O46   A    
C66   H6    S    
C171  C179  A    
C186  O7    A    
C14   C132  S    
C55   H228  S    
C65   O62   S    
C62   H244  S    
C7    O74   S    
C80   H38   S    
C60   H237  S    
C116  H127  S    
C35   C124  S    
C7    C133  S    
C92   H67   S    
C29   H167  S    
C170  C174  A    
C93   H70   S    
C188  O36   A    
C7    C24   S    
C78   H36   S    
C189  O10   A    
C105  H100  S    
C145  H112  S    
C71   H18   S    
C2    C90   S    
C85   H51   S    
C187  O8    A    
C134  C143  S    
C119  H134  S    
C76   H29   S    
C178  H68   S    
C49   H212  S    
O35   Zn11  S    
C176  C177  A    
C182  C194  S    
C87   H58   S    
O9    Zn5   S    
C59   H236  S    
C88   H61   S    
C39   H189  S    
C106  H104  S    
C81   O68   S    
C46   O80   S    
C15   O64   S    
C192  O14   A    
C59   C60   S    
C32   H174  S    
C47   H208  S    
C33   H176  S    
C57   C133  S    
C115  H123  S    
C26   O49   S    
O1    Zn10  S    
C123  H147  S    
C214  O66   S    
O3    Zn12  S    
C145  C166  A    
C45   C47   S    
C201  O49   S    
C150  C159  A    
C82   H44   S    
C101  C137  S    
C110  H115  S    
C67   H10   S    
O12   Zn2   S    
C107  O81   S    
C153  C161  A    
C77   H31   S    
O1    Zn1   S    
C52   O58   S    
C75   C76   S    
O26   Zn9   S    
C37   C38   S    
C197  C211  S    
C216  O69   S    
O28   Zn15  S    
C70   H14   S    
C57   C216  S    
C103  O79   S    
C10   O60   S    
C59   O60   S    
C28   H135  S    
C126  H151  S    
C157  O88   S    
C176  H46   S    
C45   H204  S    
O14   Zn16  S    
C14   C206  S    
C63   H245  S    
C78   H34   S    
C198  O24   A    
C121  H141  S    
C21   C139  T    
C34   H179  S    
C90   C214  S    
O7    Zn3   S    
C179  C193  S    
C194  O20   A    
C122  H144  S    
C27   H101  S    
C60   H239  S    
C61   H241  S    
C120  H137  S    
C97   H82   S    
C72   C73   S    
C129  H160  S    
C9    C90   S    
C93   H72   S    
C10   C68   S    
C110  H117  S    
O8    Zn4   S    
C77   H32   S    
C107  H107  S    
C130  C131  S    
C196  O19   A    
C117  H130  S    
O21   Zn8   S    
C150  C165  A    
C103  H95   S    
C61   H240  S    
C163  C190  S    
C69   C70   S    
C11   C113  S    
C35   C214  S    
C30   H168  S    
C171  H2    S    
C155  O86   S    
C189  O37   A    
C74   H26   S    
C25   C173  S    
C125  H149  S    
C192  O16   A    
C187  O35   A    
C98   C99   S    
C39   O53   S    
C14   O63   S    
C84   H48   S    
C151  O43   A    
C195  O48   A    
O20   Zn7   S    
C100  O77   S    
C89   O72   S    
C177  C182  A    
C52   H220  S    
C208  C213  A    
C82   H42   S    
C124  C139  S    
C83   H47   S    
C170  H238  S    
C16   C134  S    
C128  C129  S    
O10   Zn6   S    
O38   Zn14  S    
C4    C132  S    
C125  H148  S    
C85   C86   S    
O12   Zn4   S    
C5    O72   S    
C133  C142  S    
C162  O89   A    
C184  O3    A    
C48   H210  S    
O1    Zn3   S    
C36   C37   S    
C86   H55   S    
C46   C132  S    
C78   C80   S    
C6    O73   S    
C78   O66   S    
C115  C116  S    
C102  H94   S    
C116  H126  S    
C181  C196  S    
C70   H15   S    
O31   Zn1   S    
C98   H84   S    
C112  O41   A    
C173  O2    A    
C16   O65   S    
C1    O40   A    
C17   C135  T    
C186  O33   A    
C107  C108  S    
C18   C136  T    
C2    O75   S    
C95   H75   S    
C89   C91   S    
C149  C158  A    
O1    Zn16  S    
C29   O50   S    
C19   C137  T    
C50   H214  S    
C194  O18   A    
C66   C67   S    
C131  H166  S    
C111  H118  S    
C203  C211  A    
O4    Zn13  S    
C35   O81   S    
C205  O53   S    
O36   Zn12  S    
C114  H121  S    
O13   Zn8   S    
C33   C34   S    
C32   O51   S    
C128  H156  S    
O78   Zn9   S    
O39   Zn15  S    
C38   H187  S    
C190  O38   A    
C144  C167  A    
C123  H145  S    
C105  O80   S    
C193  O15   A    
C196  O21   A    
C54   H226  S    
C39   C40   S    
C4    O71   S    
C147  H183  S    
C188  O9    A    
O34   Zn15  S    
C87   C88   S    
C150  H216  S    
C5    C9    S    
C29   C30   S    
C87   H56   S    
C191  O39   A    
C175  H35   S    
C83   C84   S    
C31   H173  S    
C190  O11   A    
C84   H50   S    
C46   C215  S    
C197  O22   A    
C118  H133  S    
C209  O57   S    
C64   H248  S    
O27   Zn14  S    
C100  H89   S    
O29   Zn12  S    
C15   C24   S    
C43   H200  S    
O34   Zn8   S    
C130  H162  S    
C198  O26   A    
C91   H66   S    
C83   H45   S    
C2    C5    S    
C145  C154  A    
C69   H12   S    
C103  C104  S    
C111  O83   S    
C52   C53   S    
C132  C141  S    
C36   H182  S    
C119  H136  S    
C162  O44   A    
C64   H3    S    
O45   Zn10  S    
C199  C213  S    
C86   H53   S    
C28   H146  S    
C66   H7    S    
C172  H13   S    
O67   Zn1   S    
C22   C195  S    
C51   H218  S    
C102  H92   S    
C146  H172  S    
C116  H128  S    
C53   H223  S    
C73   H22   S    
O37   Zn13  S    
C117  C118  S    
C206  O76   S    
C159  O91   S    
O40   Zn16  S    
C56   C58   S    
C91   H65   S    
C148  C157  A    
C71   H17   S    
C198  C210  S    
C8    C46   S    
C45   O55   S    
C215  O68   S    
C63   C64   S    
O22   Zn10  S    
C195  O4    A    
C131  H164  S    
C8    O58   S    
C49   C50   S    
C146  C169  A    
C113  C216  S    
C59   H235  S    
C29   H157  S    
C105  H102  S    
C201  C211  A    
C3    C16   S    
C40   H191  S    
O6    Zn2   S    
C21   C184  S    
C55   C56   S    
C122  H143  S    
O16   Zn3   S    
C199  O27   A    
C131  H165  S    
C47   H207  S    
C73   C74   S    
C3    C68   S    
C94   H73   S    
C65   H5    S    
C177  H57   S    
C5    C124  S    
C26   C27   S    
O34   Zn13  S    
C105  C106  S    
C88   H59   S    
C114  H120  S    
O12   Zn9   S    
C58   H232  S    
C30   C31   S    
C121  O87   S    
C129  H161  S    
C123  C125  S    
C42   H197  S    
C44   H201  S    
C67   H9    S    
O42   Zn3   S    
C151  O78   A    
C89   H63   S    
C209  C212  A    
C127  H155  S    
C128  O91   S    
C20   C138  T    
C118  H131  S    
C75   H28   S    
C20   C112  S    
C100  H91   S    
C38   H186  S    
C146  C155  A    
O34   Zn6   S    
C158  C167  A    
C8    C79   S    
C160  C169  A    
C70   C71   S    
C58   H233  S    
C4    C8    S    
C23   C162  S    
C126  H152  S    
C172  C180  A    
C160  O92   S    
C205  C213  A    
O17   Zn4   S    
O25   Zn1   S    
C104  H97   S    
C85   H52   S    
C121  H140  S    
O56   Zn11  S    
C34   H180  S    
C13   O79   S    
C175  C178  A    
O23   Zn7   S    
C176  C181  A    
C62   H243  S    
C1    C19   S    
C165  C188  S    
C80   H37   S    
C207  C208  A    
C120  H138  S    
C97   H81   S    
C110  H116  S    
C202  C203  A    
C33   H177  S    
C93   H71   S    
C85   O70   S    
C37   H185  S    
C53   C54   S    
C167  C186  S    
C63   H246  S    
C166  C187  S    
C60   C61   S    
C183  O5    A    
C117  H129  S    
C62   C63   S    
C111  H119  S    
O33   Zn10  S    
C42   O54   S    
C49   H213  S    
C50   C51   S    
C147  C156  A    
C9    O59   S    
C39   H190  S    
C121  C122  S    
C99   H86   S    
C106  H103  S    
O48   Zn8   S    
C112  O56   A    
C106  H105  S    
C43   H199  S    
C129  H159  S    
C122  H142  S    
C98   O76   S    
C185  O32   A    
C149  C161  A    
C42   C43   S    
C18   C151  S    
C185  O6    A    
C72   O64   S    
C184  O47   A    
C82   H43   S    
C77   H33   S    
C175  C182  A    
C10   C101  S    
C15   C216  S    
O12   Zn11  S    
O11   Zn7   S    
C6    C10   S    
C119  C120  S    
O32   Zn9   S    
C44   H203  S    
C79   C135  S    
C45   H206  S    
C191  O13   A    
C127  H153  S    
C72   H19   S    
C41   H196  S    
C32   C33   S    
C68   C134  S    
C56   H231  S    
C144  H1    S    
C27   H113  S    
C109  C110  S    
C75   O65   S    
O23   Zn14  S    
C156  C165  A    
C152  H227  S    
C51   H219  S    
C92   C93   S    
C203  O51   S    
C111  C114  S    
C54   H224  S    
C67   H8    S    
C96   H78   S    
C109  H111  S    
C178  C181  A    
C147  C168  A    
C183  O31   A    
C72   H20   S    
C92   H69   S    
C149  H205  S    
C115  H125  S    
O19   Zn6   S    
C108  H109  S    
C9    C35   S    
C104  H99   S    
C197  O25   A    
C113  C138  S    
C3    O70   S    
C41   H195  S    
C11   C57   S    
C34   H178  S    
C50   H215  S    
O23   Zn5   S    
C171  C172  A    
C152  C160  A    
O30   Zn13  S    
C92   O73   S    
C80   H39   S    
C61   H242  S    
C69   O63   S    
C97   H83   S    
C43   C44   S    
C2    C12   S    
C114  H122  S    
C81   C82   S    
C87   O71   S    
O18   Zn5   S    
C7    C11   S    
C38   H188  S    
O44   Zn5   S    
C200  C212  S    
C148  H194  S    
C95   H77   S    
O89   Zn14  S    
C174  H24   S    
C140  O42   A    
C103  H96   S    
C144  C153  A    
C159  C168  A    
C74   H23   S    
C207  O54   S    
C98   H85   S    
C24   O77   S    
C169  C183  S    
C156  O87   S    
C74   H25   S    
C125  H150  S    
C83   O69   S    
C14   C215  S    
C32   H175  S    
C71   H16   S    
C23   C142  T    
C126  O90   S    
C30   H169  S    
C96   O75   S    
C109  O82   S    
O47   Zn7   S    
C79   C215  S    
C193  O17   A    
C24   C113  S    
C130  H163  S    
C204  O52   S    
C25   C143  T    
C161  C191  S    
C202  C210  A    
C69   H11   S    
C109  H114  S    
C36   O52   S    
C200  O30   A    
C62   O61   S    
C48   H209  S    
C47   C48   S    
C200  O28   A    
C154  C163  A    
C76   C77   S    
C86   H54   S    
C180  C192  S    
C115  O84   S    
C51   H217  S    
C102  H93   S    
O23   Zn12  S    
C170  C180  A    
C96   H80   S    
C154  O85   S    
C73   H21   S    
C37   H184  S    
C68   O82   S    
C28   H124  S    
C90   C136  S    
O41   Zn2   S    
C12   C124  S    
C205  C209  A    
C128  H158  S    
C96   C97   S    
C100  C102  S    
O43   Zn4   S    
C94   C95   S    
C95   H76   S    
C208  O55   S    
C130  O92   S    
C152  C164  A    
C127  H154  S    
C26   H90   S    
C55   H229  S    
C140  O67   A    
C40   C41   S    
C49   O57   S    
C202  O50   S    
C207  C212  A    
C201  C204  A    
C26   H79   S    
C13   C16   S    
C153  O84   S    
C13   C101  S    
C164  C189  S    
C99   H87   S    
C40   H192  S    
C158  O90   S    
C31   H171  S    
C168  C185  S    
C148  C163  A    
O15   Zn2   S    
C107  H106  S    
C76   H30   S    
C12   O62   S    
C54   H225  S    
C157  C166  A    
C65   H4    S    
C4    C206  S    
C15   C133  S    
C155  C164  A    
C31   H170  S    
C79   C206  S    
O2    Zn15  S    
C81   H41   S    
C57   O83   S    
C94   O74   S    
O5    Zn16  S    
C88   H60   S    
C6    C134  S    
C6    C13   S    
C108  H110  S    
C11   O61   S    
C119  O86   S    
C3    C101  S    
C42   H198  S    
C44   H202  S    
C123  O88   S    
C199  O29   A    
C22   C141  T    
C89   H62   S    
C1    O45   A    
C84   H49   S    
O46   Zn6   S    
C17   C140  S    
C41   H193  S    
C81   H40   S    
C118  H132  S    
C91   H64   S    
C64   H247  S    
C56   H230  S    
C75   H27   S    
C99   H88   S    
O24   Zn11  S    
C55   O59   S    
C52   H221  S    
C65   C66   S    
C204  C210  A    
C27   C28   S    
C53   H222  S    
C174  C179  A    
C58   H234  S    
C117  O85   S    
