data_mof_unit_22102.cif
_audit_creation_date              2012-10-26T18:32:03-0400
_audit_creation_method            fapswitch 2.2
_symmetry_space_group_name_H-M    P1
_symmetry_Int_Tables_number       1
_space_group_crystal_system       triclinic
_cell_length_a                    12.345061
_cell_length_b                    13.324104
_cell_length_c                    14.340266
_cell_angle_alpha                 93.186029
_cell_angle_beta                  107.707049
_cell_angle_gamma                 117.019161
_cell_volume                      1948.91515492

loop_
_atom_site_label
_atom_site_type_symbol
_atom_type_description
_atom_site_fract_x
_atom_site_fract_y
_atom_site_fract_z
_atom_type_partial_charge
C1    C     C_R   0.650677 0.713824 0.508152 0.526168
C2    C     C_R   0.141393 0.400731 0.002127 0.004969
C3    C     C_R   0.114171 0.448596 0.076760 0.018276
C4    C     C_R   0.618636 0.516819 0.686371 0.543289
C5    C     C_R   0.243664 0.375532 0.029316 -0.114110
C6    C     C_R   0.324092 0.401615 0.130336 0.265945
C7    C     C_R   0.198992 0.479059 0.177271 -0.189102
C8    C     C_R   0.145600 0.968289 0.366920 -0.128746
C9    C     C_R   0.248699 0.163369 0.463033 0.000314
C10   C     C_R   0.726697 0.920228 0.568498 -0.127169
C11   C     C_R   0.814022 0.036877 0.584135 -0.138379
C12   C     C_R   0.838774 0.486720 0.917322 0.031064
C13   C     C_R   0.914927 0.071716 0.548030 -0.114033
C14   C     C_R   0.928240 0.989592 0.492159 0.023141
C15   C     C_R   0.829342 0.871962 0.465812 -0.011428
C16   C     C_R   0.345232 0.285637 0.485109 0.551426
C17   C     C_R   0.036118 0.020625 0.461238 0.002055
C18   C     C_R   0.037046 0.937070 0.395642 0.057729
C19   C     C_R   0.929612 0.824195 0.360334 0.123750
C20   C     C_R   0.826848 0.793584 0.393820 -0.090161
C21   C     C_R   0.145343 0.132077 0.496312 -0.134157
C22   C     C_R   0.250074 0.080813 0.399811 -0.138835
C23   C     C_R   0.799884 0.519292 0.991746 0.050329
C24   C     C_R   0.734660 0.836475 0.511487 -0.002109
C25   C     C_R   0.253751 0.684468 0.660859 -0.149116
C26   C     C_R   0.654801 0.342612 0.364275 0.052813
C27   C     C_R   0.732474 0.307344 0.335400 -0.167978
C28   C     C_R   0.378472 0.478904 0.313042 0.559295
C29   C     C_R   0.867631 0.365234 0.387433 -0.151023
C30   C     C_R   0.927487 0.460249 0.469375 -0.018591
C31   C     C_R   0.843512 0.493394 0.496181 0.176599
C32   C     C_R   0.067105 0.524788 0.524489 -0.023068
C33   C     C_R   0.118647 0.619334 0.605738 0.028962
C34   C     C_R   0.936561 0.453491 0.944782 0.033491
C35   C     C_R   0.035436 0.649331 0.631208 -0.183107
C36   C     C_R   0.901489 0.588357 0.577502 -0.106393
C37   C     C_R   0.159165 0.501192 0.502397 0.034639
C38   C     C_R   0.338443 0.656676 0.635502 0.038894
C39   C     C_R   0.682080 0.521161 0.792195 -0.002528
C40   C     C_R   0.301554 0.454343 0.205064 0.003327
C41   C     C_R   0.703642 0.552250 0.965945 -0.141362
C42   C     C_R   0.643794 0.551776 0.866507 -0.137359
C43   C     C_R   0.780695 0.491481 0.818290 -0.137788
C44   C     C_3   0.992802 0.678933 0.341886 -0.304752
C45   C     C_R   0.004919 0.466930 0.048349 0.044917
C46   C     C_3   0.521401 0.434844 0.129011 -0.118013
C47   C     C_R   0.959190 0.494537 0.119754 -0.140542
C48   C     C_R   0.857137 0.518552 0.091188 -0.146646
C49   C     C_R   0.966501 0.405183 0.872377 -0.134361
C50   C     C_R   0.065595 0.377454 0.900958 -0.132346
Cu1   Cu    Cu3+1 0.416420 0.526630 0.522910 0.921168
Cu2   Cu    Cu3+1 0.583580 0.473370 0.477090 0.935824
H1    H     H_    0.822989 0.537615 0.147171 0.118988
H2    H     H_    0.442709 0.706705 0.677952 0.117596
H3    H     H_    0.188398 0.524536 0.235399 0.128077
H4    H     H_    0.074494 0.721831 0.693179 0.115151
H5    H     H_    0.293709 0.756810 0.723157 0.095029
H6    H     H_    0.128578 0.431165 0.441719 0.119183
H7    H     H_    0.550042 0.296633 0.323619 0.160994
H8    H     H_    0.922844 0.334185 0.361812 0.103542
H9    H     H_    0.687634 0.234654 0.272414 0.111853
H10   H     H_    0.847106 0.619445 0.602510 0.185051
H11   H     H_    0.084458 0.339340 0.843208 0.107425
H12   H     H_    0.259833 0.333566 0.972128 0.113162
H13   H     H_    0.675256 0.579115 0.022847 0.094385
H14   H     H_    0.568460 0.576069 0.848017 0.127262
H15   H     H_    0.812516 0.474578 0.760208 0.125308
H16   H     H_    0.997314 0.493988 0.197986 0.099767
H17   H     H_    0.911941 0.383556 0.792713 0.105572
H18   H     H_    0.939487 0.760060 0.229316 0.247804
H19   H     H_    0.074239 0.695108 0.315997 0.127076
H20   H     H_    0.923314 0.584751 0.321363 0.157631
H21   H     H_    0.034124 0.708000 0.425232 0.173401
H22   H     H_    0.599659 0.412603 0.159516 0.140454
H23   H     H_    0.329664 0.104030 0.373105 0.129192
H24   H     H_    0.563615 0.528500 0.161358 0.118568
H25   H     H_    0.492023 0.417746 0.045941 0.109163
H26   H     H_    0.149995 0.907061 0.317561 0.122805
H27   H     H_    0.153167 0.196995 0.550195 0.121068
H28   H     H_    0.653944 0.895548 0.602727 0.127959
H29   H     H_    0.978730 0.163771 0.563116 0.103058
H30   H     H_    0.805757 0.100774 0.627051 0.116877
H31   H     H_    0.743626 0.707783 0.359959 0.165349
N1    N     N_R   0.290690 0.566960 0.557640 -0.232330
N2    N     N_R   0.709100 0.433710 0.442970 -0.237228
N3    N     N_2   0.924651 0.737684 0.293872 -0.546756
O1    O     O_R   0.545970 0.684450 0.528810 -0.502671
O2    O     O_R   0.687130 0.639470 0.490120 -0.533214
O3    O     O_R   0.519670 0.535100 0.660030 -0.502013
O4    O     O_R   0.660830 0.490120 0.621340 -0.525344
O5    O     O_R   0.312870 0.360530 0.509880 -0.509491
O6    O     O_R   0.454030 0.315550 0.471190 -0.504662
O7    O     O_R   0.339170 0.509880 0.378660 -0.520457
O8    O     O_R   0.480330 0.464900 0.339970 -0.458689
O9    O     O_3   0.415441 0.364953 0.156667 -0.561076

loop_
_geom_bond_atom_site_label_1
_geom_bond_atom_site_label_2
_ccdc_geom_bond_type
C1    O1    A    
C31   N2    A    
C27   C29   A    
C41   C42   A    
Cu2   O4    S    
C19   C20   A    
C7    H3    S    
C19   N3    S    
C46   H24   S    
C12   C23   A    
C26   C27   A    
Cu2   N2    S    
C9    C16   S    
C12   C43   A    
C3    C7    A    
C30   C31   A    
C44   N3    S    
C9    C22   A    
C28   C40   S    
C13   H29   S    
C44   H19   S    
C28   O8    A    
C18   C19   A    
C27   H9    S    
Cu1   O5    S    
C46   O9    S    
C35   C36   A    
C8    C22   A    
C7    C40   A    
C29   H8    S    
C37   N1    A    
Cu2   O8    S    
C2    C50   A    
C26   H7    S    
C37   H6    S    
C1    O2    A    
C49   H17   S    
C13   C14   A    
C8    H26   S    
C50   H11   S    
C14   C17   A    
C15   C20   A    
C25   H5    S    
C22   H23   S    
C36   H10   S    
C39   C42   A    
C4    O4    A    
C45   C47   A    
C11   H30   S    
C48   H1    S    
Cu1   Cu2   S    
Cu2   O2    S    
Cu1   O1    S    
C10   H28   S    
C39   C43   A    
C10   C24   A    
C3    C45   A    
C8    C18   A    
C5    H12   S    
C28   O7    A    
C29   C30   A    
C25   C38   A    
C47   C48   A    
C38   H2    S    
C4    C39   S    
C21   H27   S    
C17   C18   A    
C6    O9    S    
C34   C45   A    
C32   C37   A    
Cu1   O7    S    
C15   C24   A    
C16   O6    A    
C6    C40   A    
Cu2   O6    S    
C2    C5    A    
C12   C34   A    
H18   N3    S    
C47   H16   S    
C46   H22   S    
C4    O3    A    
C34   C49   A    
C23   C48   A    
C38   N1    A    
C35   H4    S    
C31   C36   A    
C46   H25   S    
C41   H13   S    
C23   C41   A    
C32   C33   A    
C2    C3    A    
C1    C24   S    
Cu1   O3    S    
C30   C32   A    
C11   C13   A    
C9    C21   A    
C5    C6    A    
C26   N2    A    
C33   C35   A    
C44   H20   S    
C44   H21   S    
C17   C21   A    
C10   C11   A    
C16   O5    A    
C43   H15   S    
C49   C50   A    
C20   H31   S    
C42   H14   S    
C14   C15   A    
Cu1   N1    S    
C25   C33   A    
