data_mof_unit_24906.cif
_audit_creation_date              2012-12-10T17:06:13-0500
_audit_creation_method            fapswitch 2.2
_symmetry_space_group_name_H-M    P1
_symmetry_Int_Tables_number       1
_space_group_crystal_system       triclinic
_cell_length_a                    10.647526
_cell_length_b                    10.848885
_cell_length_c                    9.796292
_cell_angle_alpha                 109.790038
_cell_angle_beta                  98.572957
_cell_angle_gamma                 90.703714
_cell_volume                      1050.47939309

loop_
_atom_site_label
_atom_site_type_symbol
_atom_type_description
_atom_site_fract_x
_atom_site_fract_y
_atom_site_fract_z
_atom_type_partial_charge
C1    C     C_R   0.485953 0.253292 0.442865 0.894962
C2    C     C_R   0.504294 0.746865 0.557311 0.801502
C3    C     C_R   0.259381 0.497806 0.500191 0.884162
C4    C     C_R   0.740423 0.499534 0.498966 0.833350
C5    C     C_3   0.059916 0.527825 0.638275 -0.177676
C6    C     C_3   0.938973 0.463803 0.358352 -0.196768
C7    C     C_3   0.962604 0.408081 0.556838 -0.186989
C8    C     C_3   0.036242 0.583006 0.439297 -0.219863
C9    C     C_3   0.876613 0.497482 0.497000 -0.066117
C10   C     C_3   0.122649 0.494460 0.499565 -0.065893
C11   C     C_3   0.972117 0.615199 0.576855 -0.000585
C12   C     C_3   0.027056 0.376235 0.418984 0.026291
C13   C     C_2   0.470675 0.111693 0.416866 -0.248663
C14   C     C_2   0.500822 0.888620 0.582334 -0.233936
C15   C     C_2   0.406905 0.068479 0.505668 -0.080424
C16   C     C_2   0.408293 0.930959 0.499099 -0.039783
C17   C     C_2   0.510421 0.511258 0.081051 -0.006475
C18   C     C_2   0.488952 0.489655 0.919346 -0.051433
Cu1   Cu    Cu3+1 0.522260 0.521810 0.644920 1.022967
Cu2   Cu    Cu3+1 0.477740 0.478190 0.355080 1.033194
H1    H     H_    0.929920 0.335787 0.603785 0.172153
H2    H     H_    0.066660 0.653710 0.389628 0.197036
H3    H     H_    0.111025 0.554412 0.752795 0.182238
H4    H     H_    0.887803 0.437361 0.243870 0.169565
H5    H     H_    0.415163 0.417276 0.847522 0.180490
H6    H     H_    0.583610 0.584367 0.153279 0.167998
H7    H     H_    0.624763 0.623384 0.933468 0.211765
H8    H     H_    0.375812 0.376054 0.066316 0.205856
N1    N     N_2   0.444270 0.445410 0.137360 -0.266559
N2    N     N_2   0.555730 0.554590 0.862640 -0.281180
O1    O     O_R   0.511880 0.332340 0.577400 -0.558703
O2    O     O_R   0.488120 0.667660 0.422600 -0.536812
O3    O     O_R   0.474280 0.295500 0.332650 -0.536502
O4    O     O_R   0.525720 0.704500 0.667350 -0.534896
O5    O     O_R   0.335640 0.518390 0.622350 -0.573211
O6    O     O_R   0.664360 0.481610 0.377650 -0.577354
O7    O     O_R   0.298050 0.481550 0.377590 -0.562793
O8    O     O_R   0.701950 0.518450 0.622410 -0.576237
C19   C     C_2   0.941030 0.751492 0.660102 0.899666
O9    O     O_2   0.978237 0.799634 0.792411 -0.550567
O10   O     O_R   0.872106 0.823889 0.584484 -0.743543
H9    H     H_    0.863925 0.917401 0.649972 0.357581
C20   C     C_2   0.053063 0.240515 0.326398 0.893232
O11   O     O_2   0.966764 0.154232 0.280439 -0.528610
O12   O     O_R   0.174410 0.213479 0.290947 -0.750633
H10   H     H_    0.179771 0.118273 0.228592 0.346131
C21   C     C_2   0.291744 0.847811 0.413081 0.857982
O13   O     O_2   0.189865 0.873216 0.455958 -0.592028
O14   O     O_R   0.296402 0.747184 0.279831 -0.688105
H11   H     H_    0.209936 0.700556 0.230553 0.321909
C22   C     C_2   0.330413 0.153152 0.612950 0.919359
O15   O     O_2   0.274348 0.242843 0.588370 -0.621505
O16   O     O_R   0.317918 0.125161 0.739747 -0.736002
H12   H     H_    0.262572 0.187667 0.803297 0.323351
C23   C     C_2   0.601294 0.979294 0.697657 0.888192
O17   O     O_2   0.663648 0.940049 0.788286 -0.543829
O18   O     O_R   0.626018 0.108158 0.703759 -0.762278
H13   H     H_    0.696236 0.157952 0.787219 0.340490
C24   C     C_2   0.536702 0.022750 0.300040 0.880668
O19   O     O_2   0.619510 0.069129 0.253839 -0.536832
O20   O     O_R   0.504462 0.887720 0.240989 -0.718818
H14   H     H_    0.556465 0.839848 0.162731 0.339508

loop_
_geom_bond_atom_site_label_1
_geom_bond_atom_site_label_2
_ccdc_geom_bond_type
C8    H2    S    
C20   O11   D    
C4    O6    A    
C5    C11   S    
C13   C24   S    
Cu1   O8    S    
C15   C22   S    
C19   O10   S    
C17   N1    D    
O10   H9    S    
Cu1   Cu2   S    
C5    H3    S    
C3    O5    A    
C23   O17   D    
C6    H4    S    
Cu1   O1    S    
C2    O4    A    
C6    C9    S    
C13   C15   D    
C14   C23   S    
C1    O3    A    
C24   O19   D    
C21   O14   S    
C3    C10   S    
Cu1   O5    S    
O16   H12   S    
H7    N2    S    
C11   C19   S    
Cu2   O7    S    
C9    C11   S    
O18   H13   S    
O20   H14   S    
C18   H5    S    
C10   C12   S    
C8    C11   S    
C18   N2    D    
Cu2   O3    S    
C16   C21   S    
C2    O2    A    
H8    N1    S    
C4    O8    A    
C17   C18   S    
C12   C20   S    
C5    C7    S    
Cu2   N1    S    
C23   O18   S    
C1    O1    A    
C6    C12   S    
C7    C12   S    
C2    C14   S    
C14   C16   D    
C24   O20   S    
C1    C13   S    
C17   H6    S    
C15   C16   S    
Cu2   O6    S    
C5    C10   S    
C22   O15   D    
C3    O7    A    
C8    C10   S    
O14   H11   S    
Cu2   O2    S    
C7    H1    S    
C19   O9    D    
C7    C9    S    
C6    C8    S    
C4    C9    S    
O12   H10   S    
Cu1   N2    S    
C20   O12   S    
C21   O13   D    
C22   O16   S    
Cu1   O4    S    
