data_mof_unit_37683.cif
_audit_creation_date              2012-12-11T14:08:23-0500
_audit_creation_method            fapswitch 2.2
_symmetry_space_group_name_H-M    P1
_symmetry_Int_Tables_number       1
_space_group_crystal_system       triclinic
_cell_length_a                    27.646185
_cell_length_b                    7.349924
_cell_length_c                    17.293203
_cell_angle_alpha                 89.989204
_cell_angle_beta                  101.154193
_cell_angle_gamma                 91.166791
_cell_volume                      3446.81539123

loop_
_atom_site_label
_atom_site_type_symbol
_atom_type_description
_atom_site_fract_x
_atom_site_fract_y
_atom_site_fract_z
_atom_type_partial_charge
O1    O     O_R   0.000700 0.436510 0.857920 -0.540209
O2    O     O_R   0.999300 0.563490 0.142080 -0.523817
O3    O     O_R   0.999300 0.936510 0.642080 -0.529294
O4    O     O_R   0.000700 0.063490 0.357920 -0.524666
O5    O     O_R   0.930080 0.766380 0.721890 -0.540273
O6    O     O_R   0.069920 0.233620 0.278110 -0.523692
O7    O     O_R   0.069920 0.266380 0.778110 -0.548677
O8    O     O_R   0.930080 0.733620 0.221890 -0.528289
C1    C     C_R   0.910971 0.596320 0.707009 0.760920
C2    C     C_R   0.089407 0.404161 0.290457 0.771576
C3    C     C_R   0.089794 0.099365 0.789421 0.733468
C4    C     C_R   0.910787 0.900635 0.209853 0.778845
O9    O     O_R   0.996180 0.766230 0.862310 -0.532639
O10   O     O_R   0.003820 0.233770 0.137690 -0.544791
O11   O     O_R   0.003820 0.266230 0.637690 -0.519142
O12   O     O_R   0.996180 0.733770 0.362310 -0.540963
O13   O     O_R   0.065870 0.936460 0.783500 -0.518664
O14   O     O_R   0.934130 0.063540 0.216500 -0.537151
O15   O     O_R   0.934130 0.436460 0.716500 -0.520752
O16   O     O_R   0.065870 0.563540 0.283500 -0.542587
C5    C     C_R   0.998520 0.596283 0.894098 0.761391
C6    C     C_R   0.001524 0.403746 0.105919 0.747268
C7    C     C_R   0.001591 0.096349 0.605876 0.742484
C8    C     C_R   0.998890 0.903784 0.394210 0.751667
O17   O     O_3   0.022790 0.603020 0.723980 -0.371275
O18   O     O_3   0.977210 0.396980 0.276020 -0.382195
O19   O     O_3   0.977210 0.103020 0.776020 -0.388443
O20   O     O_3   0.022790 0.896980 0.223980 -0.385883
V1    V     V_3+5 0.995770 0.877900 0.754830 1.487512
V2    V     V_3+5 0.004230 0.122100 0.245170 1.477556
V3    V     V_3+5 0.004230 0.377900 0.745170 1.490102
V4    V     V_3+5 0.995770 0.622100 0.254830 1.478813
C9    C     C_2   0.001175 0.081782 0.519485 -0.288528
C10   C     C_2   0.000320 0.919153 0.480772 -0.323806
C11   C     C_2   0.998420 0.581134 0.980329 -0.274559
C12   C     C_2   0.001688 0.418965 0.019715 -0.323004
H1    H     H_    0.000895 0.208236 0.486934 0.178151
H2    H     H_    0.001588 0.793189 0.513529 0.195198
H3    H     H_    0.995756 0.706856 0.012065 0.171652
H4    H     H_    0.004357 0.293251 0.987980 0.154855
C13   C     C_R   0.686218 0.071291 0.070323 0.631586
C14   C     C_R   0.311923 0.112063 0.960477 0.633482
C15   C     C_R   0.323291 0.607707 0.400390 0.670167
C16   C     C_R   0.693220 0.522093 0.444836 0.616929
O21   O     O_2   0.720564 0.122606 0.028485 -0.511851
O22   O     O_2   0.274757 0.067805 0.997483 -0.538200
O23   O     O_2   0.295562 0.642888 0.454576 -0.512808
O24   O     O_2   0.719004 0.408510 0.409673 -0.524819
N1    N     N_R   0.700881 0.997660 0.143905 -0.532434
N2    N     N_R   0.300902 0.151112 0.881279 -0.519338
N3    N     N_R   0.300280 0.544514 0.327676 -0.515341
N4    N     N_R   0.713946 0.597096 0.516938 -0.537228
C17   C     C_R   0.667196 0.980461 0.192401 0.694324
C18   C     C_R   0.337296 0.213036 0.843749 0.715503
C19   C     C_R   0.327461 0.524377 0.270096 0.634356
C20   C     C_R   0.685300 0.709681 0.552428 0.635214
C21   C     C_R   0.782894 0.017479 0.235910 0.394061
C22   C     C_R   0.222729 0.267362 0.801630 0.444739
C23   C     C_R   0.212660 0.577336 0.256196 0.428956
C24   C     C_R   0.772158 0.507185 0.639101 0.504217
C25   C     C_R   0.834239 0.009984 0.243969 -0.329067
C26   C     C_R   0.170788 0.254287 0.787345 -0.346363
C27   C     C_R   0.162272 0.554730 0.256559 -0.348185
C28   C     C_R   0.820321 0.516345 0.686927 -0.348846
C29   C     C_R   0.826063 0.810425 0.130067 -0.102399
C30   C     C_R   0.173503 0.943550 0.835640 -0.110418
C31   C     C_R   0.178436 0.321264 0.356443 -0.108459
C32   C     C_R   0.854597 0.621925 0.575993 -0.083561
C33   C     C_R   0.773826 0.826852 0.117783 -0.110745
C34   C     C_R   0.225830 0.952285 0.846012 -0.134611
C35   C     C_R   0.230322 0.354205 0.361992 -0.117936
C36   C     C_R   0.807867 0.596829 0.526044 -0.174610
C37   C     C_R   0.752105 0.941946 0.167921 0.250462
C38   C     C_R   0.250212 0.121650 0.839094 0.294519
C39   C     C_R   0.247783 0.490733 0.314267 0.264745
C40   C     C_R   0.764785 0.559442 0.558629 0.246722
C41   C     C_R   0.601307 0.079371 0.088830 -0.082987
C42   C     C_R   0.398893 0.170172 0.963409 -0.123575
C43   C     C_R   0.404222 0.596380 0.361425 -0.114137
C44   C     C_R   0.612817 0.638614 0.450830 -0.110910
C45   C     C_R   0.635565 0.092355 0.038153 -0.081092
C46   C     C_R   0.361464 0.114140 0.002746 -0.091649
C47   C     C_R   0.375612 0.632981 0.419262 -0.107035
C48   C     C_R   0.643688 0.555552 0.407615 -0.106199
C49   C     C_R   0.618316 0.117960 0.956818 0.349126
C50   C     C_R   0.374426 0.058227 0.082106 0.296471
C51   C     C_R   0.400027 0.681451 0.495810 0.325321
C52   C     C_R   0.626882 0.534105 0.325731 0.374922
C53   C     C_R   0.618450 0.038468 0.167844 -0.083882
C54   C     C_R   0.386038 0.234958 0.885440 -0.066530
C55   C     C_R   0.379514 0.541313 0.286913 -0.067436
C56   C     C_R   0.634169 0.725813 0.522021 -0.048780
C57   C     C_R   0.856223 0.908552 0.192400 -0.103217
C58   C     C_R   0.145376 0.097687 0.806347 -0.104880
C59   C     C_R   0.144282 0.425883 0.303611 -0.097775
C60   C     C_R   0.860674 0.584931 0.657217 -0.090010
C61   C     C_R   0.485111 0.207932 0.955925 0.054041
C62   C     C_R   0.516681 0.111804 0.114875 0.042409
C63   C     C_R   0.531319 0.716108 0.469849 0.061771
C64   C     C_R   0.486133 0.577762 0.318613 0.066421
C65   C     C_R   0.463883 0.108806 0.081265 0.011255
C66   C     C_R   0.534193 0.151427 0.980947 0.010823
C67   C     C_R   0.540390 0.589777 0.342210 -0.081577
C68   C     C_R   0.480190 0.673024 0.454562 -0.004261
C69   C     C_R   0.449315 0.160118 0.000556 -0.050433
C70   C     C_R   0.550525 0.112887 0.061497 -0.051077
C71   C     C_R   0.561193 0.643863 0.421086 -0.047162
C72   C     C_R   0.457036 0.615382 0.377965 -0.048831
C73   C     C_R   0.471739 0.323682 0.890423 0.445974
C74   C     C_R   0.538110 0.117430 0.197636 0.539889
C75   C     C_R   0.552994 0.840938 0.529868 0.454206
C76   C     C_R   0.458480 0.523639 0.241409 0.539983
C77   C     C_R   0.421982 0.324562 0.851671 -0.228396
C78   C     C_R   0.588220 0.070392 0.222077 -0.364096
C79   C     C_R   0.604625 0.838333 0.557896 -0.247454
C80   C     C_R   0.406684 0.500738 0.229767 -0.287791
O25   O     O_2   0.327072 0.247518 0.765919 -0.527439
O26   O     O_2   0.680093 0.908392 0.264297 -0.511283
O27   O     O_2   0.705981 0.805757 0.617343 -0.537621
O28   O     O_2   0.304474 0.489417 0.196018 -0.560538
C81   C     C_R   0.567497 0.133342 0.927736 -0.017617
C82   C     C_R   0.424594 0.055304 0.121285 -0.085232
C83   C     C_R   0.451712 0.680411 0.515066 -0.037426
C84   C     C_R   0.576202 0.567896 0.292306 -0.084099
H5    H     H_    0.149657 0.369252 0.762782 0.147437
H6    H     H_    0.857369 0.078683 0.293616 0.153130
H7    H     H_    0.826713 0.471891 0.747637 0.109648
H8    H     H_    0.136292 0.634565 0.216077 0.144751
H9    H     H_    0.410793 0.394509 0.796325 0.151268
H10   H     H_    0.605098 0.065641 0.283832 0.134755
H11   H     H_    0.622136 0.922950 0.606858 0.146469
H12   H     H_    0.386824 0.451000 0.173610 0.134856
C85   C     C_2   0.848582 0.692248 0.077219 0.355743
H13   H     H_    0.829978 0.567227 0.053490 0.047357
O29   O     O_2   0.887569 0.734947 0.058248 -0.535688
C86   C     C_2   0.149553 0.777310 0.860699 0.388029
H14   H     H_    0.156868 0.645272 0.838250 0.012226
O30   O     O_2   0.123076 0.786488 0.909425 -0.532439
C87   C     C_2   0.160598 0.179986 0.406508 0.359841
H15   H     H_    0.181445 0.057446 0.421992 0.047101
O31   O     O_2   0.123055 0.200658 0.432562 -0.532752
C88   C     C_2   0.898023 0.673481 0.540558 0.376914
H16   H     H_    0.894473 0.776077 0.494771 0.010927
O32   O     O_2   0.937038 0.595159 0.559162 -0.529011
C89   C     C_2   0.741974 0.724691 0.051759 0.389416
H17   H     H_    0.755567 0.692194 0.998748 0.041552
O33   O     O_2   0.700278 0.673693 0.056162 -0.526791
C90   C     C_2   0.255757 0.786710 0.867482 0.435874
H18   H     H_    0.239980 0.666393 0.889325 0.061416
O34   O     O_2   0.298377 0.780230 0.858164 -0.519992
C91   C     C_2   0.266235 0.244429 0.417439 0.394036
H19   H     H_    0.257048 0.193295 0.471753 0.045955
O35   O     O_2   0.306254 0.207150 0.402385 -0.555902
C92   C     C_2   0.809671 0.566837 0.442281 0.516858
H20   H     H_    0.818661 0.677316 0.406812 -0.062484
O36   O     O_2   0.812260 0.412567 0.417633 -0.507613
O37   O     O_3   0.650939 0.130354 0.905207 -0.540850
C93   C     C_3   0.660388 0.954511 0.879209 0.095857
H21   H     H_    0.629710 0.906498 0.831999 0.088279
H22   H     H_    0.665553 0.852862 0.927616 0.158956
C94   C     C_3   0.707075 0.962779 0.845066 -0.638582
H23   H     H_    0.738267 0.021256 0.888736 0.247000
H24   H     H_    0.716616 0.823769 0.829778 0.165909
H25   H     H_    0.701299 0.047263 0.791005 0.223636
O38   O     O_3   0.338576 0.982340 0.119210 -0.546759
C95   C     C_3   0.320417 0.121026 0.161395 0.105685
H26   H     H_    0.302404 0.226045 0.120203 0.199338
H27   H     H_    0.350242 0.184972 0.205590 0.101868
C96   C     C_3   0.282613 0.043647 0.205914 -0.553132
H28   H     H_    0.248696 0.003216 0.163791 0.240016
H29   H     H_    0.298018 0.926006 0.242126 0.241262
H30   H     H_    0.272584 0.149207 0.245366 0.186538
O39   O     O_3   0.373605 0.709147 0.554965 -0.538749
C97   C     C_3   0.366830 0.898107 0.561477 0.105612
H31   H     H_    0.346216 0.953901 0.505041 0.177634
H32   H     H_    0.402837 0.972459 0.577786 0.108219
C98   C     C_3   0.337080 0.932217 0.625164 -0.608084
H33   H     H_    0.357570 0.884809 0.683100 0.230739
H34   H     H_    0.330474 0.080091 0.628852 0.201763
H35   H     H_    0.300953 0.858602 0.610749 0.228189
O40   O     O_3   0.662243 0.566838 0.280355 -0.515668
C99   C     C_3   0.675848 0.408001 0.245602 0.201140
H36   H     H_    0.649756 0.378067 0.190063 0.158873
H37   H     H_    0.677599 0.287534 0.284701 0.149986
C100  C     C_3   0.726105 0.445168 0.224805 -0.536598
H38   H     H_    0.755394 0.444151 0.278400 0.260432
H39   H     H_    0.734045 0.343604 0.181944 0.179243
H40   H     H_    0.726724 0.581432 0.198306 0.232880
O41   O     O_3   0.247960 0.424957 0.786132 -0.546226
C101  C     C_3   0.228431 0.506560 0.712406 0.147256
H41   H     H_    0.252735 0.625240 0.705578 0.172414
H42   H     H_    0.191652 0.565127 0.711100 0.066729
C102  C     C_3   0.228141 0.381161 0.641382 -0.697215
H43   H     H_    0.202869 0.262227 0.642094 0.201474
H44   H     H_    0.215271 0.457759 0.586113 0.196750
H45   H     H_    0.265813 0.332995 0.640883 0.259076
O42   O     O_3   0.763264 0.094868 0.296004 -0.534221
C103  C     C_3   0.773301 0.977469 0.361999 0.187215
H46   H     H_    0.813313 0.981319 0.388563 0.086290
H47   H     H_    0.760754 0.836332 0.343672 0.140397
C104  C     C_3   0.745639 0.029868 0.426340 -0.529127
H48   H     H_    0.706743 0.062250 0.401309 0.243324
H49   H     H_    0.745805 0.914502 0.467457 0.135580
H50   H     H_    0.764749 0.144790 0.461707 0.256256
O43   O     O_3   0.731116 0.435907 0.665611 -0.547133
C105  C     C_3   0.732691 0.466041 0.746728 0.116837
H51   H     H_    0.749961 0.600246 0.766784 0.122335
H52   H     H_    0.753397 0.355509 0.781562 0.128692
C106  C     C_3   0.680213 0.463251 0.761938 -0.663941
H53   H     H_    0.661164 0.332640 0.741297 0.224475
H54   H     H_    0.680891 0.478897 0.826024 0.204157
H55   H     H_    0.659250 0.576938 0.730021 0.225458
O44   O     O_3   0.227269 0.683979 0.198401 -0.548918
C107  C     C_3   0.206252 0.609705 0.123154 0.109687
H56   H     H_    0.166204 0.637375 0.107014 0.111846
H57   H     H_    0.211538 0.459635 0.121374 0.139369
C108  C     C_3   0.230091 0.695221 0.059666 -0.546983
H58   H     H_    0.270894 0.694481 0.076465 0.280031
H59   H     H_    0.218348 0.615182 0.004798 0.144950
H60   H     H_    0.217373 0.836593 0.048559 0.235019
O45   O     O_3   0.509631 0.430189 0.870077 -0.568919
C109  C     C_3   0.495387 0.559194 0.810796 0.074598
H61   H     H_    0.470608 0.660690 0.829602 0.154846
H62   H     H_    0.477491 0.492305 0.754767 0.135485
C110  C     C_3   0.542247 0.655082 0.797471 -0.597873
H63   H     H_    0.567202 0.555474 0.778085 0.216328
H64   H     H_    0.533456 0.760591 0.751620 0.214632
H65   H     H_    0.561526 0.719348 0.853369 0.209970
O46   O     O_3   0.510831 0.185627 0.251084 -0.543288
C111  C     C_3   0.527061 0.130175 0.330518 0.114837
H66   H     H_    0.558226 0.219538 0.359311 0.110092
H67   H     H_    0.539097 0.986375 0.334884 0.133537
C112  C     C_3   0.484993 0.144330 0.375928 -0.654420
H68   H     H_    0.467045 0.009295 0.379572 0.209246
H69   H     H_    0.499278 0.195945 0.436505 0.214829
H70   H     H_    0.456048 0.236274 0.346400 0.217119
O47   O     O_3   0.521457 0.966101 0.553686 -0.577306
C113  C     C_3   0.542593 0.076401 0.618223 0.032064
H71   H     H_    0.569692 0.174864 0.600950 0.150764
H72   H     H_    0.560095 0.993014 0.669312 0.128923
C114  C     C_3   0.501444 0.181920 0.642744 -0.605020
H73   H     H_    0.475596 0.087202 0.665059 0.222404
H74   H     H_    0.517316 0.279576 0.689966 0.215193
H75   H     H_    0.480617 0.256395 0.591456 0.232461
O48   O     O_3   0.481372 0.493819 0.177345 -0.552581
C115  C     C_3   0.453580 0.557729 0.104268 0.065805
H76   H     H_    0.430513 0.676074 0.110745 0.152088
H77   H     H_    0.428182 0.448942 0.075838 0.125692
C116  C     C_3   0.487019 0.613949 0.047700 -0.624247
H78   H     H_    0.514745 0.508694 0.045185 0.258501
H79   H     H_    0.464496 0.633475 0.987905 0.178700
H80   H     H_    0.506222 0.744767 0.066223 0.212379
C117  C     C_2   0.550048 0.110755 0.841457 0.363464
H81   H     H_    0.573533 0.151834 0.800809 0.073440
O49   O     O_2   0.509754 0.041246 0.815228 -0.565503
C118  C     C_2   0.432539 0.970700 0.199953 0.423878
H82   H     H_    0.406201 0.980224 0.238462 0.080500
O50   O     O_2   0.467996 0.878119 0.221954 -0.583478
C119  C     C_2   0.474286 0.662024 0.599935 0.387713
H83   H     H_    0.455292 0.709626 0.645150 0.082145
O51   O     O_2   0.513674 0.587276 0.620254 -0.570989
C120  C     C_2   0.566724 0.645054 0.212186 0.548668
H84   H     H_    0.540735 0.751690 0.198552 0.095232
O52   O     O_2   0.587306 0.592175 0.160354 -0.528392

loop_
_geom_bond_atom_site_label_1
_geom_bond_atom_site_label_2
_ccdc_geom_bond_type
O17   V3    S    
C22   O41   S    
C31   C59   A    
N1    C17   A    
C22   C26   A    
O38   C95   S    
C62   C74   A    
O19   V1    S    
C33   C89   S    
C96   H28   S    
O3    C7    A    
C11   C12   D    
C14   C46   A    
C68   C72   A    
C52   C84   A    
N1    C37   S    
O15   V3    S    
C106  H55   S    
C89   H17   S    
C52   O40   S    
O4    V2    S    
C68   C83   A    
C30   C34   A    
O39   C97   S    
C42   C54   A    
C108  H60   S    
O1    C5    A    
C102  H43   S    
C107  H56   S    
C113  C114  S    
C41   C53   A    
C116  H78   S    
C32   C60   A    
C77   H9    S    
C42   C69   A    
O9    V1    S    
C41   C70   A    
C110  H63   S    
C18   C54   A    
N2    C38   S    
C82   C118  S    
C117  H81   S    
O4    C8    A    
C105  H52   S    
C24   O43   S    
C100  H39   S    
C27   C59   A    
C15   C47   A    
O1    V3    S    
C110  H65   S    
O13   V1    S    
C55   C80   A    
C111  C112  S    
O2    V4    S    
C114  H73   S    
C14   O22   S    
C54   C77   A    
C21   C37   A    
O3    V1    S    
C34   C38   A    
C19   C55   A    
C32   C88   S    
C101  C102  S    
C89   O33   D    
C113  H71   S    
C1    O15   A    
O37   C93   S    
C35   C91   S    
C2    O16   A    
C7    C9    S    
C118  O50   D    
O2    C6    A    
C91   H19   S    
C33   C37   A    
C103  H46   S    
O14   V2    S    
C84   C120  S    
C66   C81   A    
C31   C87   S    
C112  H68   S    
C74   C78   A    
C108  H59   S    
C31   C35   A    
C61   C66   A    
C93   C94   S    
C73   C77   A    
C30   C58   A    
C61   C69   A    
C102  H45   S    
O11   C7    A    
C63   C68   A    
C63   C75   A    
C92   O36   D    
O12   C8    A    
C35   C39   A    
O47   C113  S    
C95   H27   S    
C104  H49   S    
C95   H26   S    
O41   C101  S    
C50   O38   S    
C49   O37   S    
C63   C71   A    
O10   V2    S    
C67   C84   A    
C13   N1    A    
C94   H24   S    
C45   C49   A    
C80   H12   S    
C27   H8    S    
C113  H72   S    
C19   O28   S    
C65   C69   A    
C76   O48   S    
C51   O39   S    
C115  H77   S    
C64   C72   A    
C116  H79   S    
N4    C20   A    
C44   C48   A    
O8    V4    S    
C12   H4    S    
O7    V3    S    
C90   H18   S    
C28   C60   A    
C86   O30   D    
C117  O49   D    
C105  H51   S    
C100  H40   S    
C120  O52   D    
C109  C110  S    
C98   H34   S    
C108  H58   S    
O40   C99   S    
O11   V3    S    
C24   C40   A    
C64   C67   A    
C8    C10   S    
C32   C36   A    
C114  H74   S    
C99   C100  S    
C44   C56   A    
O7    C3    A    
C101  H41   S    
O5    C1    A    
O46   C111  S    
C74   O46   S    
O45   C109  S    
C61   C73   A    
C112  H70   S    
C42   C46   A    
C1    C60   S    
C44   C71   A    
C41   C45   A    
O8    C4    A    
C98   H35   S    
C13   C45   A    
C118  H82   S    
C103  C104  S    
C102  H44   S    
C106  H53   S    
O9    C5    A    
C36   C40   A    
C75   O47   S    
C13   O21   S    
C87   O31   D    
C111  H67   S    
C112  H69   S    
C97   C98   S    
C92   H20   S    
C25   H6    S    
C14   N2    A    
C30   C86   S    
C3    C58   S    
C17   O26   S    
O6    V2    S    
C64   C76   A    
C26   C58   A    
C17   C53   A    
C93   H21   S    
C104  H50   S    
C88   O32   D    
C20   O27   S    
C34   C90   S    
C119  H83   S    
C62   C65   A    
O5    V1    S    
C23   C39   A    
C76   C80   A    
C94   H25   S    
C73   O45   S    
C22   C38   A    
C9    H1    S    
O16   V4    S    
C97   H31   S    
C29   C33   A    
O43   C105  S    
C53   C78   A    
C109  H62   S    
C116  H80   S    
C101  H42   S    
C21   O42   S    
C10   H2    S    
C43   C55   A    
C50   C82   A    
C48   C52   A    
C90   O34   D    
C86   H14   S    
N4    C40   S    
C107  C108  S    
C3    O13   A    
C47   C51   A    
O6    C2    A    
C26   H5    S    
C103  H47   S    
C87   H15   S    
C23   O44   S    
C21   C25   A    
C120  H84   S    
C5    C11   S    
O12   V4    S    
C36   C92   S    
C6    C12   S    
C78   H10   S    
C23   C27   A    
C65   C82   A    
C62   C70   A    
N3    C39   S    
C16   C48   A    
C24   C28   A    
C114  H75   S    
C83   C119  S    
C49   C81   A    
O10   C6    A    
C115  H76   S    
O20   V2    S    
C107  H57   S    
C111  H66   S    
N2    C18   A    
C119  O51   D    
C46   C50   A    
C28   H7    S    
C51   C83   A    
C93   H22   S    
C105  C106  S    
C16   N4    A    
C100  H38   S    
C85   H13   S    
C94   H23   S    
C2    C59   S    
C15   N3    A    
O44   C107  S    
C11   H3    S    
C29   C57   A    
C110  H64   S    
C97   H32   S    
C9    C10   D    
C43   C72   A    
C66   C70   A    
N3    C19   A    
C91   O35   D    
O42   C103  S    
C4    C57   S    
C56   C79   A    
C99   H37   S    
C43   C47   A    
C16   O24   S    
C20   C56   A    
C79   H11   S    
C104  H48   S    
C95   C96   S    
C75   C79   A    
C98   H33   S    
C18   O25   S    
C4    O14   A    
C81   C117  S    
C85   O29   D    
C106  H54   S    
C88   H16   S    
C67   C71   A    
C96   H30   S    
O48   C115  S    
C25   C57   A    
C15   O23   S    
C109  H61   S    
C115  C116  S    
O18   V4    S    
C29   C85   S    
C99   H36   S    
C96   H29   S    
