data_mof_unit_12966.cif
_audit_creation_date              2012-12-10T17:58:18-0500
_audit_creation_method            fapswitch 2.2
_symmetry_space_group_name_H-M    P1
_symmetry_Int_Tables_number       1
_space_group_crystal_system       triclinic
_cell_length_a                    9.521475
_cell_length_b                    10.790535
_cell_length_c                    15.282711
_cell_angle_alpha                 89.918346
_cell_angle_beta                  74.470125
_cell_angle_gamma                 90.285131
_cell_volume                      1512.82295715

loop_
_atom_site_label
_atom_site_type_symbol
_atom_type_description
_atom_site_fract_x
_atom_site_fract_y
_atom_site_fract_z
_atom_type_partial_charge
C1    C     C_R   0.999885 0.262409 0.499124 0.901633
C2    C     C_R   0.000120 0.737560 0.500904 0.874198
C3    C     C_R   0.553003 0.643437 0.083703 0.311529
C4    C     C_R   0.411420 0.525335 0.894734 0.311388
C5    C     C_R   0.703198 0.656774 0.041120 0.409314
C6    C     C_R   0.268341 0.489392 0.939983 0.410818
C7    C     C_R   0.891531 0.065854 0.564198 0.378721
C8    C     C_R   0.108506 0.933995 0.435809 0.378162
C9    C     C_R   0.893626 0.936132 0.568086 0.249900
C10   C     C_R   0.106637 0.063729 0.432058 0.251218
C11   C     C_R   0.001087 0.871470 0.502521 -0.285021
C12   C     C_R   0.999008 0.128430 0.497534 -0.288018
C13   C     C_R   0.547987 0.428439 0.560266 0.038770
C14   C     C_R   0.451941 0.571794 0.439880 0.014631
C15   C     C_R   0.399167 0.428630 0.560336 0.030382
C16   C     C_R   0.600707 0.571769 0.439924 0.008867
C17   C     C_R   0.918520 0.507907 0.672578 0.789157
C18   C     C_R   0.081432 0.499648 0.326785 0.817866
C19   C     C_R   0.873656 0.537483 0.770436 -0.174626
C20   C     C_R   0.124217 0.501471 0.226172 -0.159294
C21   C     C_R   0.907596 0.635261 0.906304 -0.066086
C22   C     C_R   0.075662 0.466805 0.080119 -0.093125
C23   C     C_R   0.962553 0.604991 0.814733 0.408080
C24   C     C_R   0.025030 0.474763 0.174240 0.383304
C25   C     C_R   0.730035 0.509813 0.818209 -0.226792
C26   C     C_R   0.269649 0.528463 0.180799 -0.235116
C27   C     C_R   0.666490 0.560735 0.904247 0.019475
C28   C     C_R   0.317010 0.537693 0.085434 0.023168
C29   C     C_R   0.759559 0.615998 0.951460 -0.055415
C30   C     C_R   0.220667 0.497091 0.034879 -0.049161
C31   C     C_R   0.513876 0.553069 0.945280 -0.112434
C32   C     C_R   0.460958 0.577334 0.039535 -0.103496
Cu1   Cu    Cu3+1 0.140660 0.500020 0.500000 0.990873
Cu2   Cu    Cu3+1 0.859340 0.499980 0.500000 0.995765
H1    H     H_    0.346598 0.539924 0.220826 0.218672
H2    H     H_    0.667163 0.449964 0.786203 0.214585
N1    N     N_R   0.352080 0.500030 0.499980 -0.176416
N2    N     N_R   0.647920 0.499970 0.500020 -0.172244
O1    O     O_R   0.118740 0.319660 0.500000 -0.580357
O2    O     O_R   0.881260 0.680340 0.500000 -0.580346
O3    O     O_R   0.881170 0.319630 0.500010 -0.538052
O4    O     O_R   0.118830 0.680370 0.499990 -0.551783
O5    O     O_R   0.055570 0.500030 0.629830 -0.576371
O6    O     O_R   0.944430 0.499970 0.370170 -0.576867
O7    O     O_R   0.818000 0.500000 0.629840 -0.575034
O8    O     O_R   0.182000 0.500000 0.370160 -0.582317
O9    O     O_3   0.796591 0.713820 0.084418 -0.734487
H3    H     H_    0.747153 0.724505 0.149720 0.370097
O10   O     O_3   0.171932 0.447680 0.892829 -0.724214
H4    H     H_    0.224674 0.431670 0.828682 0.384025
O11   O     O_3   0.879854 0.450400 0.213002 -0.704278
H5    H     H_    0.839341 0.525612 0.247538 0.332114
O12   O     O_3   0.101070 0.645918 0.771400 -0.687528
H6    H     H_    0.100658 0.675078 0.710059 0.329602
H7    H     H_    0.979618 0.681947 0.939934 0.210584
H8    H     H_    0.998705 0.440190 0.042472 0.208256
O13   O     O_3   0.497553 0.709417 0.162654 -0.754937
H9    H     H_    0.400398 0.741177 0.161745 0.347708
O14   O     O_3   0.441626 0.546398 0.802380 -0.737988
H10   H     H_    0.508064 0.619001 0.787360 0.350705
O15   O     O_3   0.790172 0.135116 0.626858 -0.717855
H11   H     H_    0.718750 0.080030 0.668130 0.378409
O16   O     O_3   0.209622 0.864671 0.373014 -0.713089
H12   H     H_    0.280605 0.919688 0.331375 0.383714
O17   O     O_3   0.792136 0.876303 0.637432 -0.717444
H13   H     H_    0.829162 0.793941 0.648698 0.320275
O18   O     O_3   0.208540 0.123523 0.362928 -0.709576
H14   H     H_    0.171876 0.206041 0.351715 0.331035
H15   H     H_    0.582847 0.370862 0.608457 0.156177
H16   H     H_    0.417031 0.629568 0.391806 0.166804
H17   H     H_    0.321955 0.371403 0.608632 0.136256
H18   H     H_    0.677733 0.629556 0.391990 0.123529

loop_
_geom_bond_atom_site_label_1
_geom_bond_atom_site_label_2
_ccdc_geom_bond_type
C19   C23   A    
C7    O15   S    
C17   O5    A    
Cu2   O3    S    
C18   O6    A    
C27   C29   A    
C15   H17   S    
C26   C28   A    
C31   C32   A    
C16   H18   S    
C22   H8    S    
C18   O8    A    
O15   H11   S    
C9    O17   S    
C28   C30   A    
Cu1   Cu2   S    
O13   H9    S    
C3    C5    A    
C21   H7    S    
O14   H10   S    
Cu2   O7    S    
Cu2   N2    S    
C10   O18   S    
C14   N1    A    
Cu1   O8    S    
C9    C11   A    
C13   N2    A    
C14   H16   S    
C1    C12   S    
C13   H15   S    
C2    O4    A    
C8    C11   A    
Cu2   O2    S    
Cu1   O4    S    
C10   C12   A    
C4    O14   S    
C1    O3    A    
O18   H14   S    
C17   C19   S    
C17   O7    A    
C3    O13   S    
C23   O12   S    
C5    C29   A    
C13   C15   A    
C6    O10   S    
C3    C32   A    
C19   C25   A    
O10   H4    S    
C14   C16   A    
C7    C12   A    
C24   O11   S    
C25   C27   A    
C1    O1    A    
C8    O16   S    
C27   C31   A    
O11   H5    S    
C4    C31   A    
C2    O2    A    
C26   H1    S    
C28   C32   A    
Cu2   O6    S    
C18   C20   S    
C4    C6    A    
O17   H13   S    
C22   C24   A    
C16   N2    A    
C7    C9    A    
C20   C24   A    
C15   N1    A    
C2    C11   S    
C22   C30   A    
C6    C30   A    
C25   H2    S    
O12   H6    S    
C21   C29   A    
C21   C23   A    
Cu1   O1    S    
C8    C10   A    
Cu1   N1    S    
O9    H3    S    
C5    O9    S    
O16   H12   S    
C20   C26   A    
Cu1   O5    S    
