data_mof_unit_48899.cif
_audit_creation_date              2012-12-10T19:09:36-0500
_audit_creation_method            fapswitch 2.2
_symmetry_space_group_name_H-M    P1
_symmetry_Int_Tables_number       1
_space_group_crystal_system       triclinic
_cell_length_a                    9.53819
_cell_length_b                    10.814273
_cell_length_c                    17.073299
_cell_angle_alpha                 89.139225
_cell_angle_beta                  95.36706
_cell_angle_gamma                 89.937288
_cell_volume                      1753.16256356

loop_
_atom_site_label
_atom_site_type_symbol
_atom_type_description
_atom_site_fract_x
_atom_site_fract_y
_atom_site_fract_z
_atom_type_partial_charge
C1    C     C_R   0.499620 0.262318 0.497994 0.808765
C2    C     C_R   0.649176 0.457768 0.785241 -0.135672
C3    C     C_R   0.542569 0.442108 0.138705 -0.236682
C4    C     C_R   0.553233 0.431527 0.220317 0.349142
C5    C     C_R   0.447690 0.527150 0.098688 0.230145
C6    C     C_R   0.467685 0.505714 0.263304 -0.179138
C7    C     C_R   0.370933 0.588041 0.223639 -0.246319
C8    C     C_R   0.359592 0.597843 0.141760 0.381427
C9    C     C_R   0.621917 0.063843 0.483137 0.188837
C10   C     C_R   0.497303 0.129501 0.488804 -0.096402
C11   C     C_R   0.368891 0.064951 0.482571 -0.197849
C12   C     C_R   0.519214 0.501376 0.651299 0.845919
C13   C     C_R   0.368879 0.936057 0.482800 -0.191394
C14   C     C_R   0.497294 0.870983 0.489515 -0.097110
C15   C     C_R   0.622000 0.936524 0.483897 0.121368
C16   C     C_3   0.758918 0.929331 0.533996 -0.461425
C17   C     C_3   0.758981 0.069675 0.532776 -0.485850
C18   C     C_R   0.067259 0.595858 0.466296 0.180432
C19   C     C_R   0.080702 0.408611 0.536836 -0.011654
C20   C     C_R   0.931730 0.407914 0.536059 -0.018698
C21   C     C_R   0.920540 0.598951 0.469664 0.177407
C22   C     C_3   0.894294 0.650027 0.388200 -0.466759
C23   C     C_R   0.499540 0.737754 0.498244 0.805288
C24   C     C_3   0.050753 0.635772 0.381303 0.165418
C25   C     C_R   0.481061 0.501418 0.349191 0.880538
C26   C     C_R   0.532536 0.510232 0.738149 -0.178832
C27   C     C_R   0.427052 0.572644 0.775597 0.312270
C28   C     C_R   0.431557 0.573200 0.857215 -0.202371
C29   C     C_R   0.542934 0.516216 0.903858 0.258364
C30   C     C_R   0.654174 0.462968 0.868030 -0.061284
Cu1   Cu    Cu3+1 0.640670 0.499980 0.500000 0.986258
Cu2   Cu    Cu3+1 0.359330 0.500020 0.500000 1.012335
H1    H     H_    0.269121 0.888095 0.482028 0.164267
H2    H     H_    0.748150 0.888454 0.593298 0.206599
H3    H     H_    0.844287 0.888966 0.502336 0.198675
H4    H     H_    0.747436 0.110468 0.591024 0.193944
H5    H     H_    0.844009 0.110155 0.500237 0.214635
H6    H     H_    0.141357 0.333803 0.565928 0.118407
H7    H     H_    0.880657 0.332282 0.564018 0.140516
H8    H     H_    0.827107 0.590136 0.348122 0.274965
H9    H     H_    0.859520 0.748161 0.387742 0.153420
H10   H     H_    0.608439 0.383321 0.106586 0.206666
H11   H     H_    0.105055 0.724109 0.369652 0.106618
H12   H     H_    0.306758 0.647235 0.256471 0.213834
H13   H     H_    0.347902 0.619601 0.884071 0.209801
H14   H     H_    0.269155 0.113150 0.481851 0.171869
N1    N     N_2   0.547875 0.509450 0.987120 -0.219463
N2    N     N_2   0.438238 0.541780 0.015631 -0.198092
N3    N     N_R   0.147870 0.500930 0.499500 -0.156202
N4    N     N_R   0.851960 0.500890 0.499500 -0.165778
O1    O     O_R   0.618810 0.319640 0.500000 -0.572197
O2    O     O_R   0.381230 0.319680 0.499990 -0.593800
O3    O     O_R   0.631790 0.498830 0.613930 -0.588602
O4    O     O_R   0.394210 0.498870 0.613920 -0.539235
O5    O     O_R   0.618770 0.680320 0.500010 -0.589571
O6    O     O_R   0.381190 0.680360 0.500000 -0.582007
O7    O     O_R   0.605790 0.501130 0.386080 -0.554800
O8    O     O_R   0.368210 0.501170 0.386070 -0.535068
Cl1   Cl    Cl    0.671837 0.321385 0.266006 -0.559030
Cl2   Cl    Cl    0.079595 0.513237 0.315182 -0.527264
C31   C     C_R   0.775479 0.410212 0.918439 0.137888
C32   C     C_R   0.899678 0.479012 0.933001 -0.110653
C33   C     C_R   0.014287 0.429098 0.980134 -0.088661
C34   C     C_R   0.005013 0.310857 0.013444 -0.074923
C35   C     C_R   0.881179 0.242284 0.999556 -0.103599
C36   C     C_R   0.766543 0.291695 0.952166 -0.142163
H15   H     H_    0.907709 0.570826 0.907611 0.143870
H16   H     H_    0.110234 0.482019 0.990843 0.180208
H17   H     H_    0.093731 0.272426 0.050029 0.155426
H18   H     H_    0.874093 0.150796 0.025446 0.161078
H19   H     H_    0.671167 0.237835 0.941563 0.138354
C37   C     C_R   0.764866 0.391835 0.751225 0.161947
C38   C     C_R   0.891143 0.454092 0.740981 -0.092714
C39   C     C_R   0.011078 0.387501 0.725757 -0.153799
C40   C     C_R   0.005251 0.258864 0.719655 -0.147646
C41   C     C_R   0.879377 0.196619 0.728718 -0.143172
C42   C     C_R   0.759250 0.262753 0.744260 -0.164065
H20   H     H_    0.898111 0.553297 0.748170 0.143184
H21   H     H_    0.108853 0.435367 0.719178 0.188431
H22   H     H_    0.098295 0.207476 0.707998 0.140354
H23   H     H_    0.875490 0.096849 0.724909 0.146557
H24   H     H_    0.663787 0.213147 0.754226 0.126176
Cl3   Cl    Cl    0.237733 0.702994 0.094301 -0.581554
Cl4   Cl    Cl    0.289700 0.658506 0.723623 -0.650105

loop_
_geom_bond_atom_site_label_1
_geom_bond_atom_site_label_2
_ccdc_geom_bond_type
C3    H10   S    
C18   C21   A    
C38   C39   A    
C19   C20   A    
Cu2   O8    S    
C7    C8    A    
C26   C27   A    
C32   C33   A    
C32   H15   S    
C29   N1    S    
C18   C24   S    
C27   Cl4   S    
C16   H3    S    
C6    C25   S    
C35   H18   S    
C8    Cl3   S    
Cu2   O2    S    
C20   N4    A    
C16   H2    S    
C31   C36   A    
Cu1   Cu2   S    
C16   C17   S    
C38   H20   S    
C17   H4    S    
C29   C30   A    
C9    C10   A    
C12   O3    A    
C13   C14   A    
C25   O7    A    
C2    C37   S    
Cu2   O4    S    
C21   N4    A    
C5    N2    S    
C28   H13   S    
C39   C40   A    
N1    N2    D    
C23   O6    A    
C41   C42   A    
C4    C6    A    
C20   H7    S    
C7    H12   S    
C12   C26   S    
C14   C23   S    
C40   C41   A    
C13   H1    S    
C37   C42   A    
C19   H6    S    
C19   N3    A    
C36   H19   S    
C24   Cl2   S    
C22   H8    S    
C2    C26   A    
C17   H5    S    
C34   H17   S    
Cu1   O3    S    
C1    O1    A    
C9    C17   S    
C39   H21   S    
C22   C24   S    
C25   O8    A    
Cu1   N4    S    
C3    C4    A    
C40   H22   S    
C33   H16   S    
C28   C29   A    
C1    C10   S    
Cu1   O1    S    
C37   C38   A    
C3    C5    A    
C41   H23   S    
C5    C8    A    
C23   O5    A    
C6    C7    A    
C2    C30   A    
C34   C35   A    
Cu1   O7    S    
C9    C15   A    
C11   C13   A    
C42   H24   S    
C4    Cl1   S    
C31   C32   A    
C1    O2    A    
Cu2   N3    S    
C10   C11   A    
C33   C34   A    
C22   H9    S    
C35   C36   A    
C30   C31   S    
C27   C28   A    
C24   H11   S    
C14   C15   A    
C11   H14   S    
Cu1   O5    S    
C21   C22   S    
Cu2   O6    S    
C12   O4    A    
C15   C16   S    
C18   N3    A    
