data_mof_unit_19918.cif
_audit_creation_date              2012-10-26T19:04:00-0400
_audit_creation_method            fapswitch 2.2
_symmetry_space_group_name_H-M    P1
_symmetry_Int_Tables_number       1
_space_group_crystal_system       triclinic
_cell_length_a                    15.902554
_cell_length_b                    12.974582
_cell_length_c                    11.727139
_cell_angle_alpha                 99.513797
_cell_angle_beta                  94.221725
_cell_angle_gamma                 90.54336
_cell_volume                      2379.3167398

loop_
_atom_site_label
_atom_site_type_symbol
_atom_type_description
_atom_site_fract_x
_atom_site_fract_y
_atom_site_fract_z
_atom_type_partial_charge
C1    C     C_R   0.498860 0.299457 0.479196 0.551022
C2    C     C_R   0.505650 0.186178 0.468266 0.034808
C3    C     C_R   0.584458 0.028799 0.409258 0.019009
C4    C     C_R   0.340343 0.498650 0.499834 0.543198
C5    C     C_R   0.575010 0.137271 0.414730 -0.004107
C6    C     C_R   0.444311 0.127947 0.513385 -0.027121
C7    C     C_R   0.451912 0.018086 0.501540 0.014796
C8    C     C_R   0.529224 0.972827 0.468146 0.010061
C9    C     C_R   0.547902 0.872571 0.493708 -0.038605
C10   C     C_R   0.401840 0.848580 0.538012 -0.037822
C11   C     C_R   0.384951 0.951271 0.520579 0.003590
C12   C     C_3   0.957434 0.469241 0.621898 -0.067039
C13   C     C_R   0.419666 0.402063 0.020950 -0.066810
C14   C     C_R   0.427671 0.411101 0.143421 0.114043
C15   C     C_R   0.534360 0.542149 0.157710 0.032749
C16   C     C_R   0.498006 0.699924 0.520565 0.566192
C17   C     C_R   0.529250 0.536235 0.034750 0.000562
C18   C     C_R   0.470879 0.465126 0.965623 -0.027117
C19   C     C_R   0.465218 0.458956 0.842912 0.032760
C20   C     C_R   0.572652 0.589026 0.856158 0.146435
C21   C     C_R   0.580783 0.599510 0.979437 -0.050824
C22   C     C_R   0.659679 0.500263 0.500113 0.561009
C23   C     C_3   0.916968 0.495121 0.503717 0.091331
C24   C     C_3   0.055939 0.470390 0.621866 -0.086450
C25   C     C_3   0.041950 0.409992 0.398439 -0.068632
C26   C     C_3   0.943278 0.407403 0.403346 -0.121232
C27   C     C_1   0.749071 0.498877 0.500532 -0.029978
C28   C     C_3   0.083410 0.491033 0.501542 0.042335
C29   C     C_3   0.928269 0.536654 0.732574 -0.420258
C30   C     C_1   0.633708 0.834896 0.497331 0.203026
C31   C     C_3   0.332211 0.776513 0.563163 -0.378608
C32   C     C_3   0.643817 0.971793 0.325809 -0.382964
C33   C     C_1   0.297880 0.979573 0.498025 0.193657
C34   C     C_3   0.953001 0.601379 0.477099 -0.104952
C35   C     C_3   0.641238 0.202821 0.370281 -0.377866
C36   C     C_3   0.377261 0.185320 0.584344 -0.358994
C37   C     C_3   0.093001 0.371662 0.661848 -0.405265
C38   C     C_1   0.625433 0.652855 0.799486 0.263161
C39   C     C_1   0.358925 0.327856 0.953071 0.154793
C40   C     C_3   0.643522 0.677217 0.052217 -0.428005
C41   C     C_1   0.374751 0.345743 0.198286 0.281945
C42   C     C_1   0.081543 0.306326 0.388431 0.194314
C43   C     C_3   0.904932 0.297327 0.405393 -0.411264
C44   C     C_3   0.920385 0.702573 0.546961 -0.396214
C45   C     C_3   0.050947 0.600595 0.485167 -0.234351
C46   C     C_1   0.824493 0.497275 0.501723 -0.067504
C47   C     C_1   0.175658 0.494069 0.500196 -0.064099
C48   C     C_1   0.250970 0.496391 0.499635 -0.023908
C49   C     C_R   0.484309 0.811259 0.527496 0.006007
Cu1   Cu    Cu3+1 0.506190 0.507730 0.615930 0.953298
Cu2   Cu    Cu3+1 0.493810 0.492270 0.384070 0.955038
H1    H     H_    0.934771 0.389347 0.628360 0.141408
H2    H     H_    0.961376 0.613438 0.753340 0.135356
H3    H     H_    0.859198 0.548408 0.726308 0.159923
H4    H     H_    0.943209 0.496087 0.807703 0.124051
H5    H     H_    0.272943 0.817373 0.583779 0.137164
H6    H     H_    0.318013 0.714513 0.486707 0.136894
H7    H     H_    0.352446 0.740116 0.639682 0.151260
H8    H     H_    0.642683 0.006394 0.245199 0.130487
H9    H     H_    0.709153 0.975980 0.367023 0.147790
H10   H     H_    0.623641 0.889071 0.295769 0.134153
H11   H     H_    0.699869 0.160368 0.350343 0.116043
H12   H     H_    0.082691 0.536651 0.687765 0.140210
H13   H     H_    0.615077 0.230822 0.290787 0.157003
H14   H     H_    0.661110 0.270902 0.437651 0.128870
H15   H     H_    0.406171 0.247920 0.651408 0.148998
H16   H     H_    0.330415 0.219288 0.526920 0.161236
H17   H     H_    0.344998 0.136219 0.637077 0.151982
H18   H     H_    0.078798 0.370826 0.753031 0.133419
H19   H     H_    0.065215 0.299206 0.608584 0.159288
H20   H     H_    0.162593 0.370804 0.658984 0.159767
H21   H     H_    0.680551 0.723241 0.001163 0.143193
H22   H     H_    0.609438 0.734073 0.112757 0.130185
H23   H     H_    0.931697 0.605490 0.385256 0.127136
H24   H     H_    0.689421 0.634987 0.102594 0.129535
H25   H     H_    0.835676 0.300041 0.411241 0.128715
H26   H     H_    0.915982 0.244616 0.323343 0.145900
H27   H     H_    0.933522 0.261584 0.478167 0.142745
H28   H     H_    0.953050 0.722435 0.634409 0.136983
H29   H     H_    0.932728 0.769033 0.501253 0.139441
H30   H     H_    0.851479 0.698133 0.554749 0.183412
H31   H     H_    0.420412 0.405954 0.788557 0.134545
H32   H     H_    0.578089 0.595790 0.213237 0.137843
H33   H     H_    0.055253 0.438342 0.316812 0.094749
H34   H     H_    0.915813 0.428081 0.320011 0.116716
H35   H     H_    0.078225 0.660388 0.558063 0.127459
H36   H     H_    0.073630 0.622654 0.404649 0.113100
N1    N     N_R   0.515490 0.519350 0.790130 -0.258106
N2    N     N_R   0.484510 0.480650 0.209890 -0.259874
N3    N     N_1   0.701884 0.804489 0.500532 -0.321708
N4    N     N_1   0.228460 0.001867 0.479705 -0.280138
N5    N     N_1   0.668229 0.704542 0.755206 -0.299539
N6    N     N_1   0.310528 0.268742 0.898922 -0.307097
N7    N     N_1   0.331964 0.292913 0.241140 -0.274870
N8    N     N_1   0.112725 0.225449 0.380295 -0.268305
O1    O     O_R   0.504390 0.354460 0.582000 -0.516884
O2    O     O_R   0.493940 0.341410 0.386200 -0.496166
O3    O     O_R   0.384660 0.506540 0.597940 -0.513855
O4    O     O_R   0.374210 0.493480 0.402140 -0.488323
O5    O     O_R   0.506060 0.658590 0.613800 -0.490688
O6    O     O_R   0.495610 0.645540 0.418000 -0.505768
O7    O     O_R   0.625790 0.506520 0.597860 -0.486243
O8    O     O_R   0.615340 0.493460 0.402060 -0.508549

loop_
_geom_bond_atom_site_label_1
_geom_bond_atom_site_label_2
_ccdc_geom_bond_type
Cu2   O2    S    
C28   C47   S    
C4    O3    A    
C12   C29   S    
C30   N3    T    
C36   H16   S    
C7    C8    A    
C43   H27   S    
C7    C11   A    
C19   N1    A    
C12   C23   S    
C13   C18   A    
C31   H7    S    
C45   H36   S    
C32   H10   S    
C18   C19   A    
C37   H18   S    
C33   N4    T    
C36   H15   S    
C29   H3    S    
C35   H14   S    
Cu2   O8    S    
C38   N5    T    
C40   H22   S    
C1    C2    S    
C23   C26   S    
C39   N6    T    
C10   C31   S    
C47   C48   T    
C8    C9    A    
C25   H33   S    
C35   H13   S    
C31   H5    S    
C19   H31   S    
Cu1   N1    S    
C23   C46   S    
C13   C14   A    
C2    C6    A    
C12   H1    S    
C26   C43   S    
Cu1   Cu2   S    
Cu2   O4    S    
C28   C45   S    
C3    C8    A    
Cu1   O3    S    
C42   N8    T    
C11   C33   S    
C34   C44   S    
C16   C49   S    
C24   C37   S    
C44   H30   S    
C1    O2    A    
C16   O5    A    
C15   H32   S    
C29   H4    S    
C25   C26   S    
C17   C21   A    
C22   O8    A    
C25   C28   S    
C14   N2    A    
C15   N2    A    
C20   C38   S    
C41   N7    T    
C44   H29   S    
C23   C34   S    
C17   C18   A    
C9    C49   A    
C34   C45   S    
C9    C30   S    
C34   H23   S    
C14   C41   S    
C27   C46   T    
Cu1   O7    S    
C24   H12   S    
C22   C27   S    
C37   H20   S    
C2    C5    A    
C43   H26   S    
C32   H9    S    
C4    C48   S    
C43   H25   S    
C15   C17   A    
C40   H21   S    
C5    C35   S    
C44   H28   S    
C24   C28   S    
C3    C5    A    
C25   C42   S    
C36   H17   S    
C6    C7    A    
Cu2   O6    S    
C12   C24   S    
Cu1   O5    S    
C22   O7    A    
C40   H24   S    
C31   H6    S    
C45   H35   S    
Cu2   N2    S    
Cu1   O1    S    
C21   C40   S    
C29   H2    S    
C26   H34   S    
C20   N1    A    
C6    C36   S    
C35   H11   S    
C3    C32   S    
C13   C39   S    
C10   C11   A    
C16   O6    A    
C20   C21   A    
C4    O4    A    
C1    O1    A    
C32   H8    S    
C37   H19   S    
C10   C49   A    
