data_mof_unit_57660.cif
_audit_creation_date              2012-12-10T20:21:42-0500
_audit_creation_method            fapswitch 2.2
_symmetry_space_group_name_H-M    P1
_symmetry_Int_Tables_number       1
_space_group_crystal_system       triclinic
_cell_length_a                    19.181711
_cell_length_b                    18.636856
_cell_length_c                    8.966765
_cell_angle_alpha                 89.999702
_cell_angle_beta                  91.522525
_cell_angle_gamma                 89.999908
_cell_volume                      3204.3683178

loop_
_atom_site_label
_atom_site_type_symbol
_atom_type_description
_atom_site_fract_x
_atom_site_fract_y
_atom_site_fract_z
_atom_type_partial_charge
C1    C     C_R   0.365881 0.500299 0.498464 0.947856
C2    C     C_R   0.634119 0.500299 0.501536 0.947858
C3    C     C_R   0.539497 0.725881 0.399896 0.241144
C4    C     C_R   0.462863 0.273506 0.392211 0.240127
C5    C     C_R   0.460503 0.725881 0.600104 0.241145
C6    C     C_R   0.537137 0.273506 0.607789 0.240125
C7    C     C_R   0.538666 0.802057 0.395380 -0.116803
C8    C     C_R   0.464119 0.197221 0.387449 -0.118457
C9    C     C_R   0.461334 0.802057 0.604620 -0.116803
C10   C     C_R   0.535881 0.197220 0.612551 -0.118457
C11   C     C_R   0.500000 0.841270 0.500000 0.033730
C12   C     C_R   0.500000 0.157972 0.500000 0.036495
C13   C     C_R   0.436631 0.961604 0.486316 0.126676
C14   C     C_R   0.563530 0.037607 0.500771 0.127574
C15   C     C_R   0.563370 0.961604 0.513683 0.126676
C16   C     C_R   0.436470 0.037607 0.499228 0.127574
C17   C     C_R   0.500000 0.076343 0.500000 0.018801
C18   C     C_R   0.500000 0.922873 0.500000 0.017862
C19   C     C_R   0.499627 0.500020 0.218600 0.967399
C20   C     C_R   0.500373 0.500020 0.781400 0.967401
C21   C     C_1   0.499810 0.500104 0.065260 -0.240881
C22   C     C_1   0.500189 0.500103 0.934739 -0.240880
C23   C     C_R   0.749545 0.492957 0.627707 0.091869
C24   C     C_R   0.260431 0.531049 0.633371 0.113606
C25   C     C_R   0.250454 0.492957 0.372294 0.091869
C26   C     C_R   0.739569 0.531049 0.366630 0.113606
C27   C     C_R   0.820581 0.510253 0.629928 -0.024505
C28   C     C_R   0.189106 0.547802 0.631340 -0.048377
C29   C     C_R   0.179419 0.510252 0.370074 -0.024505
C30   C     C_R   0.810894 0.547802 0.368661 -0.048379
C31   C     C_R   0.851370 0.535288 0.499132 0.044868
C32   C     C_R   0.148629 0.535288 0.500870 0.044868
C33   C     C_R   0.709519 0.503443 0.496204 -0.121003
C34   C     C_R   0.290481 0.503444 0.503797 -0.121004
C35   C     C_R   0.963299 0.603513 0.499654 0.130258
C36   C     C_R   0.036394 0.471722 0.506413 0.130299
C37   C     C_R   0.036701 0.603513 0.500347 0.130258
C38   C     C_R   0.963606 0.471722 0.493594 0.130300
C39   C     C_R   0.072376 0.537527 0.505674 -0.003090
C40   C     C_R   0.927623 0.537528 0.494329 -0.003090
N1    N     N_R   0.500000 0.689440 0.500000 -0.128037
N2    N     N_R   0.500000 0.310560 0.500000 -0.124223
O1    O     O_R   0.398180 0.560840 0.499960 -0.608034
O2    O     O_R   0.601820 0.439160 0.500040 -0.605477
O3    O     O_R   0.601820 0.560840 0.500040 -0.608035
O4    O     O_R   0.398180 0.439160 0.499960 -0.605476
O5    O     O_R   0.500000 0.560800 0.285330 -0.596999
O6    O     O_R   0.500000 0.439200 0.714670 -0.600440
O7    O     O_R   0.500000 0.560800 0.714670 -0.596999
O8    O     O_R   0.500000 0.439200 0.285330 -0.600441
Zn1   Zn    Zn3+2 0.500000 0.581210 0.500000 0.980154
Zn2   Zn    Zn3+2 0.500000 0.418790 0.500000 0.977081
N3    N     N_2   0.717280 0.467172 0.758260 -0.311528
H1    H     H_    0.724401 0.501042 0.848172 0.228196
C41   C     C_3   0.733820 0.393343 0.794581 -0.763486
H2    H     H_    0.787711 0.388546 0.841376 0.238074
H3    H     H_    0.728935 0.359093 0.693499 0.248679
H4    H     H_    0.697870 0.373702 0.880179 0.238603
N4    N     N_2   0.302696 0.541044 0.765113 -0.299250
H5    H     H_    0.288560 0.583465 0.831632 0.232377
C42   C     C_3   0.315431 0.475854 0.848903 -0.820536
H6    H     H_    0.265504 0.454103 0.889834 0.248089
H7    H     H_    0.350871 0.487475 0.945580 0.237742
H8    H     H_    0.340749 0.434791 0.778861 0.255213
N5    N     N_2   0.282720 0.467172 0.241741 -0.311528
H9    H     H_    0.275599 0.501043 0.151829 0.228196
C43   C     C_3   0.266179 0.393344 0.205420 -0.763486
H10   H     H_    0.212288 0.388548 0.158624 0.238074
H11   H     H_    0.271063 0.359093 0.306502 0.248679
H12   H     H_    0.302129 0.373703 0.119822 0.238603
N6    N     N_2   0.697305 0.541044 0.234887 -0.299251
H13   H     H_    0.711441 0.583465 0.168367 0.232377
C44   C     C_3   0.684569 0.475854 0.151098 -0.820534
H14   H     H_    0.734495 0.454102 0.110169 0.248089
H15   H     H_    0.649129 0.487476 0.054422 0.237742
H16   H     H_    0.659251 0.434792 0.221141 0.255212
C45   C     C_1   0.862517 0.501480 0.765780 0.160056
N7    N     N_1   0.896326 0.494256 0.873533 -0.192120
C46   C     C_1   0.156956 0.575447 0.763943 0.167364
N8    N     N_1   0.131198 0.597911 0.869411 -0.195444
C47   C     C_1   0.137482 0.501480 0.234224 0.160057
N9    N     N_1   0.103672 0.494256 0.126470 -0.192120
C48   C     C_1   0.843044 0.575448 0.236058 0.167365
N10   N     N_1   0.868803 0.597912 0.130591 -0.195444
N11   N     N_2   0.924874 0.669021 0.498884 -0.303480
H17   H     H_    0.945907 0.709419 0.435807 0.235003
C49   C     C_3   0.904348 0.693386 0.644488 -0.776862
H18   H     H_    0.873249 0.743393 0.632371 0.236163
H19   H     H_    0.951057 0.704581 0.716647 0.237322
H20   H     H_    0.871568 0.652573 0.699000 0.256128
N12   N     N_2   0.074466 0.405935 0.513645 -0.302241
H21   H     H_    0.054940 0.365509 0.446226 0.232307
C50   C     C_3   0.092112 0.381740 0.663264 -0.775544
H22   H     H_    0.124801 0.332703 0.657690 0.235518
H23   H     H_    0.044123 0.369006 0.724663 0.233232
H24   H     H_    0.122221 0.423349 0.725533 0.259296
N13   N     N_2   0.075125 0.669021 0.501115 -0.303480
H25   H     H_    0.054093 0.709419 0.564190 0.235003
C51   C     C_3   0.095651 0.693386 0.355510 -0.776864
H26   H     H_    0.126751 0.743392 0.367626 0.236164
H27   H     H_    0.048942 0.704582 0.283352 0.237322
H28   H     H_    0.128431 0.652572 0.300998 0.256128
N14   N     N_2   0.925534 0.405935 0.486363 -0.302241
H29   H     H_    0.945060 0.365509 0.553782 0.232307
C52   C     C_3   0.907888 0.381740 0.336746 -0.775543
H30   H     H_    0.875197 0.332704 0.342321 0.235518
H31   H     H_    0.955877 0.369005 0.275347 0.233231
H32   H     H_    0.877779 0.423349 0.274475 0.259296
N15   N     N_2   0.583504 0.686345 0.304564 -0.242745
H33   H     H_    0.635606 0.699068 0.318293 0.214743
C53   C     C_3   0.561248 0.683499 0.149094 -0.744163
H34   H     H_    0.585030 0.636012 0.095802 0.245339
H35   H     H_    0.578573 0.731826 0.088272 0.219760
H36   H     H_    0.503596 0.678950 0.138360 0.250211
N16   N     N_2   0.420612 0.312114 0.287849 -0.243303
H37   H     H_    0.369826 0.294318 0.285984 0.210219
C54   C     C_3   0.447842 0.316070 0.139263 -0.757733
H38   H     H_    0.434035 0.267403 0.073777 0.221255
H39   H     H_    0.505438 0.322275 0.144339 0.254684
H40   H     H_    0.424756 0.362985 0.080076 0.243620
N17   N     N_2   0.416496 0.686345 0.695436 -0.242745
H41   H     H_    0.364394 0.699069 0.681707 0.214743
C55   C     C_3   0.438751 0.683498 0.850906 -0.744163
H42   H     H_    0.414969 0.636011 0.904198 0.245339
H43   H     H_    0.421426 0.731825 0.911727 0.219760
H44   H     H_    0.496403 0.678948 0.861640 0.250212
N18   N     N_2   0.579387 0.312113 0.712152 -0.243303
H45   H     H_    0.630173 0.294317 0.714018 0.210219
C56   C     C_3   0.552157 0.316068 0.860737 -0.757733
H46   H     H_    0.565963 0.267400 0.926223 0.221255
H47   H     H_    0.494561 0.322274 0.855661 0.254685
H48   H     H_    0.575243 0.362983 0.919926 0.243620
C57   C     C_1   0.575925 0.839559 0.280579 0.188461
N19   N     N_1   0.605599 0.869763 0.188995 -0.225328
C58   C     C_1   0.430059 0.159603 0.264253 0.184472
N20   N     N_1   0.402952 0.129344 0.166009 -0.224846
C59   C     C_1   0.424075 0.839558 0.719421 0.188460
N21   N     N_1   0.394402 0.869763 0.811005 -0.225328
C60   C     C_1   0.569941 0.159602 0.735747 0.184473
N22   N     N_1   0.597048 0.129342 0.833991 -0.224845
N23   N     N_2   0.373077 0.923356 0.461024 -0.304018
H49   H     H_    0.330786 0.942276 0.517595 0.234611
C61   C     C_3   0.357415 0.907388 0.305943 -0.773943
H50   H     H_    0.309518 0.874045 0.297168 0.236831
H51   H     H_    0.400873 0.876858 0.256503 0.256212
H52   H     H_    0.348655 0.957854 0.242124 0.243892
N24   N     N_2   0.627531 0.075856 0.489999 -0.304051
H53   H     H_    0.668301 0.056928 0.555991 0.234334
C62   C     C_3   0.646987 0.091845 0.338914 -0.777840
H54   H     H_    0.694961 0.125194 0.341039 0.235828
H55   H     H_    0.604871 0.122376 0.279777 0.256964
H56   H     H_    0.657309 0.041386 0.277240 0.244121
N25   N     N_2   0.626924 0.923355 0.538974 -0.304018
H57   H     H_    0.669214 0.942276 0.482403 0.234610
C63   C     C_3   0.642586 0.907386 0.694055 -0.773943
H58   H     H_    0.690484 0.874045 0.702829 0.236830
H59   H     H_    0.599129 0.876854 0.743493 0.256211
H60   H     H_    0.651345 0.957851 0.757876 0.243893
N26   N     N_2   0.372469 0.075856 0.510001 -0.304051
H61   H     H_    0.331700 0.056929 0.444007 0.234334
C64   C     C_3   0.353013 0.091843 0.661085 -0.777840
H62   H     H_    0.305038 0.125191 0.658961 0.235828
H63   H     H_    0.395128 0.122374 0.720223 0.256964
H64   H     H_    0.342692 0.041384 0.722759 0.244121

loop_
_geom_bond_atom_site_label_1
_geom_bond_atom_site_label_2
_ccdc_geom_bond_type
C61   H52   S    
C49   H18   S    
C11   C18   S    
C50   H22   S    
O4    Zn2   S    
C63   H59   S    
C44   H14   S    
C4    N16   S    
N24   H53   S    
C4    C8    A    
O7    Zn1   S    
C37   N13   S    
C47   N9    T    
C62   H54   S    
C55   H42   S    
N3    H1    S    
C7    C11   A    
C52   H31   S    
C38   N14   S    
C13   C18   A    
C19   C21   S    
C6    N18   S    
C7    C57   S    
C29   C32   A    
C3    C7    A    
C62   H55   S    
N26   H61   S    
C30   C31   A    
C19   O5    A    
C1    O4    A    
C55   H43   S    
N5    C43   S    
O3    Zn1   S    
N16   H37   S    
C5    N17   S    
N13   H25   S    
C31   C40   S    
C32   C39   S    
C30   C48   S    
C42   H7    S    
C28   C46   S    
N15   C53   S    
C64   H63   S    
C9    C59   S    
C1    O1    A    
C48   N10   T    
C2    O2    A    
C16   C17   A    
N16   C54   S    
C12   C17   S    
O8    Zn2   S    
N26   C64   S    
C13   N23   S    
N25   C63   S    
C45   N7    T    
C25   C34   A    
C56   H48   S    
O2    Zn2   S    
C58   N20   T    
N4    H5    S    
C50   H23   S    
C21   C22   T    
C8    C58   S    
C26   N6    S    
C44   H15   S    
C14   C17   A    
N13   C51   S    
C1    C34   S    
C23   N3    S    
N11   C49   S    
C2    O3    A    
C25   C29   A    
C15   C18   A    
C52   H32   S    
N4    C42   S    
N17   C55   S    
C27   C31   A    
C43   H10   S    
C28   C32   A    
C25   N5    S    
C53   H35   S    
C54   H40   S    
N12   H21   S    
N6    C44   S    
C55   H44   S    
O5    Zn1   S    
C23   C33   A    
N11   H17   S    
C14   N24   S    
C24   C34   A    
C43   H11   S    
N23   C61   S    
C42   H8    S    
N18   C56   S    
C5    C9    A    
C20   O7    A    
N12   C50   S    
C26   C33   A    
C51   H26   S    
C8    C12   A    
C41   H2    S    
N14   C52   S    
C9    C11   A    
N17   H41   S    
C20   O6    A    
C10   C12   A    
C2    C33   S    
C51   H27   S    
C20   C22   S    
C29   C47   S    
C26   C30   A    
C50   H24   S    
C23   C27   A    
C41   H3    S    
C57   N19   T    
C44   H16   S    
C62   H56   S    
C10   C60   S    
N3    C41   S    
N18   H45   S    
C63   H58   S    
C64   H64   S    
C36   N12   S    
C56   H46   S    
C59   N21   T    
C35   C37   A    
C61   H51   S    
C5    N1    A    
C3    N1    A    
C53   H34   S    
N24   C62   S    
C36   C39   A    
C24   C28   A    
C27   C45   S    
C6    C10   A    
C60   N22   T    
C52   H30   S    
C43   H12   S    
C54   H39   S    
C35   C40   A    
C13   C16   A    
N6    H13   S    
C37   C39   A    
C64   H62   S    
N23   H49   S    
C38   C40   A    
C35   N11   S    
C19   O8    A    
O1    Zn1   S    
C41   H4    S    
C4    N2    A    
C3    N15   S    
C24   N4    S    
C63   H60   S    
C36   C38   A    
C53   H36   S    
C42   H6    S    
C15   N25   S    
C46   N8    T    
O6    Zn2   S    
C51   H28   S    
N5    H9    S    
C6    N2    A    
C49   H20   S    
N15   H33   S    
N14   H29   S    
C49   H19   S    
C14   C15   A    
C56   H47   S    
N25   H57   S    
C54   H38   S    
N1    Zn1   S    
C61   H50   S    
N2    Zn2   S    
C16   N26   S    
