data_mof_unit_8390.cif
_audit_creation_date              2012-12-11T15:29:43-0500
_audit_creation_method            fapswitch 2.2
_symmetry_space_group_name_H-M    P1
_symmetry_Int_Tables_number       1
_space_group_crystal_system       triclinic
_cell_length_a                    21.556865
_cell_length_b                    7.217222
_cell_length_c                    14.880616
_cell_angle_alpha                 90.317712
_cell_angle_beta                  73.366767
_cell_angle_gamma                 90.1134
_cell_volume                      2218.22914194

loop_
_atom_site_label
_atom_site_type_symbol
_atom_type_description
_atom_site_fract_x
_atom_site_fract_y
_atom_site_fract_z
_atom_type_partial_charge
O1    O     O_R   0.464160 0.506670 0.130070 -0.531110
O2    O     O_R   0.535840 0.006670 0.869930 -0.530738
O3    O     O_R   0.589710 0.179080 0.006710 -0.544937
O4    O     O_R   0.410290 0.679080 0.993290 -0.547153
C1    C     C_R   0.616090 0.345551 0.003154 0.676738
C2    C     C_R   0.383941 0.844591 0.996238 0.711706
O5    O     O_R   0.467940 0.177220 0.138010 -0.540444
O6    O     O_R   0.532060 0.677220 0.861990 -0.543069
O7    O     O_R   0.413200 0.002810 0.002170 -0.538744
O8    O     O_R   0.586800 0.502810 0.997830 -0.547105
C3    C     C_R   0.456944 0.345563 0.174544 0.705848
C4    C     C_R   0.547347 0.843238 0.825094 0.694321
O9    O     O_3   0.482180 0.337850 0.955280 -0.378279
O10   O     O_3   0.517820 0.837850 0.044720 -0.377842
V1    V     V_3+5 0.503310 0.064600 0.008300 1.382610
V2    V     V_3+5 0.496690 0.564600 0.991700 1.377440
C5    C     C_R   0.578076 0.832040 0.721930 -0.056464
C6    C     C_R   0.424863 0.346425 0.275589 -0.038434
C7    C     C_R   0.934270 0.874136 0.279224 -0.044360
C8    C     C_R   0.067303 0.370549 0.723218 -0.034712
C9    C     C_R   0.590744 0.618313 0.591811 -0.169969
C10   C     C_R   0.426025 0.211057 0.423130 -0.159401
C11   C     C_R   0.552712 0.698223 0.673634 -0.189043
C12   C     C_R   0.458873 0.271105 0.333781 -0.219146
C13   C     C_R   0.640633 0.904918 0.679059 0.098779
C14   C     C_R   0.357288 0.377692 0.310012 0.126514
C15   C     C_R   0.683640 0.806457 0.600870 0.073973
C16   C     C_R   0.325016 0.339089 0.406485 0.080664
C17   C     C_R   0.656351 0.662756 0.558212 0.071363
C18   C     C_R   0.359071 0.235613 0.457738 0.064955
C19   C     C_R   0.752078 0.840280 0.563128 -0.007341
C20   C     C_R   0.259646 0.389224 0.453186 -0.008311
C21   C     C_R   0.787662 0.751163 0.478156 0.037787
C22   C     C_R   0.225209 0.296494 0.537083 0.024199
C23   C     C_R   0.761048 0.589032 0.449666 0.144703
C24   C     C_R   0.257707 0.152282 0.570664 0.147342
C25   C     C_R   0.695164 0.554063 0.486006 -0.210391
C26   C     C_R   0.325095 0.141959 0.538564 -0.199386
C27   C     C_R   0.787832 0.945937 0.610648 -0.232329
C28   C     C_R   0.229642 0.537879 0.421630 -0.231782
C29   C     C_R   0.851758 0.001109 0.567374 0.119206
C30   C     C_R   0.163528 0.573004 0.457537 0.115489
C31   C     C_R   0.881930 0.946951 0.473336 0.108806
C32   C     C_R   0.128004 0.478097 0.538567 0.113861
C33   C     C_R   0.849249 0.823644 0.427452 0.053185
C34   C     C_R   0.160728 0.354816 0.584112 0.055997
C35   C     C_R   0.943208 0.016045 0.423084 -0.175097
C36   C     C_R   0.061974 0.516637 0.580394 -0.172338
C37   C     C_R   0.968472 0.981292 0.327562 -0.167619
C38   C     C_R   0.032128 0.462963 0.671890 -0.174355
C39   C     C_R   0.875464 0.793243 0.329412 -0.223902
C40   C     C_R   0.130573 0.313555 0.679357 -0.221237
H1    H     H_    0.674649 0.433432 0.461154 0.132522
H2    H     H_    0.350406 0.044232 0.570701 0.130757
H3    H     H_    0.847802 0.720187 0.290354 0.136931
H4    H     H_    0.157777 0.254908 0.722944 0.130132
H5    H     H_    0.013797 0.046190 0.290277 0.116578
H6    H     H_    0.983179 0.508395 0.705375 0.110125
H7    H     H_    0.569893 0.509693 0.558942 0.121813
H8    H     H_    0.452566 0.136961 0.463480 0.122093
H9    H     H_    0.504362 0.643743 0.703688 0.124620
H10   H     H_    0.510174 0.241908 0.306557 0.110697
H11   H     H_    0.767192 0.983056 0.683244 0.141371
H12   H     H_    0.257877 0.629719 0.368281 0.155706
H13   H     H_    0.971193 0.104992 0.455288 0.129461
H14   H     H_    0.033916 0.599854 0.546149 0.130592
C41   C     C_3   0.211552 0.666387 0.000649 -0.391799
C42   C     C_3   0.794080 0.174595 0.964900 -0.394111
H15   H     H_    0.178188 0.585846 0.057979 0.171938
H16   H     H_    0.820790 0.147064 0.890364 0.156357
H17   H     H_    0.211839 0.595056 0.934023 0.146909
H18   H     H_    0.807351 0.061554 0.006511 0.148652
C43   C     C_3   0.280401 0.660077 0.012622 -0.394403
C44   C     C_3   0.720388 0.164280 0.978129 -0.368265
H19   H     H_    0.309377 0.556749 0.962049 0.145925
H20   H     H_    0.698306 0.067217 0.036474 0.137571
H21   H     H_    0.278038 0.608860 0.083698 0.171679
H22   H     H_    0.711677 0.102971 0.914154 0.157172
C45   C     C_3   0.197753 0.978286 0.084186 0.061769
C46   C     C_3   0.797654 0.519288 0.929875 0.053601
C47   C     C_3   0.232094 0.963385 0.905821 -0.043968
C48   C     C_3   0.768027 0.400705 0.099315 -0.038005
C49   C     C_3   0.187665 0.870352 0.997824 0.062621
C50   C     C_3   0.813236 0.367047 0.996590 0.065106
H23   H     H_    0.220161 0.893937 0.845996 0.112515
H24   H     H_    0.769825 0.271537 0.139324 0.127015
C51   C     C_3   0.312847 0.855169 0.995618 0.038398
C52   C     C_3   0.687599 0.358922 0.000831 0.006944
C53   C     C_3   0.272461 0.987390 0.076435 0.033444
C54   C     C_3   0.726019 0.498076 0.923729 0.042686
C55   C     C_3   0.305552 0.920270 0.896998 -0.042644
C56   C     C_3   0.694843 0.423263 0.099087 -0.043720
H25   H     H_    0.316634 0.796221 0.849993 0.134878
H26   H     H_    0.666338 0.321221 0.150690 0.119050
H27   H     H_    0.181029 0.123532 0.082170 0.127997
H28   H     H_    0.799868 0.656402 0.963334 0.116325
H29   H     H_    0.288837 0.131111 0.055166 0.108291
H30   H     H_    0.703004 0.636912 0.939389 0.104214
O11   O     O_R   0.913210 0.208550 0.002110 -0.542417
O12   O     O_R   0.086790 0.708550 0.997890 -0.539287
O13   O     O_R   0.032060 0.539960 0.861980 -0.540237
O14   O     O_R   0.967940 0.039960 0.138020 -0.537794
C57   C     C_R   0.043042 0.372499 0.825327 0.685654
C58   C     C_R   0.956168 0.873542 0.175476 0.688753
O15   O     O_R   0.910290 0.538020 0.993280 -0.543275
O16   O     O_R   0.089710 0.038020 0.006720 -0.548534
O17   O     O_R   0.964160 0.712340 0.130090 -0.535847
O18   O     O_R   0.035840 0.212340 0.869910 -0.539692
C59   C     C_R   0.884585 0.369798 0.995474 0.694238
C60   C     C_R   0.116481 0.871267 0.998869 0.680408
O19   O     O_3   0.017820 0.379210 0.044690 -0.376932
O20   O     O_3   0.982180 0.879210 0.955310 -0.376381
V3    V     V_3+5 0.996690 0.652500 0.991710 1.385296
V4    V     V_3+5 0.003310 0.152500 0.008290 1.385111
C61   C     C_3   0.153730 0.901171 0.177520 -0.807429
H31   H     H_    0.154907 0.993054 0.236992 0.213732
H32   H     H_    0.102479 0.896120 0.176995 0.187842
H33   H     H_    0.168312 0.758898 0.190011 0.216454
C62   C     C_3   0.849086 0.533090 0.833251 -0.827785
H34   H     H_    0.835468 0.640896 0.789527 0.214482
H35   H     H_    0.896566 0.577518 0.840334 0.212017
H36   H     H_    0.855648 0.398603 0.795799 0.218175
C63   C     C_3   0.286765 0.959816 0.171859 -0.801173
H37   H     H_    0.272318 0.820458 0.200687 0.209418
H38   H     H_    0.338652 0.980091 0.166409 0.217625
H39   H     H_    0.259853 0.063402 0.223568 0.219393
C64   C     C_3   0.720449 0.448323 0.824758 -0.766228
H40   H     H_    0.748943 0.322837 0.795813 0.221295
H41   H     H_    0.669357 0.424381 0.826256 0.205037
H42   H     H_    0.737491 0.565003 0.775574 0.209086
C65   C     C_3   0.219034 0.174034 0.896510 -0.832798
H43   H     H_    0.242400 0.259456 0.939805 0.204689
H44   H     H_    0.237118 0.218458 0.822472 0.193849
H45   H     H_    0.167766 0.212838 0.914488 0.235708
C66   C     C_3   0.793770 0.551350 0.153999 -0.802471
H46   H     H_    0.805652 0.682379 0.114194 0.206831
H47   H     H_    0.758487 0.581045 0.222635 0.223591
H48   H     H_    0.838467 0.501727 0.169027 0.205010
C67   C     C_3   0.354891 0.070567 0.844242 -0.351356
C68   C     C_3   0.415899 0.984853 0.778492 -0.769769
H49   H     H_    0.431395 0.863863 0.811538 0.208068
H50   H     H_    0.406009 0.935578 0.713035 0.207607
H51   H     H_    0.455258 0.089543 0.759739 0.228766
H52   H     H_    0.335778 0.155663 0.796878 0.199796
H53   H     H_    0.367016 0.168609 0.894304 0.198805
C69   C     C_3   0.665038 0.619657 0.131854 -0.341137
C70   C     C_3   0.623492 0.621287 0.234316 -0.766317
H54   H     H_    0.579449 0.535666 0.241831 0.214061
H55   H     H_    0.650326 0.565666 0.281643 0.226775
H56   H     H_    0.608151 0.765356 0.256339 0.218851
H57   H     H_    0.702224 0.729586 0.120785 0.179618
H58   H     H_    0.633630 0.670380 0.090764 0.198267
C71   C     C_3   0.883177 0.133245 0.620921 -0.369547
C72   C     C_3   0.876157 0.333806 0.592487 -0.747001
H59   H     H_    0.897900 0.353244 0.516062 0.229785
H60   H     H_    0.824170 0.372984 0.611239 0.239112
H61   H     H_    0.901244 0.428377 0.629485 0.214541
H62   H     H_    0.859982 0.120877 0.697646 0.163772
H63   H     H_    0.934865 0.097626 0.610224 0.176617
C73   C     C_3   0.134246 0.721506 0.410602 -0.375351
C74   C     C_3   0.124918 0.904573 0.464716 -0.742198
H64   H     H_    0.094040 0.887007 0.537857 0.228602
H65   H     H_    0.172724 0.960720 0.465439 0.242484
H66   H     H_    0.101410 0.006531 0.429376 0.211028
H67   H     H_    0.167243 0.748991 0.340129 0.183263
H68   H     H_    0.088063 0.673531 0.399358 0.177437
C75   C     C_3   0.654294 0.096337 0.710080 -0.804085
H69   H     H_    0.669451 0.087139 0.775099 0.194593
H70   H     H_    0.690517 0.171574 0.654072 0.221597
H71   H     H_    0.609893 0.182879 0.725114 0.223472
C76   C     C_3   0.320652 0.417082 0.238710 -0.840294
H72   H     H_    0.268404 0.384300 0.264391 0.208791
H73   H     H_    0.328290 0.563407 0.216490 0.208462
H74   H     H_    0.338439 0.328928 0.175321 0.206767
C77   C     C_3   0.802035 0.431253 0.397060 -0.803773
H75   H     H_    0.790484 0.303092 0.439721 0.224492
H76   H     H_    0.791189 0.404417 0.329943 0.207207
H77   H     H_    0.854646 0.454466 0.384286 0.219674
C78   C     C_3   0.223930 0.991623 0.629229 -0.814996
H78   H     H_    0.245622 0.859054 0.596682 0.221896
H79   H     H_    0.230347 0.001224 0.700116 0.204314
H80   H     H_    0.171852 0.982933 0.633609 0.223910

loop_
_geom_bond_atom_site_label_1
_geom_bond_atom_site_label_2
_ccdc_geom_bond_type
C66   H48   S    
C32   C36   A    
C76   H72   S    
C3    C6    S    
C41   C49   S    
C45   C61   S    
C15   C17   A    
C43   H19   S    
C70   H54   S    
O1    C3    A    
C68   H51   S    
C46   C50   S    
C65   H45   S    
O2    C4    A    
O11   V4    S    
C74   H64   S    
C48   C56   S    
C66   H46   S    
C75   H70   S    
C8    C57   S    
C13   C75   S    
O12   C60   A    
C76   H73   S    
C5    C11   A    
C44   H20   S    
O16   V4    S    
C6    C12   A    
C10   C12   A    
O15   V3    S    
C70   H55   S    
C68   H50   S    
C9    H7    S    
C51   C55   S    
C10   H8    S    
C47   C65   S    
C41   H17   S    
C33   C39   A    
C42   C44   S    
C61   H31   S    
O11   C59   A    
C34   C40   A    
C71   H62   S    
C37   H5    S    
C18   C26   A    
C67   H52   S    
O18   V4    S    
C48   C66   S    
C36   H14   S    
O17   V3    S    
C8    C38   A    
C47   C49   S    
C1    C52   S    
C51   C53   S    
C43   C51   S    
C52   C56   S    
C61   H32   S    
C6    C14   A    
C4    C5    S    
C54   C64   S    
C19   C21   A    
C57   O18   A    
C22   C34   A    
C73   H68   S    
C46   H28   S    
C72   H60   S    
C42   H18   S    
C63   H37   S    
C25   H1    S    
C36   C38   A    
C55   C67   S    
C46   C62   S    
O6    V2    S    
C35   H13   S    
C29   C31   A    
C24   C78   S    
C30   C32   A    
C2    O7    A    
O20   V3    S    
C74   H65   S    
C32   C34   A    
C77   H77   S    
C29   C71   S    
C62   H35   S    
C76   H74   S    
C15   C19   A    
C42   C50   S    
C16   C20   A    
C70   H56   S    
C68   H49   S    
C72   H61   S    
C35   C37   A    
C75   H69   S    
C63   H39   S    
C53   C63   S    
C65   H44   S    
C48   H24   S    
C56   C69   S    
C2    C51   S    
C78   H78   S    
C53   H29   S    
C41   H15   S    
C38   H6    S    
O4    V2    S    
O5    C3    A    
C64   H41   S    
C45   H27   S    
C21   C33   A    
O14   V4    S    
C7    C39   A    
C55   H25   S    
C7    C58   S    
C7    C37   A    
C77   H75   S    
C26   H2    S    
O6    C4    A    
C61   H33   S    
C56   H26   S    
C49   C60   S    
O1    V2    S    
C73   H67   S    
O14   C58   A    
O2    V1    S    
C31   C33   A    
C72   H59   S    
C41   C43   S    
C75   H71   S    
O4    C2    A    
C52   C54   S    
C14   C76   S    
C77   H76   S    
C48   C50   S    
C9    C11   A    
C69   H58   S    
C65   H43   S    
C74   H66   S    
O3    V1    S    
C71   H63   S    
C67   C68   S    
C69   C70   S    
O16   C60   A    
C62   H36   S    
C66   H47   S    
O15   C59   A    
C67   H53   S    
C12   H10   S    
C10   C18   A    
C23   C25   A    
C30   C73   S    
O12   V3    S    
C28   C30   A    
O3    C1    A    
C62   H34   S    
C13   C15   A    
C27   H11   S    
C14   C16   A    
C50   C59   S    
C28   H12   S    
C23   C77   S    
C73   C74   S    
C78   H80   S    
C16   C18   A    
O7    V1    S    
C64   H42   S    
C5    C13   A    
C1    O8    A    
C8    C40   A    
O8    V2    S    
C24   C26   A    
C45   C49   S    
C9    C17   A    
O5    V1    S    
C21   C23   A    
C22   C24   A    
C19   C27   A    
O19   V4    S    
C39   H3    S    
C20   C28   A    
C46   C54   S    
O13   V3    S    
C45   C53   S    
C63   H38   S    
C69   H57   S    
C47   C55   S    
C40   H4    S    
C11   H9    S    
C27   C29   A    
O13   C57   A    
C44   H22   S    
O9    V2    S    
C17   C25   A    
C42   H16   S    
C43   H21   S    
O10   V1    S    
C44   C52   S    
C71   C72   S    
C31   C35   A    
C54   H30   S    
C58   O17   A    
C47   H23   S    
C64   H40   S    
C20   C22   A    
C78   H79   S    
