data_mof_unit_24511.cif
_audit_creation_date              2012-12-10T21:13:53-0500
_audit_creation_method            fapswitch 2.2
_symmetry_space_group_name_H-M    P1
_symmetry_Int_Tables_number       1
_space_group_crystal_system       triclinic
_cell_length_a                    15.409569
_cell_length_b                    16.744899
_cell_length_c                    17.529967
_cell_angle_alpha                 89.207037
_cell_angle_beta                  89.918405
_cell_angle_gamma                 66.878034
_cell_volume                      4159.49779421

loop_
_atom_site_label
_atom_site_type_symbol
_atom_type_description
_atom_site_fract_x
_atom_site_fract_y
_atom_site_fract_z
_atom_type_partial_charge
C1    C     C_R   0.501027 0.498837 0.647114 0.865949
C2    C     C_R   0.450350 0.581856 0.764123 -0.265737
C3    C     C_R   0.489117 0.506299 0.269416 -0.122434
C4    C     C_R   0.492592 0.500147 0.730099 -0.107786
C5    C     C_R   0.501420 0.572696 0.224331 0.079320
C6    C     C_R   0.520438 0.422684 0.775111 0.083688
C7    C     C_R   0.483265 0.574700 0.145999 -0.203882
C8    C     C_R   0.500092 0.430889 0.853077 -0.206035
C9    C     C_R   0.454798 0.513574 0.113369 0.092525
C10   C     C_R   0.456815 0.512400 0.885563 0.089297
C11   C     C_1   0.446316 0.515508 0.033191 -0.069937
C12   C     C_R   0.499560 0.501033 0.352698 0.867130
C13   C     C_1   0.446917 0.515237 0.965588 -0.067755
C14   C     C_R   0.565582 0.142913 0.540903 -0.296530
C15   C     C_R   0.435252 0.856536 0.457421 -0.301790
C16   C     C_R   0.676749 0.445725 0.498821 0.868349
C17   C     C_R   0.323205 0.554206 0.501677 0.885081
C18   C     C_R   0.565363 0.226981 0.540997 -0.022384
C19   C     C_R   0.435330 0.772515 0.458043 -0.019212
C20   C     C_R   0.433383 0.277891 0.458127 -0.012510
C21   C     C_R   0.566295 0.722531 0.541963 -0.008797
C22   C     C_R   0.429297 0.194496 0.456681 0.031037
C23   C     C_R   0.105456 0.401525 0.525103 -0.259569
C24   C     C_R   0.570454 0.805935 0.542740 0.030144
C25   C     C_R   0.497720 0.125452 0.498736 0.114231
C26   C     C_R   0.502573 0.874484 0.499842 0.114628
C27   C     C_1   0.499466 0.036770 0.499056 -0.065096
C28   C     C_1   0.500727 0.963207 0.499141 -0.064668
C29   C     C_R   0.779255 0.409514 0.497084 -0.100793
C30   C     C_R   0.220620 0.590464 0.503337 -0.085246
C31   C     C_R   0.928714 0.305118 0.543126 -0.212558
C32   C     C_R   0.071238 0.695483 0.457149 -0.210761
C33   C     C_R   0.831647 0.331000 0.534763 -0.233154
C34   C     C_R   0.893721 0.599808 0.476033 -0.232547
C35   C     C_R   0.168477 0.669027 0.465485 -0.243321
C36   C     C_R   0.824707 0.458971 0.463557 0.032599
C37   C     C_R   0.174084 0.542162 0.537531 0.033994
C38   C     C_R   0.915021 0.446105 0.491893 0.066518
C39   C     C_R   0.083787 0.555425 0.509425 0.057570
C40   C     C_R   0.970459 0.363428 0.524011 0.148950
C41   C     C_R   0.028897 0.637725 0.476637 0.152239
C42   C     C_R   0.951425 0.511828 0.490974 0.061467
C43   C     C_R   0.047475 0.489592 0.510227 0.062336
C44   C     C_3   0.353655 0.177277 0.412243 -0.433190
C45   C     C_R   0.066495 0.340409 0.536311 -0.227400
C46   C     C_3   0.282161 0.255711 0.368498 -0.369527
C47   C     C_3   0.207347 0.232081 0.329181 -0.864862
C48   C     C_3   0.645664 0.823746 0.587234 -0.434985
C49   C     C_3   0.716253 0.746166 0.632453 -0.369071
C50   C     C_3   0.790492 0.770521 0.671869 -0.860157
C51   C     C_3   0.212753 0.490664 0.611377 -0.445105
C52   C     C_3   0.230898 0.546985 0.672815 -0.330660
C53   C     C_3   0.260615 0.496997 0.748277 -0.870545
C54   C     C_3   0.785837 0.505784 0.387500 -0.398353
C55   C     C_3   0.861078 0.480958 0.324605 -0.336785
C56   C     C_R   0.932849 0.660796 0.464263 -0.235094
C57   C     C_3   0.818147 0.519941 0.247485 -0.902525
C58   C     C_3   0.415806 0.379053 0.121834 -0.424718
C59   C     C_3   0.501292 0.306925 0.086210 -0.326647
C60   C     C_3   0.472481 0.240331 0.046859 -0.900630
C61   C     C_3   0.388994 0.677933 0.877258 -0.424637
C62   C     C_3   0.464823 0.702763 0.914426 -0.323401
C63   C     C_3   0.420839 0.789432 0.955020 -0.904056
C64   C     C_3   0.532955 0.640045 0.259630 -0.376441
C65   C     C_3   0.556867 0.700308 0.204134 -0.396201
C66   C     C_3   0.589484 0.762171 0.247473 -0.875696
C67   C     C_R   0.444086 0.447448 0.157053 0.127014
C68   C     C_3   0.571049 0.333321 0.739870 -0.390549
C69   C     C_3   0.618028 0.257144 0.796127 -0.375853
C70   C     C_3   0.674347 0.173639 0.753837 -0.900624
C71   C     C_R   0.432722 0.588916 0.841997 0.121416
C72   C     C_R   0.461182 0.444709 0.234992 -0.258812
H1    H     H_    0.111591 0.275078 0.554466 0.145265
H2    H     H_    0.797578 0.290438 0.557933 0.153405
H3    H     H_    0.969684 0.242718 0.569555 0.139210
H4    H     H_    0.030636 0.757782 0.430403 0.140097
H5    H     H_    0.181147 0.379166 0.530181 0.152217
H6    H     H_    0.818147 0.622825 0.473878 0.149512
H7    H     H_    0.451846 0.394135 0.269016 0.161388
H8    H     H_    0.429692 0.640718 0.729680 0.163847
H9    H     H_    0.491927 0.623078 0.108787 0.139884
H10   H     H_    0.518579 0.374292 0.890003 0.139794
H11   H     H_    0.240806 0.179138 0.287871 0.256980
H12   H     H_    0.887777 0.726214 0.446323 0.145783
H13   H     H_    0.167328 0.210888 0.372065 0.261676
H14   H     H_    0.157117 0.289788 0.297865 0.248328
H15   H     H_    0.245849 0.309292 0.408516 0.225903
H16   H     H_    0.319359 0.278682 0.324446 0.215198
H17   H     H_    0.389232 0.124991 0.370708 0.211007
H18   H     H_    0.314262 0.152849 0.453211 0.209912
H19   H     H_    0.831363 0.790628 0.628937 0.261369
H20   H     H_    0.756412 0.824451 0.712147 0.256705
H21   H     H_    0.840049 0.713485 0.704361 0.250161
H22   H     H_    0.678199 0.724244 0.676552 0.220069
H23   H     H_    0.618645 0.091643 0.573751 0.146882
H24   H     H_    0.753148 0.691689 0.593454 0.224226
H25   H     H_    0.685808 0.847139 0.546102 0.210289
H26   H     H_    0.609665 0.876959 0.627850 0.211727
H27   H     H_    0.203859 0.477591 0.769939 0.255190
H28   H     H_    0.326110 0.437972 0.740618 0.268203
H29   H     H_    0.274076 0.538850 0.791282 0.255931
H30   H     H_    0.287558 0.568209 0.654476 0.215915
H31   H     H_    0.165519 0.605819 0.682086 0.225250
H32   H     H_    0.160727 0.467074 0.636239 0.217019
H33   H     H_    0.278571 0.433113 0.600322 0.221776
H34   H     H_    0.382720 0.907387 0.423817 0.146650
H35   H     H_    0.762383 0.496944 0.230937 0.263498
H36   H     H_    0.787326 0.591902 0.250000 0.267530
H37   H     H_    0.873916 0.499797 0.203200 0.252278
H38   H     H_    0.917039 0.504596 0.338533 0.235784
H39   H     H_    0.894263 0.409069 0.319889 0.226461
H40   H     H_    0.728996 0.486143 0.366820 0.191468
H41   H     H_    0.751136 0.577043 0.392908 0.195429
H42   H     H_    0.439937 0.209886 0.088527 0.264567
H43   H     H_    0.421396 0.271906 0.000083 0.261174
H44   H     H_    0.535780 0.188772 0.022096 0.247695
H45   H     H_    0.617908 0.239595 0.573829 0.127715
H46   H     H_    0.535182 0.334846 0.043447 0.222304
H47   H     H_    0.554071 0.273576 0.131491 0.222485
H48   H     H_    0.384776 0.349810 0.165920 0.191075
H49   H     H_    0.359950 0.409690 0.078086 0.206474
H50   H     H_    0.379967 0.841801 0.913955 0.264889
H51   H     H_    0.373435 0.785201 0.001303 0.260201
H52   H     H_    0.477400 0.806015 0.980645 0.248313
H53   H     H_    0.506369 0.652232 0.956716 0.222470
H54   H     H_    0.513956 0.707689 0.869853 0.221027
H55   H     H_    0.351129 0.727634 0.832982 0.192900
H56   H     H_    0.383288 0.759498 0.424896 0.119741
H57   H     H_    0.335347 0.678757 0.920067 0.205330
H58   H     H_    0.532243 0.804479 0.285065 0.264943
H59   H     H_    0.652603 0.725262 0.282911 0.258262
H60   H     H_    0.607943 0.803905 0.206264 0.249804
H61   H     H_    0.614071 0.660969 0.165001 0.229577
H62   H     H_    0.493336 0.740240 0.170210 0.225129
H63   H     H_    0.475590 0.682084 0.297263 0.220667
H64   H     H_    0.597229 0.604930 0.294512 0.216123
H65   H     H_    0.627172 0.156252 0.715667 0.260327
H66   H     H_    0.731024 0.181662 0.719378 0.256464
H67   H     H_    0.383625 0.331835 0.426032 0.128843
H68   H     H_    0.707315 0.119754 0.795672 0.253467
H69   H     H_    0.666591 0.272099 0.834824 0.228225
H70   H     H_    0.563246 0.245718 0.830550 0.223062
H71   H     H_    0.519364 0.318178 0.705064 0.220791
H72   H     H_    0.627408 0.336604 0.701793 0.203486
H73   H     H_    0.615820 0.668917 0.574551 0.131691
H74   H     H_    0.202868 0.709193 0.442065 0.156538
N1    N     N_R   0.499980 0.292780 0.499970 -0.097249
N2    N     N_R   0.500020 0.707220 0.500030 -0.096175
O1    O     O_R   0.500000 0.433430 0.610870 -0.625174
O2    O     O_R   0.500000 0.566570 0.389130 -0.631551
O3    O     O_R   0.500010 0.566520 0.610900 -0.614983
O4    O     O_R   0.499990 0.433480 0.389100 -0.610184
O5    O     O_R   0.632240 0.395450 0.499980 -0.610780
O6    O     O_R   0.367760 0.604550 0.500020 -0.614652
O7    O     O_R   0.632250 0.528530 0.500000 -0.620007
O8    O     O_R   0.367750 0.471470 0.500000 -0.620825
Zn1   Zn    Zn3+2 0.500000 0.411140 0.499980 0.922122
Zn2   Zn    Zn3+2 0.500000 0.588860 0.500020 0.918023

loop_
_geom_bond_atom_site_label_1
_geom_bond_atom_site_label_2
_ccdc_geom_bond_type
C64   H64   S    
C52   H31   S    
C34   C56   A    
C23   C45   A    
C63   H51   S    
C12   O4    A    
C60   H42   S    
C34   C42   A    
C9    C67   A    
C63   H52   S    
C46   H15   S    
C39   C41   A    
C53   H27   S    
C15   C19   A    
C48   H25   S    
C29   C36   A    
C52   H30   S    
C30   C35   A    
C8    H10   S    
C47   H13   S    
C15   H34   S    
O8    Zn1   S    
C24   C26   A    
O6    Zn2   S    
C72   H7    S    
C37   C51   S    
C69   H69   S    
C54   C55   S    
C54   H41   S    
C29   C33   A    
C19   H56   S    
C23   C43   A    
C31   C40   A    
C68   H71   S    
C45   H1    S    
C67   C72   A    
C49   C50   S    
C14   C18   A    
C3    C12   S    
C46   C47   S    
C57   H37   S    
C53   H29   S    
C68   C69   S    
C22   C25   A    
C21   N2    A    
C32   C41   A    
C31   C33   A    
C1    O1    A    
C47   H11   S    
C49   H22   S    
O2    Zn2   S    
C1    O3    A    
C46   H16   S    
C65   H62   S    
C61   H57   S    
C70   H68   S    
C55   H39   S    
C10   C71   A    
C61   C71   S    
C6    C68   S    
C64   H63   S    
C59   C60   S    
C14   C25   A    
O7    Zn2   S    
C17   C30   S    
C61   C62   S    
C17   O6    A    
C44   C46   S    
C56   H12   S    
C66   H60   S    
C33   H2    S    
C53   H28   S    
C40   C45   A    
C22   C44   S    
C51   C52   S    
C24   C48   S    
C32   C35   A    
C12   O2    A    
C36   C54   S    
C4    C6    A    
C18   N1    A    
C62   H54   S    
C15   C26   A    
C39   C43   A    
C69   H70   S    
C30   C37   A    
C35   H74   S    
C21   H73   S    
C2    C4    A    
O3    Zn2   S    
C41   C56   A    
C62   C63   S    
C58   C67   S    
C31   H3    S    
C51   H33   S    
C16   O7    A    
C58   H48   S    
C20   N1    A    
C54   H40   S    
C61   H55   S    
N2    Zn2   S    
C23   H5    S    
C9    C11   S    
C18   H45   S    
C50   H20   S    
C48   C49   S    
C57   H35   S    
C20   C22   A    
C70   H66   S    
C59   H46   S    
C55   C57   S    
C55   H38   S    
C60   H44   S    
C42   C43   A    
C2    C71   A    
N1    Zn1   S    
C14   H23   S    
C16   O5    A    
C63   H50   S    
C44   H18   S    
C52   C53   S    
C20   H67   S    
C5    C7    A    
C66   H59   S    
C7    C9    A    
O4    Zn1   S    
C58   H49   S    
C59   H47   S    
C51   H32   S    
C7    H9    S    
C3    C5    A    
C10   C13   S    
C32   H4    S    
C62   H53   S    
C6    C8    A    
C50   H21   S    
C38   C42   A    
C25   C27   S    
C48   H26   S    
C26   C28   S    
C19   N2    A    
C1    C4    S    
C64   C65   S    
C36   C38   A    
C3    C72   A    
C16   C29   S    
C37   C39   A    
C34   H6    S    
C38   C40   A    
C11   C13   T    
C68   H72   S    
C49   H24   S    
O5    Zn1   S    
C69   C70   S    
C58   C59   S    
C2    H8    S    
C50   H19   S    
C57   H36   S    
C5    C64   S    
C70   H65   S    
C8    C10   A    
C65   C66   S    
C21   C24   A    
C27   C28   T    
C47   H14   S    
C60   H43   S    
C17   O8    A    
O1    Zn1   S    
C65   H61   S    
C44   H17   S    
C66   H58   S    
