data_mof_unit_51073.cif
_audit_creation_date              2012-12-11T15:12:45-0500
_audit_creation_method            fapswitch 2.2
_symmetry_space_group_name_H-M    P1
_symmetry_Int_Tables_number       1
_space_group_crystal_system       triclinic
_cell_length_a                    13.866034
_cell_length_b                    13.990861
_cell_length_c                    28.00448
_cell_angle_alpha                 91.329105
_cell_angle_beta                  88.808657
_cell_angle_gamma                 118.520273
_cell_volume                      4771.94930181

loop_
_atom_site_label
_atom_site_type_symbol
_atom_type_description
_atom_site_fract_x
_atom_site_fract_y
_atom_site_fract_z
_atom_type_partial_charge
C1    C     C_R   0.380818 0.096725 0.432903 0.543929
C2    C     C_1   0.375756 0.740417 0.386318 0.047386
C3    C     C_3   0.327314 0.595949 0.235237 -0.039024
C4    C     C_3   0.330755 0.680790 0.200003 -0.045960
C5    C     C_3   0.427495 0.688027 0.260636 0.256119
C6    C     C_3   0.349571 0.709518 0.293148 0.039345
C7    C     C_3   0.432242 0.772401 0.224670 -0.086902
C8    C     C_3   0.352837 0.791463 0.257667 0.227496
C9    C     C_1   0.315988 0.651135 0.149814 0.009505
C10   C     C_1   0.360454 0.722344 0.344516 0.033129
C11   C     C_3   0.745923 0.016959 0.267436 0.066025
C12   C     C_R   0.401861 0.780043 0.433755 0.549046
C13   C     C_3   0.922164 0.197735 0.279624 0.488042
C14   C     C_3   0.936308 0.220573 0.223515 0.438898
C15   C     C_1   0.879825 0.185582 0.106873 0.081228
C16   C     C_3   0.796015 0.133227 0.291689 -0.022150
C17   C     C_3   0.775705 0.028921 0.213014 -0.228999
C18   C     C_3   0.822642 0.149695 0.198079 0.058008
C19   C     C_3   0.736581 0.185407 0.214461 0.040160
C20   C     C_3   0.733716 0.189630 0.269906 -0.301204
C21   C     C_1   0.843067 0.162051 0.146507 0.103786
C22   C     C_1   0.776862 0.127257 0.343474 0.050497
C23   C     C_R   0.718115 0.117381 0.433142 0.551550
C24   C     C_1   0.756776 0.124960 0.385363 0.079064
C25   C     C_3   0.451534 0.155605 0.265507 -0.370831
C26   C     C_3   0.377309 0.281488 0.283932 0.218616
C27   C     C_3   0.368499 0.295375 0.228132 0.407434
C28   C     C_1   0.304124 0.197799 0.109486 0.070450
C29   C     C_3   0.359128 0.164370 0.294187 -0.022200
C30   C     C_3   0.431136 0.153175 0.211133 -0.282960
C31   C     C_3   0.338103 0.182657 0.201752 -0.017950
C32   C     C_3   0.227311 0.093734 0.224107 0.101016
C33   C     C_3   0.247089 0.071431 0.275807 0.126179
C34   C     C_R   0.377200 0.103307 0.564108 0.546583
C35   C     C_1   0.323635 0.188976 0.150227 0.038942
C36   C     C_1   0.367068 0.147112 0.345006 0.071884
C37   C     C_1   0.369807 0.126486 0.386062 0.094057
C38   C     C_3   0.369201 0.825531 0.746193 -0.135207
C39   C     C_3   0.447778 0.697230 0.730628 0.352194
C40   C     C_3   0.421891 0.652345 0.784078 0.412855
C41   C     C_1   0.300387 0.616846 0.895466 0.120818
C42   C     C_3   0.353480 0.724973 0.714411 -0.124155
C43   C     C_3   0.347087 0.798784 0.800825 0.385022
C44   C     C_3   0.329300 0.679959 0.806589 -0.066758
C45   C     C_R   0.404081 0.788455 0.569155 0.571088
C46   C     C_3   0.220310 0.609188 0.779550 -0.255214
C47   C     C_3   0.233536 0.634442 0.725300 0.088248
C48   C     C_1   0.311554 0.650343 0.856217 0.057686
C49   C     C_1   0.364991 0.745100 0.661753 0.118063
C50   C     C_1   0.378975 0.759322 0.618897 0.170647
C51   C     C_3   0.774192 0.167367 0.735960 -0.250701
C52   C     C_3   0.948070 0.307977 0.698097 0.443904
C53   C     C_3   0.008880 0.337903 0.748859 0.041001
C54   C     C_1   0.004173 0.260668 0.876521 0.066314
C55   C     C_3   0.861451 0.180313 0.696815 -0.101667
C56   C     C_R   0.717256 0.119931 0.566794 0.544548
C57   C     C_3   0.829816 0.214962 0.784200 0.100467
C58   C     C_3   0.952222 0.237261 0.783007 -0.089185
C59   C     C_3   0.972902 0.144876 0.757805 0.069100
C60   C     C_3   0.907820 0.098700 0.709918 0.383963
C61   C     C_1   0.992286 0.255975 0.833420 0.037972
C62   C     C_1   0.807939 0.153844 0.650473 0.174994
C63   C     C_1   0.768001 0.138123 0.611763 0.173263
C64   C     C_3   0.356621 0.075680 0.717506 0.378070
C65   C     C_3   0.253020 0.181674 0.719695 0.106069
C66   C     C_3   0.246022 0.173185 0.774856 0.165159
C67   C     C_3   0.248920 0.619546 0.267980 -0.135130
C68   C     C_1   0.315236 0.193074 0.888789 0.025026
C69   C     C_3   0.358835 0.183165 0.700850 0.037950
C70   C     C_3   0.349164 0.069371 0.773973 -0.181846
C71   C     C_3   0.348583 0.171433 0.795627 -0.066438
C72   C     C_3   0.458229 0.267849 0.778701 -0.186634
C73   C     C_3   0.455395 0.287577 0.724384 0.155572
C74   C     C_1   0.337732 0.176010 0.848480 0.006265
C75   C     C_1   0.358125 0.177484 0.648099 0.052833
C76   C     C_1   0.359311 0.148393 0.607460 0.075609
C77   C     C_R   0.941891 0.224753 0.064042 0.567592
C78   C     C_3   0.251895 0.703042 0.231944 -0.082277
C79   C     C_R   0.282163 0.553059 0.066846 0.548617
C80   C     C_R   0.270672 0.214703 0.064146 0.543175
C81   C     C_R   0.005540 0.264791 0.928448 0.574743
C82   C     C_R   0.283921 0.559931 0.937587 0.555442
C83   C     C_R   0.273722 0.218009 0.932546 0.516235
C84   C     C_1   0.301039 0.612623 0.110393 0.045062
Cr1   Cr    Cr6+3 0.582410 0.169020 0.499790 1.100517
Cr2   Cr    Cr6+3 0.330970 0.913410 0.499920 1.107795
Cr3   Cr    Cr6+3 0.586650 0.917610 0.500320 1.122615
Cr4   Cr    Cr6+3 0.083990 0.164050 0.998170 1.093945
Cr5   Cr    Cr6+3 0.080550 0.415820 0.000690 1.081356
Cr6   Cr    Cr6+3 0.335830 0.419220 0.999920 1.098245
H1    H     H_    0.180924 0.711732 0.219621 0.205468
H2    H     H_    0.646860 0.146373 0.282069 0.091171
H3    H     H_    0.766056 0.274441 0.283002 0.215695
H4    H     H_    0.654208 0.123042 0.201562 0.126636
H5    H     H_    0.654692 0.976209 0.271225 0.164757
H6    H     H_    0.701006 0.976029 0.192072 0.104693
H7    H     H_    0.508326 0.210153 0.192781 0.191330
H8    H     H_    0.172862 0.567434 0.287793 0.219110
H9    H     H_    0.532541 0.226251 0.274080 0.160925
H10   H     H_    0.462138 0.338266 0.295251 0.174308
H11   H     H_    0.252302 0.994567 0.276297 0.194555
H12   H     H_    0.458469 0.083784 0.275946 0.176673
H13   H     H_    0.410362 0.072174 0.195993 0.164453
H14   H     H_    0.168794 0.126862 0.225934 0.210282
H15   H     H_    0.451630 0.890929 0.741223 0.229934
H16   H     H_    0.219024 0.560046 0.705154 0.226148
H17   H     H_    0.151633 0.619433 0.795314 0.201304
H18   H     H_    0.505978 0.836423 0.206536 0.122430
H19   H     H_    0.316849 0.858375 0.733426 0.267835
H20   H     H_    0.193047 0.523217 0.785590 0.196208
H21   H     H_    0.832086 0.294975 0.786376 0.177409
H22   H     H_    0.728537 0.210257 0.725155 0.210266
H23   H     H_    0.095441 0.357861 0.744218 0.229831
H24   H     H_    0.711122 0.083747 0.739409 0.274242
H25   H     H_    0.060005 0.184579 0.747032 0.215466
H26   H     H_    0.273800 0.995573 0.785734 0.217158
H27   H     H_    0.182533 0.109480 0.705084 0.221914
H28   H     H_    0.172219 0.093974 0.783553 0.152601
H29   H     H_    0.313350 0.514135 0.224254 0.244120
H30   H     H_    0.438402 0.356310 0.719568 0.263142
H31   H     H_    0.526411 0.249366 0.785033 0.187365
H32   H     H_    0.418137 0.062830 0.788743 0.249715
H33   H     H_    0.480493 0.340023 0.801413 0.193538
H34   H     H_    0.836357 0.000125 0.204456 0.228287
O1    O     O_R   0.697410 0.194200 0.448260 -0.484975
O2    O     O_R   0.341890 0.819480 0.547990 -0.479968
O3    O     O_R   0.497470 0.803140 0.552040 -0.464614
O4    O     O_R   0.681130 0.023390 0.548100 -0.477921
O5    O     O_3   0.500010 0.000010 0.500010 -0.324111
O6    O     O_R   0.175070 0.138920 0.049300 -0.471417
O7    O     O_R   0.987530 0.169680 0.046430 -0.481302
O8    O     O_R   0.966170 0.322080 0.051780 -0.478274
O9    O     O_R   0.184260 0.509700 0.049190 -0.490492
O10   O     O_R   0.358220 0.530810 0.052620 -0.480727
O11   O     O_R   0.327700 0.313010 0.046780 -0.480654
O12   O     O_R   0.476980 0.157590 0.451760 -0.501399
O13   O     O_R   0.175720 0.143820 0.946060 -0.502525
O14   O     O_R   0.988130 0.174220 0.950720 -0.474342
O15   O     O_R   0.966820 0.326980 0.948540 -0.453591
O16   O     O_R   0.184860 0.514240 0.953480 -0.540950
O17   O     O_R   0.358870 0.535710 0.949380 -0.465008
O18   O     O_R   0.328300 0.317550 0.951070 -0.496346
O19   O     O_3   0.166790 0.333030 0.999590 -0.335888
O20   O     O_R   0.305060 0.002060 0.448040 -0.486673
O21   O     O_R   0.341740 0.818420 0.452260 -0.494757
O22   O     O_R   0.497310 0.801990 0.448770 -0.483828
O23   O     O_R   0.680990 0.022320 0.452370 -0.497795
O24   O     O_R   0.697560 0.195350 0.551530 -0.487571
O25   O     O_R   0.477130 0.158650 0.547490 -0.490208
O26   O     O_R   0.305220 0.003210 0.551310 -0.481539
O27   O     O_3   0.971349 0.134408 0.293469 -0.558275
H35   H     H_    0.963563 0.080013 0.268555 0.374848
O28   O     O_3   0.012583 0.190784 0.203761 -0.695649
H36   H     H_    0.085054 0.242753 0.216907 0.403209
O29   O     O_3   0.976425 0.331707 0.212793 -0.604226
H37   H     H_    0.932448 0.359912 0.230170 0.386611
O30   O     O_3   0.759203 0.285788 0.194941 -0.667274
H38   H     H_    0.697820 0.299736 0.204632 0.359610
S1    S     S_3+6 0.299752 0.324501 0.323518 0.103530
O31   O     O_2   0.179759 0.245968 0.322070 -0.088466
O32   O     O_2   0.339099 0.332395 0.373817 -0.311915
O33   O     O_3   0.318886 0.447342 0.308365 -0.460434
H39   H     H_    0.303928 0.478570 0.337919 0.357411
S2    S     S_3+6 0.497792 0.405801 0.204525 0.032271
O34   O     O_2   0.521133 0.380981 0.154439 -0.294897
O35   O     O_2   0.489141 0.508508 0.203186 -0.197391
O36   O     O_3   0.605481 0.427715 0.238408 -0.546645
H40   H     H_    0.668273 0.493508 0.225121 0.411743
O37   O     O_3   0.284843 0.323027 0.220890 -0.671006
H41   H     H_    0.285941 0.340829 0.186731 0.330267
O38   O     O_3   0.159484 0.058161 0.306024 -0.615845
H42   H     H_    0.097007 0.985145 0.299188 0.374392
S3    S     S_3+6 0.155591 0.968241 0.189559 -0.011370
O39   O     O_2   0.072400 0.880177 0.220655 -0.228702
O40   O     O_2   0.095423 0.986363 0.149678 -0.244873
O41   O     O_3   0.241009 0.924909 0.166342 -0.562085
H43   H     H_    0.261735 0.957359 0.134234 0.356426
O42   O     O_3   0.364439 0.892325 0.270810 -0.728611
H44   H     H_    0.352974 0.920646 0.240666 0.341591
S4    S     S_3+6 0.450494 0.899367 0.839456 0.079138
O43   O     O_2   0.474877 0.850489 0.881728 -0.247207
O44   O     O_2   0.551937 0.960454 0.810116 -0.113865
O45   O     O_3   0.406843 0.984651 0.862076 -0.549480
H45   H     H_    0.454290 0.021009 0.889873 0.374892
S5    S     S_3+6 0.479163 0.618149 0.684715 0.106025
O46   O     O_2   0.377214 0.526761 0.663877 -0.210021
O47   O     O_2   0.541431 0.692215 0.644229 -0.265662
O48   O     O_3   0.559925 0.568873 0.704585 -0.438357
H46   H     H_    0.636120 0.625088 0.697418 0.377343
O49   O     O_3   0.546318 0.794935 0.733251 -0.588260
H47   H     H_    0.554503 0.834870 0.703468 0.375860
S6    S     S_3+6 0.549078 0.699803 0.819716 0.164384
O50   O     O_2   0.521521 0.639723 0.866063 -0.268426
O51   O     O_2   0.628008 0.673198 0.792500 -0.209929
O52   O     O_3   0.620915 0.831803 0.833063 -0.342833
H48   H     H_    0.682183 0.838755 0.853020 0.382149
S7    S     S_3+6 0.369098 0.505929 0.785721 0.067678
O53   O     O_2   0.293080 0.450990 0.745395 -0.215666
O54   O     O_2   0.462690 0.482268 0.781424 -0.241703
O55   O     O_3   0.301590 0.451244 0.836979 -0.558524
H49   H     H_    0.351167 0.433917 0.855530 0.384159
S8    S     S_3+6 0.128902 0.670072 0.705537 0.089247
O56   O     O_2   0.150166 0.708408 0.654860 -0.204779
O57   O     O_2   0.017553 0.572686 0.707280 -0.160042
O58   O     O_3   0.122298 0.767491 0.739558 -0.436962
H50   H     H_    0.062140 0.728637 0.762950 0.377762
O59   O     O_3   0.250361 0.803780 0.813315 -0.680509
H51   H     H_    0.232840 0.784956 0.847501 0.348335
S9    S     S_3+6 0.045756 0.359387 0.648094 0.121200
O60   O     O_2   0.055346 0.465661 0.632559 -0.158517
O61   O     O_2   0.157821 0.380746 0.662038 -0.237201
O62   O     O_3   0.005409 0.276537 0.599758 -0.485950
H52   H     H_    0.063344 0.314222 0.575311 0.379342
O63   O     O_3   0.886826 0.363984 0.691171 -0.575292
H53   H     H_    0.857611 0.379001 0.721156 0.361680
O64   O     O_3   0.006847 0.430289 0.768835 -0.716883
H54   H     H_    0.015767 0.432348 0.803904 0.327182
S10   S     S_3+6 0.801074 0.958395 0.718647 0.119172
O65   O     O_2   0.733567 0.947220 0.762511 -0.211613
O66   O     O_2   0.730888 0.921959 0.674919 -0.255471
O67   O     O_3   0.854388 0.874104 0.726133 -0.377219
H55   H     H_    0.790968 0.799943 0.724312 0.383798
S11   S     S_3+6 0.550838 0.692175 0.281581 0.082935
O68   O     O_2   0.636505 0.733850 0.242596 -0.175005
O69   O     O_2   0.591306 0.768835 0.323755 -0.324179
O70   O     O_3   0.531693 0.569728 0.298275 -0.409386
H56   H     H_    0.534333 0.572699 0.333623 0.370186
S12   S     S_3+6 0.985892 0.077178 0.660608 0.083260
O71   O     O_2   0.088999 0.175884 0.647152 -0.270962
O72   O     O_2   0.015652 0.990648 0.672837 -0.206423
O73   O     O_3   0.907956 0.032252 0.611462 -0.465533
H57   H     H_    0.954576 0.021296 0.587018 0.379136
O74   O     O_3   0.961352 0.062912 0.789383 -0.650503
H58   H     H_    0.898243 0.046810 0.811013 0.393852
S13   S     S_3+6 0.747651 0.167811 0.837769 0.052869
O75   O     O_2   0.737820 0.061948 0.853877 -0.179985
O76   O     O_2   0.798494 0.251358 0.877040 -0.296960
O77   O     O_3   0.624751 0.159044 0.827322 -0.477168
H59   H     H_    0.606729 0.190386 0.856031 0.355854
O78   O     O_3   0.260495 0.984261 0.700671 -0.665012
H60   H     H_    0.267457 0.973889 0.665916 0.378346
O79   O     O_3   0.246097 0.273734 0.705755 -0.568423
H61   H     H_    0.276205 0.294206 0.672969 0.384001
O80   O     O_3   0.232038 0.258203 0.795436 -0.580812
H62   H     H_    0.180537 0.228229 0.822934 0.323230
O81   O     O_3   0.558193 0.318771 0.703186 -0.594042
H63   H     H_    0.610086 0.390662 0.717246 0.357396
S14   S     S_3+6 0.477279 0.070093 0.692884 -0.031784
O82   O     O_2   0.546135 0.074738 0.733603 -0.302222
O83   O     O_2   0.442260 0.966253 0.665266 -0.394601
O84   O     O_3   0.557351 0.169936 0.655379 -0.443868
H64   H     H_    0.562011 0.132935 0.625665 0.353586
O85   O     O_3   0.782658 0.949511 0.288020 -0.602394
H65   H     H_    0.761854 0.942312 0.322305 0.381175
S15   S     S_3+6 0.994025 0.321311 0.315160 0.063448
O86   O     O_2   0.105762 0.383196 0.293177 -0.244226
O87   O     O_2   0.939063 0.391448 0.316777 -0.333381
O88   O     O_3   0.007622 0.289694 0.371344 -0.444589
H66   H     H_    0.065795 0.358066 0.385477 0.371847

loop_
_geom_bond_atom_site_label_1
_geom_bond_atom_site_label_2
_ccdc_geom_bond_type
C11   O85   S    
O38   H42   S    
S15   O87   D    
O49   H47   S    
Cr3   O22   S    
C14   O29   S    
Cr2   O2    S    
C18   C21   S    
O37   H41   S    
C14   C18   S    
Cr1   O1    S    
S11   O68   D    
Cr1   O24   S    
Cr4   O6    S    
C20   H3    S    
C2    C12   S    
C49   C50   T    
Cr3   O3    S    
O42   H44   S    
S10   O65   D    
S11   O70   S    
Cr2   O20   S    
C7    C8    S    
C57   H21   S    
O58   H50   S    
C44   C46   S    
C5    C6    S    
C20   H2    S    
C29   C36   S    
C26   C27   S    
O30   H38   S    
C80   O11   A    
S8    O57   D    
C14   O28   S    
C33   H11   S    
S11   O69   D    
C22   C24   T    
C36   C37   T    
C38   C42   S    
C54   C81   S    
Cr2   O26   S    
S1    O31   D    
C30   C31   S    
Cr6   O10   S    
C25   H12   S    
S5    O47   D    
C40   S7    S    
C68   C74   T    
C13   S15   S    
C55   C62   S    
C29   C33   S    
S9    O62   S    
O80   H62   S    
C43   O59   S    
C17   C18   S    
C18   C19   S    
C77   O7    A    
C12   O22   A    
S7    O54   D    
Cr3   O4    S    
C82   O16   A    
C67   H8    S    
Cr1   O5    S    
C46   C47   S    
C25   H9    S    
C11   C17   S    
C66   C71   S    
C28   C35   T    
S4    O44   D    
O55   H49   S    
Cr5   O15   S    
S8    O58   S    
C64   S14   S    
C30   H13   S    
S13   O75   D    
S1    O32   D    
C69   C73   S    
C70   C71   S    
C51   C57   S    
C64   C70   S    
C72   H31   S    
O74   H58   S    
C27   O37   S    
Cr4   O19   S    
Cr6   O19   S    
C52   C55   S    
C1    C37   S    
C23   O1    A    
Cr5   O16   S    
C58   C61   S    
C56   O4    A    
C32   H14   S    
S15   O88   S    
C59   C60   S    
C73   H30   S    
C55   C60   S    
C8    C78   S    
S13   O76   D    
C59   O74   S    
C67   C78   S    
C82   O17   A    
C38   H15   S    
S12   O72   D    
S12   O71   D    
C57   S13   S    
C34   O25   A    
C53   H23   S    
S9    O60   D    
C39   C42   S    
C57   C58   S    
S3    O40   D    
C25   C29   S    
C81   O14   A    
C79   O9    A    
C33   O38   S    
C43   S4    S    
C56   C63   S    
C51   H24   S    
Cr5   O9    S    
S14   O83   D    
C27   C31   S    
O59   H51   S    
C19   O30   S    
S6    O52   S    
O84   H64   S    
C80   O6    A    
O64   H54   S    
C13   O27   S    
S8    O56   D    
O36   H40   S    
C5    C7    S    
C39   O49   S    
O63   H53   S    
S5    O48   S    
C6    C8    S    
C73   O81   S    
C42   C49   S    
C4    C7    S    
C58   C59   S    
S3    O39   D    
C23   O23   A    
C47   S8    S    
O48   H46   S    
C60   S12   S    
C77   O8    A    
S6    O51   D    
C12   O21   A    
C56   O24   A    
S7    O55   S    
C75   C76   T    
O45   H45   S    
C4    C78   S    
C79   C84   S    
O85   H65   S    
C60   S10   S    
C27   S2    S    
C83   O18   A    
O67   H55   S    
C11   C16   S    
C70   H32   S    
C17   H34   S    
S10   O66   D    
C31   C32   S    
C40   S6    S    
C51   H22   S    
C15   C21   T    
C45   O2    A    
C16   C20   S    
C47   H16   S    
C46   H17   S    
C62   C63   T    
C52   O63   S    
O79   H61   S    
S1    O33   S    
C26   S1    S    
C17   H6    S    
C64   C69   S    
C38   H19   S    
C44   C48   S    
Cr5   O8    S    
Cr4   O14   S    
Cr6   O18   S    
C19   H4    S    
C3    H29   S    
O41   H43   S    
C5    S11   S    
C65   C66   S    
C53   O64   S    
C46   H20   S    
C43   C44   S    
C66   H28   S    
C52   S9    S    
S13   O77   S    
C31   C35   S    
C9    C84   T    
C3    C4    S    
C1    O12   A    
Cr2   O21   S    
C6    C67   S    
C83   O13   A    
O73   H57   S    
S14   O82   D    
S10   O67   S    
O33   H39   S    
C32   S3    S    
S3    O41   S    
C11   H5    S    
C25   C30   S    
C81   O15   A    
C79   O10   A    
O77   H59   S    
S2    O34   D    
C16   C22   S    
C23   C24   S    
C68   C83   S    
S2    O36   S    
C3    C67   S    
C72   C73   S    
C3    C5    S    
C6    C10   S    
C71   C74   S    
C53   C58   S    
S14   O84   S    
Cr2   O5    S    
C26   H10   S    
C54   C61   T    
S4    O45   S    
C78   H1    S    
C65   O79   S    
C19   C20   S    
C70   H26   S    
S6    O50   D    
Cr3   O5    S    
O81   H63   S    
S2    O35   D    
O88   H66   S    
O28   H36   S    
C38   C43   S    
C72   H33   S    
C1    O20   A    
Cr5   O19   S    
C32   C33   S    
Cr6   O11   S    
S5    O46   D    
C15   C77   S    
C66   O80   S    
C45   C50   S    
C45   O3    A    
C65   C69   S    
C41   C82   S    
C39   S5    S    
O78   H60   S    
S9    O61   D    
C41   C48   T    
C69   C75   S    
C51   C55   S    
C42   C47   S    
C34   O26   A    
S7    O53   D    
C28   C80   S    
Cr1   O25   S    
Cr4   O13   S    
C64   O78   S    
Cr6   O17   S    
Cr1   O12   S    
O52   H48   S    
C39   C40   S    
C8    O42   S    
C40   C44   S    
C71   C72   S    
O62   H52   S    
C26   C29   S    
C59   H25   S    
O70   H56   S    
Cr3   O23   S    
C13   C16   S    
C34   C76   S    
O29   H37   S    
C65   H27   S    
C7    H18   S    
C30   H7    S    
Cr4   O7    S    
C4    C9    S    
C13   C14   S    
O27   H35   S    
S12   O73   S    
S4    O43   D    
S15   O86   D    
C52   C53   S    
C2    C10   T    
