data_mof_unit_40070.cif
_audit_creation_date              2012-12-11T14:13:21-0500
_audit_creation_method            fapswitch 2.2
_symmetry_space_group_name_H-M    P1
_symmetry_Int_Tables_number       1
_space_group_crystal_system       triclinic
_cell_length_a                    17.160702
_cell_length_b                    18.014648
_cell_length_c                    17.396005
_cell_angle_alpha                 89.999888
_cell_angle_beta                  89.999075
_cell_angle_gamma                 89.999549
_cell_volume                      5377.87067257

loop_
_atom_site_label
_atom_site_type_symbol
_atom_type_description
_atom_site_fract_x
_atom_site_fract_y
_atom_site_fract_z
_atom_type_partial_charge
C1    C     C_R   0.580315 0.332224 0.143794 0.530401
C2    C     C_R   0.199655 0.107547 0.586109 0.632717
C3    C     C_R   0.919687 0.167770 0.643798 0.530386
C4    C     C_R   0.800345 0.892455 0.586117 0.632679
C5    C     C_R   0.080312 0.167774 0.356205 0.530444
C6    C     C_R   0.199655 0.892454 0.413889 0.632710
C7    C     C_R   0.919668 0.832186 0.356234 0.530647
C8    C     C_R   0.800344 0.107550 0.413906 0.632775
C9    C     C_R   0.611456 0.695106 0.089981 0.477053
C10   C     C_R   0.333431 0.576322 0.145856 0.422794
C11   C     C_R   0.388534 0.304893 0.089974 0.476980
C12   C     C_R   0.699652 0.607550 0.086127 0.632715
C13   C     C_R   0.666579 0.423671 0.145849 0.422842
C14   C     C_R   0.611470 0.304893 0.910030 0.476924
C15   C     C_R   0.333429 0.423675 0.854146 0.422809
C16   C     C_R   0.388534 0.695107 0.910029 0.476962
C17   C     C_R   0.666571 0.576323 0.854145 0.422797
C18   C     C_R   0.111464 0.195107 0.589973 0.477000
C19   C     C_R   0.833417 0.076328 0.645847 0.422782
C20   C     C_R   0.888536 0.804893 0.589979 0.476988
C21   C     C_R   0.166574 0.923675 0.645851 0.422801
C22   C     C_R   0.111466 0.804894 0.410024 0.476896
C23   C     C_R   0.419689 0.667776 0.143793 0.530368
C24   C     C_R   0.833449 0.923673 0.354131 0.422768
C25   C     C_R   0.888530 0.195109 0.410038 0.476974
C26   C     C_R   0.166575 0.076325 0.354148 0.422805
C27   C     C_R   0.635839 0.366553 0.188041 -0.403579
C28   C     C_R   0.689769 0.680943 0.098306 -0.418006
C29   C     C_R   0.364172 0.633441 0.188046 -0.403530
C30   C     C_R   0.310214 0.319061 0.098291 -0.417919
C31   C     C_R   0.635832 0.633443 0.811955 -0.403575
C32   C     C_R   0.689792 0.319061 0.901718 -0.417873
C33   C     C_R   0.364167 0.366553 0.811958 -0.403561
C34   C     C_R   0.300344 0.392454 0.086110 0.632714
C35   C     C_R   0.310215 0.680941 0.901712 -0.417906
C36   C     C_R   0.135834 0.866558 0.688043 -0.403562
C37   C     C_R   0.189784 0.180941 0.598290 -0.417911
C38   C     C_R   0.864161 0.133440 0.688043 -0.403541
C39   C     C_R   0.810218 0.819062 0.598301 -0.417952
C40   C     C_R   0.135834 0.133442 0.311956 -0.403572
C41   C     C_R   0.189785 0.819062 0.401705 -0.417859
C42   C     C_R   0.864163 0.866517 0.311969 -0.403598
C43   C     C_R   0.810207 0.180945 0.401732 -0.417943
C44   C     C_2   0.732575 0.666251 0.714048 -0.358371
C45   C     C_R   0.580313 0.667777 0.856207 0.530461
C46   C     C_2   0.248384 0.796550 0.858614 -0.412535
C47   C     C_2   0.267421 0.333738 0.714062 -0.358368
C48   C     C_2   0.751615 0.203444 0.858623 -0.412581
C49   C     C_2   0.732582 0.333734 0.285941 -0.358308
C50   C     C_2   0.248380 0.203451 0.141382 -0.412536
C51   C     C_2   0.267425 0.666261 0.285940 -0.358336
C52   C     C_2   0.751642 0.796521 0.141387 -0.412421
C53   C     C_2   0.232579 0.166261 0.214058 -0.358347
C54   C     C_2   0.748382 0.296557 0.358626 -0.412584
C55   C     C_2   0.767430 0.833788 0.214021 -0.358534
C56   C     C_R   0.699657 0.392456 0.913899 0.632724
C57   C     C_2   0.251624 0.703456 0.358614 -0.412522
C58   C     C_2   0.232581 0.833738 0.785937 -0.358344
C59   C     C_2   0.748373 0.703453 0.641377 -0.412536
C60   C     C_2   0.767417 0.166274 0.785935 -0.358283
C61   C     C_2   0.251616 0.296547 0.641388 -0.412524
C62   C     C_2   0.657680 0.653709 0.733701 0.616645
C63   C     C_2   0.255466 0.722462 0.854615 0.500214
C64   C     C_2   0.342315 0.346282 0.733708 0.616629
C65   C     C_2   0.744566 0.277534 0.854651 0.500201
C66   C     C_2   0.657689 0.346289 0.266294 0.616636
C67   C     C_R   0.419687 0.332221 0.856209 0.530417
C68   C     C_2   0.255462 0.277540 0.145384 0.500222
C69   C     C_2   0.342320 0.653711 0.266296 0.616619
C70   C     C_2   0.744437 0.722445 0.145494 0.500315
C71   C     C_2   0.157686 0.153707 0.233703 0.616631
C72   C     C_2   0.755451 0.222467 0.354642 0.500254
C73   C     C_2   0.842332 0.846235 0.233715 0.616699
C74   C     C_2   0.244533 0.777543 0.354606 0.500196
C75   C     C_2   0.157687 0.846292 0.766294 0.616633
C76   C     C_2   0.755469 0.777540 0.645395 0.500257
C77   C     C_2   0.842308 0.153700 0.766296 0.616627
C78   C     C_R   0.300345 0.607547 0.913892 0.632727
C79   C     C_2   0.244528 0.222460 0.645391 0.500236
C80   C     C_2   0.799688 0.665249 0.769052 1.245767
C81   C     C_2   0.256360 0.840992 0.930400 1.327030
C82   C     C_2   0.200315 0.334735 0.769073 1.245818
C83   C     C_2   0.743615 0.158983 0.930393 1.327072
C84   C     C_2   0.799685 0.334699 0.230924 1.245771
C85   C     C_2   0.256358 0.159012 0.069594 1.327036
C86   C     C_2   0.200318 0.665275 0.230927 1.245779
C87   C     C_2   0.743759 0.840882 0.069533 1.326886
C88   C     C_2   0.299685 0.165280 0.269072 1.245783
C89   C     C_R   0.080313 0.832226 0.643795 0.530425
C90   C     C_2   0.756371 0.341011 0.430402 1.327032
C91   C     C_2   0.700259 0.834961 0.268963 1.246012
C92   C     C_2   0.243653 0.659020 0.430406 1.327033
C93   C     C_2   0.299686 0.834718 0.730919 1.245777
C94   C     C_2   0.756342 0.659027 0.569579 1.327080
C95   C     C_2   0.700325 0.165335 0.730908 1.245707
C96   C     C_2   0.243639 0.340985 0.569600 1.326994
Cl1   Cl    Cl    0.540301 0.245930 0.168091 -0.349934
Cl2   Cl    Cl    0.286697 0.076967 0.543372 -0.361648
Cl3   Cl    Cl    0.959717 0.254050 0.668110 -0.350003
Cl4   Cl    Cl    0.713304 0.923024 0.543376 -0.361729
Cl5   Cl    Cl    0.040289 0.254060 0.331903 -0.349948
Cl6   Cl    Cl    0.286697 0.923033 0.456622 -0.361661
Cl7   Cl    Cl    0.959639 0.745871 0.332000 -0.349755
Cl8   Cl    Cl    0.713281 0.076914 0.456559 -0.361540
Cl9   Cl    Cl    0.581819 0.777546 0.044898 -0.411919
Cl10  Cl    Cl    0.264472 0.515330 0.185108 -0.462376
Cl11  Cl    Cl    0.418194 0.222455 0.044903 -0.411971
Cl12  Cl    Cl    0.786706 0.576989 0.043404 -0.361796
Cl13  Cl    Cl    0.735556 0.484649 0.185085 -0.462266
Cl14  Cl    Cl    0.581807 0.222459 0.955106 -0.412011
Cl15  Cl    Cl    0.264484 0.484675 0.814889 -0.462393
Cl16  Cl    Cl    0.418193 0.777541 0.955107 -0.411984
Cl17  Cl    Cl    0.735518 0.515320 0.814887 -0.462419
Cl18  Cl    Cl    0.081805 0.277543 0.544900 -0.411975
Cl19  Cl    Cl    0.764423 0.015359 0.685072 -0.462301
Cl20  Cl    Cl    0.918194 0.722453 0.544911 -0.411937
Cl21  Cl    Cl    0.235542 0.984664 0.685093 -0.462349
Cl22  Cl    Cl    0.081818 0.722460 0.455106 -0.411994
Cl23  Cl    Cl    0.459680 0.754083 0.168071 -0.349982
Cl24  Cl    Cl    0.764660 0.984775 0.314759 -0.462663
Cl25  Cl    Cl    0.918195 0.277542 0.455111 -0.412009
Cl26  Cl    Cl    0.235542 0.015335 0.314903 -0.462361
Cl27  Cl    Cl    0.581122 0.664881 0.666325 -0.411720
Cl28  Cl    Cl    0.214929 0.672178 0.775927 -0.390175
Cl29  Cl    Cl    0.418869 0.335109 0.666327 -0.411730
Cl30  Cl    Cl    0.785175 0.327822 0.776008 -0.390110
Cl31  Cl    Cl    0.581135 0.335149 0.333680 -0.411724
Cl32  Cl    Cl    0.214922 0.327821 0.224074 -0.390179
Cl33  Cl    Cl    0.418875 0.664876 0.333676 -0.411740
Cl34  Cl    Cl    0.213301 0.423039 0.043383 -0.361646
Cl35  Cl    Cl    0.784693 0.672194 0.224353 -0.390511
Cl36  Cl    Cl    0.081132 0.164859 0.166319 -0.411712
Cl37  Cl    Cl    0.714890 0.172182 0.275970 -0.390074
Cl38  Cl    Cl    0.918919 0.834895 0.166390 -0.411713
Cl39  Cl    Cl    0.285057 0.827824 0.275908 -0.390201
Cl40  Cl    Cl    0.081134 0.835141 0.833682 -0.411724
Cl41  Cl    Cl    0.714951 0.827815 0.724100 -0.390211
Cl42  Cl    Cl    0.918856 0.164810 0.833689 -0.411724
Cl43  Cl    Cl    0.285050 0.172179 0.724084 -0.390207
Cl44  Cl    Cl    0.540301 0.754069 0.831913 -0.349934
Cl45  Cl    Cl    0.786693 0.423052 0.956631 -0.361617
Cl46  Cl    Cl    0.459689 0.245918 0.831927 -0.349888
Cl47  Cl    Cl    0.213300 0.576960 0.956614 -0.361632
Cl48  Cl    Cl    0.040299 0.745937 0.668097 -0.349953
H1    H     H_    0.745861 0.725851 0.851731 0.326773
H2    H     H_    0.719786 0.258379 0.500932 0.327745
H3    H     H_    0.753893 0.774376 0.351785 0.326601
H4    H     H_    0.280246 0.741675 0.500903 0.327769
H5    H     H_    0.245832 0.774115 0.648261 0.326718
H6    H     H_    0.719773 0.741698 0.499086 0.327644
H7    H     H_    0.754217 0.225950 0.648287 0.326724
H8    H     H_    0.280248 0.258341 0.499098 0.327773
H9    H     H_    0.219774 0.758344 0.000911 0.327753
H10   H     H_    0.254152 0.274131 0.851739 0.326704
H11   H     H_    0.780195 0.241606 0.000935 0.327730
H12   H     H_    0.745823 0.274090 0.148277 0.326701
H13   H     H_    0.219776 0.241664 0.999087 0.327748
H14   H     H_    0.254171 0.725865 0.148254 0.326701
H15   H     H_    0.780372 0.758133 0.999162 0.327868
H16   H     H_    0.245832 0.225882 0.351735 0.326709
N1    N     N_R   0.574080 0.369570 0.076720 -0.128191
N2    N     N_R   0.130430 0.074080 0.576720 -0.139573
N3    N     N_R   0.925920 0.130430 0.576720 -0.128195
N4    N     N_R   0.869570 0.925920 0.576720 -0.139578
N5    N     N_R   0.074080 0.130430 0.423280 -0.128191
N6    N     N_R   0.130430 0.925920 0.423280 -0.139570
N7    N     N_R   0.925920 0.869570 0.423280 -0.128251
N8    N     N_R   0.869570 0.074080 0.423280 -0.139506
N9    N     N_R   0.574050 0.630410 0.076720 -0.129831
N10   N     N_R   0.369590 0.574050 0.076720 -0.123708
N11   N     N_R   0.425950 0.369590 0.076720 -0.129811
N12   N     N_R   0.630430 0.574080 0.076720 -0.139550
N13   N     N_R   0.630410 0.425950 0.076720 -0.123725
N14   N     N_R   0.574050 0.369590 0.923280 -0.129809
N15   N     N_R   0.369590 0.425950 0.923280 -0.123711
N16   N     N_R   0.425950 0.630410 0.923280 -0.129819
N17   N     N_R   0.630410 0.574050 0.923280 -0.123693
N18   N     N_R   0.074050 0.130410 0.576720 -0.129811
N19   N     N_R   0.869590 0.074050 0.576720 -0.123755
N20   N     N_R   0.925950 0.869590 0.576720 -0.129819
N21   N     N_R   0.130410 0.925950 0.576720 -0.123706
N22   N     N_R   0.074050 0.869590 0.423280 -0.129823
N23   N     N_R   0.425920 0.630430 0.076720 -0.128191
N24   N     N_R   0.869590 0.925950 0.423280 -0.123686
N25   N     N_R   0.925950 0.130410 0.423280 -0.129795
N26   N     N_R   0.130410 0.074050 0.423280 -0.123709
N27   N     N_R   0.369570 0.425920 0.076720 -0.139571
N28   N     N_R   0.574080 0.630430 0.923280 -0.128187
N29   N     N_R   0.630430 0.425920 0.923280 -0.139575
N30   N     N_R   0.425920 0.369570 0.923280 -0.128193
N31   N     N_R   0.369570 0.574080 0.923280 -0.139568
N32   N     N_R   0.074080 0.869570 0.576720 -0.128182
Ni1   Ni    Ni4+2 0.500000 0.370760 0.000000 0.324129
Ni2   Ni    Ni4+2 0.629240 0.500000 0.000000 0.321069
Ni3   Ni    Ni4+2 0.500000 0.629240 0.000000 0.324136
Ni4   Ni    Ni4+2 0.370760 0.500000 0.000000 0.321064
Ni5   Ni    Ni4+2 1.000000 0.870760 0.500000 0.324124
Ni6   Ni    Ni4+2 0.129240 0.000000 0.500000 0.321076
Ni7   Ni    Ni4+2 0.000000 0.129240 0.500000 0.324138
Ni8   Ni    Ni4+2 0.870760 0.000000 0.500000 0.321055
O1    O     O_2   0.861651 0.638888 0.747979 -0.408287
O2    O     O_R   0.795198 0.303459 0.157406 -0.698003
O3    O     O_2   0.274172 0.093524 0.073918 -0.434865
O4    O     O_R   0.241515 0.189476 0.997047 -0.687027
O5    O     O_2   0.138345 0.638933 0.251993 -0.408338
O6    O     O_R   0.204798 0.696494 0.157397 -0.697972
O7    O     O_2   0.725988 0.906388 0.073759 -0.434893
O8    O     O_R   0.758641 0.810322 0.997036 -0.687141
O9    O     O_2   0.361657 0.138930 0.248011 -0.408303
O10   O     O_R   0.295205 0.196508 0.342596 -0.697970
O11   O     O_2   0.774194 0.406496 0.426060 -0.434836
O12   O     O_R   0.795227 0.696470 0.842581 -0.697888
O13   O     O_R   0.741530 0.310565 0.502957 -0.687017
O14   O     O_2   0.638364 0.861400 0.247794 -0.408217
O15   O     O_R   0.704586 0.803824 0.342542 -0.697749
O16   O     O_2   0.225839 0.593532 0.426088 -0.434869
O17   O     O_R   0.258499 0.689489 0.502949 -0.687029
O18   O     O_2   0.361659 0.861067 0.751977 -0.408306
O19   O     O_R   0.295205 0.803488 0.657396 -0.697970
O20   O     O_2   0.774144 0.593534 0.573889 -0.434876
O21   O     O_R   0.741506 0.689507 0.497038 -0.687052
O22   O     O_2   0.638339 0.138998 0.751945 -0.408324
O23   O     O_2   0.274175 0.906480 0.926073 -0.434864
O24   O     O_R   0.704833 0.196590 0.657400 -0.698068
O25   O     O_2   0.225806 0.406469 0.573923 -0.434847
O26   O     O_R   0.258498 0.310524 0.497056 -0.687030
O27   O     O_R   0.241514 0.810531 0.002948 -0.687017
O28   O     O_2   0.138350 0.361094 0.748010 -0.408296
O29   O     O_R   0.204785 0.303510 0.842598 -0.697978
O30   O     O_2   0.725785 0.093501 0.926042 -0.434842
O31   O     O_R   0.758453 0.189419 0.002952 -0.686989
O32   O     O_2   0.861660 0.361044 0.251976 -0.408314

loop_
_geom_bond_atom_site_label_1
_geom_bond_atom_site_label_2
_ccdc_geom_bond_type
C36   C89   A    
C72   Cl37  S    
C79   Cl43  S    
N18   Ni7   S    
C6    N6    A    
C11   N11   A    
C43   C72   S    
C40   C71   S    
N10   N23   A    
C24   N24   A    
C24   C42   A    
N12   Ni2   S    
N6    N22   A    
C8    C43   A    
N11   Ni1   S    
H12   O2    S    
C25   C43   A    
N15   N30   A    
C63   Cl28  S    
C89   Cl48  S    
C67   N30   A    
C17   Cl17  S    
H15   O8    S    
C20   N20   A    
C21   C36   A    
C2    C37   A    
C76   Cl41  S    
C66   Cl31  S    
C2    Cl2   S    
C21   N21   A    
C37   C79   S    
C16   Cl16  S    
N17   N28   A    
C83   O31   S    
C12   C28   A    
C23   C29   A    
C49   C84   S    
C57   C92   S    
C18   C37   A    
C54   C90   S    
C91   O14   D    
H3    O15   S    
N5    Ni7   S    
C16   C35   A    
C23   Cl23  S    
C90   O11   D    
N27   Ni4   S    
N21   N32   A    
C47   C82   S    
C22   C41   A    
N19   Ni8   S    
C44   C59   S    
C21   Cl21  S    
C49   C54   S    
H7    O24   S    
C86   O5    D    
C14   Cl14  S    
H5    O19   S    
C7    C42   A    
C38   C77   S    
N31   Ni4   S    
C13   Cl13  S    
N20   Ni5   S    
C8    N8    A    
C50   C85   S    
C41   C74   S    
C9    N9    A    
N29   Ni2   S    
N7    N24   A    
C11   C30   A    
C3    C38   A    
N24   Ni8   S    
C6    C41   A    
C94   O21   S    
N23   Ni3   S    
C4    N4    A    
C51   C57   S    
C59   C94   S    
C5    N5    A    
C48   C65   D    
C81   O27   S    
H4    O17   S    
C68   Cl32  S    
C85   O4    S    
C52   C55   S    
C3    N3    A    
C80   O12   S    
H1    O12   S    
C51   C69   D    
C16   N16   A    
C26   N26   A    
C71   Cl36  S    
C1    N1    A    
C88   O10   S    
C46   C58   S    
C31   C62   S    
C86   O6    S    
C34   N27   A    
N22   Ni5   S    
C55   C91   S    
N21   Ni6   S    
C51   C86   S    
C62   Cl27  S    
H9    O27   S    
C58   C75   D    
C48   C60   S    
C29   C69   S    
C81   O23   D    
C5    Cl5   S    
C60   C77   D    
C24   Cl24  S    
C50   C53   S    
C49   C66   D    
C30   C34   A    
C9    Cl9   S    
H14   O6    S    
C15   Cl15  S    
C44   C80   S    
C77   Cl42  S    
N28   Ni3   S    
N9    Ni3   S    
N17   Ni2   S    
C1    Cl1   S    
C47   C64   D    
C12   Cl12  S    
C20   C39   A    
C75   Cl40  S    
N16   N31   A    
C17   N17   A    
C44   C62   D    
N32   Ni5   S    
C82   O28   D    
C45   Cl44  S    
C93   O18   D    
C96   O26   S    
C57   C74   D    
C13   N13   A    
N6    Ni6   S    
C23   N23   A    
C36   C75   S    
C46   C81   S    
N1    N13   A    
C80   O1    D    
C4    C39   A    
C19   Cl19  S    
C74   Cl39  S    
C94   O20   D    
N7    Ni5   S    
N1    Ni1   S    
H13   O4    S    
C39   C76   S    
N25   Ni7   S    
C91   O15   S    
C8    Cl8   S    
C87   O7    D    
C25   N25   A    
H8    O26   S    
C56   Cl45  S    
C69   Cl33  S    
C83   O30   D    
C82   O29   S    
C88   O9    D    
C4    Cl4   S    
H10   O29   S    
C11   Cl11  S    
C17   C31   A    
N9    N12   A    
N30   Ni1   S    
C53   C71   D    
C19   N19   A    
N15   Ni4   S    
C18   Cl18  S    
C33   C67   A    
C20   Cl20  S    
C84   O2    S    
C22   Cl22  S    
C7    N7    A    
C56   N29   A    
C42   C73   S    
N8    N25   A    
N8    Ni8   S    
C58   C93   S    
C52   C87   S    
C28   C70   S    
C78   N31   A    
C95   O24   S    
C14   C32   A    
N4    N20   A    
C47   C61   S    
C35   C63   S    
C45   N28   A    
C18   N18   A    
N11   N27   A    
C10   N10   A    
C12   N12   A    
H16   O10   S    
N2    Ni6   S    
C35   C78   A    
C61   C96   S    
N5    N26   A    
C48   C83   S    
C15   N15   A    
C46   C63   D    
C93   O19   S    
C65   Cl30  S    
C32   C65   S    
C14   N14   A    
C27   C66   S    
C78   Cl47  S    
C96   O25   D    
N3    N19   A    
N26   Ni6   S    
N10   Ni4   S    
C10   C29   A    
C26   C40   A    
C95   O22   D    
C25   Cl25  S    
C61   C79   D    
C33   C64   S    
H11   O31   S    
C70   Cl35  S    
H6    O21   S    
C89   N32   A    
C32   C56   A    
C92   O16   D    
C53   C88   S    
C6    Cl6   S    
N16   Ni3   S    
C92   O17   S    
C84   O32   D    
C87   O8    S    
N2    N18   A    
H2    O13   S    
C52   C70   D    
C85   O3    D    
N14   N29   A    
N3    Ni7   S    
C55   C73   D    
C60   C95   S    
C3    Cl3   S    
C19   C38   A    
C54   C72   D    
C73   Cl38  S    
C34   Cl34  S    
N14   Ni1   S    
C22   N22   A    
C64   Cl29  S    
C31   C45   A    
C5    C40   A    
N13   Ni2   S    
C1    C27   A    
C10   Cl10  S    
C13   C27   A    
C7    Cl7   S    
C26   Cl26  S    
C67   Cl46  S    
C50   C68   D    
C59   C76   D    
C15   C33   A    
C90   O13   S    
C30   C68   S    
N4    Ni8   S    
C9    C28   A    
C2    N2    A    
