data_mof_unit_21810.cif
_audit_creation_date              2012-12-11T16:08:55-0500
_audit_creation_method            fapswitch 2.2
_symmetry_space_group_name_H-M    P1
_symmetry_Int_Tables_number       1
_space_group_crystal_system       triclinic
_cell_length_a                    12.980515
_cell_length_b                    13.272114
_cell_length_c                    27.709594
_cell_angle_alpha                 94.863175
_cell_angle_beta                  90.27105
_cell_angle_gamma                 119.340755
_cell_volume                      4140.53309004

loop_
_atom_site_label
_atom_site_type_symbol
_atom_type_description
_atom_site_fract_x
_atom_site_fract_y
_atom_site_fract_z
_atom_type_partial_charge
C1    C     C_R   0.627951 0.894733 0.427713 0.547022
C2    C     C_R   0.183857 0.749216 0.298306 0.013363
C3    C     C_R   0.172568 0.744121 0.197715 0.013030
C4    C     C_R   0.600953 0.221939 0.440564 0.546860
C5    C     C_R   0.182252 0.657152 0.219146 -0.126558
C6    C     C_R   0.185701 0.658561 0.269274 -0.133376
C7    C     C_R   0.157786 0.736733 0.147816 -0.114488
C8    C     C_R   0.128126 0.812026 0.126665 -0.003581
C9    C     C_R   0.198669 0.940263 0.356765 -0.133817
C10   C     C_R   0.179977 0.932576 0.306503 0.013216
C11   C     C_R   0.177415 0.838947 0.277168 0.064171
C12   C     C_R   0.592444 0.357263 0.230749 0.257354
C13   C     C_R   0.169756 0.019242 0.284787 -0.123977
C14   C     C_R   0.155992 0.012435 0.234336 -0.112148
C15   C     C_R   0.155268 0.920469 0.205052 0.016348
C16   C     C_R   0.269083 0.876007 0.425548 0.545094
C17   C     C_R   0.169286 0.835105 0.226635 0.061451
C18   C     C_R   0.133689 0.907907 0.154843 -0.122500
C19   C     C_R   0.211728 0.853759 0.377338 -0.003684
C20   C     C_R   0.756216 0.927950 0.359170 -0.129986
C21   C     C_R   0.763028 0.917265 0.309248 0.018458
C22   C     C_R   0.767511 0.907667 0.208599 -0.000464
C23   C     C_R   0.585589 0.343730 0.280362 -0.071006
C24   C     C_R   0.863405 0.996121 0.237362 -0.119709
C25   C     C_R   0.861844 0.000044 0.287509 -0.126287
C26   C     C_R   0.772360 0.901240 0.158835 -0.167302
C27   C     C_R   0.685157 0.805190 0.129424 0.009238
C28   C     C_R   0.627480 0.898407 0.564844 0.546473
C29   C     C_R   0.558505 0.759932 0.352541 -0.129247
C30   C     C_R   0.565157 0.746297 0.302436 0.011512
C31   C     C_R   0.666007 0.827680 0.280506 0.066469
C32   C     C_R   0.469612 0.657693 0.273699 -0.125804
C33   C     C_R   0.473096 0.650329 0.223298 -0.056541
C34   C     C_R   0.666690 0.321849 0.304332 -0.001675
C35   C     C_R   0.572480 0.731876 0.200615 0.037754
C36   C     C_R   0.668683 0.821955 0.229848 0.024690
C37   C     C_R   0.580489 0.723866 0.149787 0.225682
C38   C     C_R   0.650894 0.855216 0.380395 -0.004084
C39   C     C_R   0.743395 0.301467 0.650729 -0.133524
C40   C     C_R   0.603902 0.228379 0.578067 0.546931
C41   C     C_R   0.758553 0.327818 0.701038 0.005819
C42   C     C_R   0.772446 0.356964 0.802922 0.006981
C43   C     C_R   0.859663 0.344482 0.777739 -0.124150
C44   C     C_R   0.852005 0.328631 0.727063 -0.126500
C45   C     C_R   0.680908 0.348156 0.204701 0.048704
C46   C     C_R   0.778789 0.373101 0.853637 -0.129300
C47   C     C_R   0.690721 0.386063 0.877968 -0.002684
C48   C     C_R   0.569856 0.326433 0.650338 -0.119511
C49   C     C_R   0.580845 0.348107 0.700421 0.008340
C50   C     C_R   0.673646 0.345740 0.726085 0.057857
C51   C     C_R   0.495121 0.363260 0.725334 -0.113965
C52   C     C_R   0.271700 0.879361 0.563390 0.548528
C53   C     C_R   0.498264 0.371053 0.775661 -0.134119
C54   C     C_R   0.588873 0.366735 0.801426 0.001035
C55   C     C_R   0.678656 0.356865 0.776832 0.059228
C56   C     C_1   0.693305 0.369147 0.154282 0.012690
C57   C     C_R   0.593016 0.376275 0.851572 -0.129740
C58   C     C_R   0.644567 0.293403 0.625907 -0.007297
C59   C     C_1   0.221296 0.862435 0.609959 0.001755
C60   C     C_R   0.074947 0.745785 0.717727 -0.084991
C61   C     C_R   0.059947 0.735795 0.767376 -0.076551
C62   C     C_R   0.230331 0.927651 0.785698 -0.065054
C63   C     C_R   0.245262 0.937688 0.736036 -0.082572
C64   C     C_1   0.633339 0.270044 0.395010 -0.008800
C65   C     C_R   0.168103 0.846513 0.701942 0.044526
C66   C     C_R   0.138365 0.826154 0.801471 0.068016
C67   C     C_1   0.652290 0.298334 0.354365 -0.052307
C68   C     C_1   0.121965 0.813905 0.852411 -0.021238
C69   C     C_1   0.191736 0.853390 0.651263 -0.042095
C70   C     C_1   0.099279 0.796964 0.894086 0.008865
C71   C     C_1   0.649193 0.858289 0.608335 0.019187
C72   C     C_R   0.789441 0.872950 0.720797 -0.119972
C73   C     C_R   0.803350 0.858820 0.769459 0.247767
C74   C     C_R   0.600561 0.700681 0.765972 -0.117059
C75   C     C_R   0.586716 0.714735 0.717224 0.248724
C76   C     C_R   0.754796 0.312867 0.278442 -0.115927
C77   C     C_R   0.681022 0.802729 0.694693 0.005543
C78   C     C_1   0.703520 0.395432 0.113274 0.031417
C79   C     C_R   0.707670 0.773886 0.792542 0.005299
C80   C     C_1   0.717508 0.764089 0.843683 0.007573
C81   C     C_1   0.664634 0.830021 0.646842 0.012100
C82   C     C_1   0.729240 0.758692 0.886481 0.020858
C83   C     C_R   0.065695 0.773179 0.079008 0.551353
C84   C     C_R   0.717011 0.441342 0.067276 0.548989
C85   C     C_R   0.720181 0.782834 0.081089 0.584408
C86   C     C_R   0.056316 0.766220 0.941183 0.541546
C87   C     C_R   0.710627 0.435583 0.928554 0.532502
C88   C     C_R   0.762211 0.326515 0.228820 -0.149063
C89   C     C_R   0.194936 0.754521 0.348222 -0.126309
C90   C     C_R   0.749560 0.753696 0.937040 0.556072
Cl1   Cl    Cl    0.461064 0.613048 0.112207 -0.567185
Cl2   Cl    Cl    0.489107 0.385831 0.202312 -0.603549
Cl3   Cl    Cl    0.940580 0.951370 0.800929 -0.612763
Cl4   Cl    Cl    0.448981 0.623709 0.685925 -0.620515
Cr1   Cr    Cr6+3 0.416430 0.829200 0.492370 1.042736
Cr2   Cr    Cr6+3 0.674630 0.087020 0.504170 1.027079
Cr3   Cr    Cr6+3 0.408920 0.083740 0.503490 1.030746
Cr4   Cr    Cr6+3 0.914010 0.832750 0.013970 1.047155
Cr5   Cr    Cr6+3 0.922310 0.578600 0.003000 1.035649
Cr6   Cr    Cr6+3 0.656280 0.574630 0.003870 1.102898
H1    H     H_    0.816959 0.294290 0.296489 0.122257
H2    H     H_    0.391553 0.594691 0.290203 0.108188
H3    H     H_    0.831471 0.320535 0.209312 0.117483
H4    H     H_    0.477453 0.702465 0.369082 0.126548
H5    H     H_    0.854416 0.380866 0.873900 0.136298
H6    H     H_    0.802727 0.278255 0.631679 0.134083
H7    H     H_    0.932588 0.345129 0.797221 0.134328
H8    H     H_    0.918108 0.315439 0.708271 0.129432
H9    H     H_    0.524158 0.385792 0.869875 0.145132
H10   H     H_    0.430056 0.380680 0.794432 0.127375
H11   H     H_    0.423541 0.365161 0.705893 0.159236
H12   H     H_    0.145810 0.078843 0.218237 0.124045
H13   H     H_    0.495285 0.323410 0.631084 0.150407
H14   H     H_    0.015396 0.674365 0.691781 0.118391
H15   H     H_    0.987927 0.657158 0.779195 0.117808
H16   H     H_    0.290925 0.998310 0.811683 0.122055
H17   H     H_    0.318258 0.015638 0.724231 0.118793
H18   H     H_    0.862355 0.941097 0.703743 0.149918
H19   H     H_    0.526864 0.634359 0.783412 0.145916
H20   H     H_    0.516247 0.349094 0.300091 0.138491
H21   H     H_    0.156446 0.664136 0.126069 0.155877
H22   H     H_    0.202629 0.686126 0.363853 0.131815
H23   H     H_    0.171746 0.091736 0.306785 0.108427
H24   H     H_    0.183917 0.586477 0.197149 0.125316
H25   H     H_    0.191657 0.589833 0.285355 0.101121
H26   H     H_    0.112626 0.967336 0.138397 0.133822
H27   H     H_    0.210357 0.016410 0.379274 0.125141
H28   H     H_    0.851053 0.966834 0.143522 0.145137
H29   H     H_    0.828549 0.000338 0.380799 0.130636
H30   H     H_    0.940017 0.061737 0.221037 0.105091
H31   H     H_    0.936430 0.069450 0.309241 0.101971
H32   H     H_    0.397447 0.580173 0.202569 0.194778
O1    O     O_R   0.296680 0.802170 0.437540 -0.524690
O2    O     O_R   0.637200 0.461990 0.052510 -0.456055
O3    O     O_R   0.664790 0.681920 0.057970 -0.425234
O4    O     O_R   0.525380 0.838530 0.443500 -0.504964
O5    O     O_R   0.815840 0.852920 0.961840 -0.481666
O6    O     O_R   0.012100 0.822630 0.963670 -0.501072
O7    O     O_R   0.037010 0.668460 0.953040 -0.505104
O8    O     O_R   0.813390 0.478970 0.949660 -0.503840
O9    O     O_R   0.632250 0.456930 0.945520 -0.526198
O10   O     O_R   0.660200 0.677230 0.958780 -0.492393
O11   O     O_3   0.830870 0.661990 0.006950 -0.288769
O12   O     O_R   0.662610 0.183990 0.557860 -0.502123
O13   O     O_R   0.702130 0.995190 0.446810 -0.518190
O14   O     O_R   0.661770 0.181390 0.458760 -0.494293
O15   O     O_R   0.499820 0.198480 0.455280 -0.508199
O16   O     O_R   0.311660 0.976250 0.449080 -0.500680
O17   O     O_R   0.297580 0.804960 0.544440 -0.493858
O18   O     O_R   0.526220 0.841130 0.542590 -0.479269
O19   O     O_R   0.703030 0.997990 0.553710 -0.516009
O20   O     O_R   0.500730 0.201280 0.562180 -0.515067
O21   O     O_R   0.312500 0.978850 0.548170 -0.496574
O22   O     O_3   0.499990 0.999990 0.500010 -0.247267
O23   O     O_R   0.820790 0.857990 0.068830 -0.532723
O24   O     O_R   0.016700 0.827330 0.062850 -0.502499
O25   O     O_R   0.041970 0.673520 0.060040 -0.509609
O26   O     O_R   0.817980 0.483660 0.048840 -0.503055

loop_
_geom_bond_atom_site_label_1
_geom_bond_atom_site_label_2
_ccdc_geom_bond_type
C53   H10   S    
C39   H6    S    
C66   C68   S    
C63   C65   A    
C28   O18   A    
Cr4   O11   S    
C15   C18   A    
C8    C83   S    
C1    O13   A    
C35   C36   A    
C73   Cl3   S    
C20   H29   S    
C88   H3    S    
C7    C8    A    
C39   C41   A    
C53   C54   A    
C14   H12   S    
C74   H19   S    
C21   C31   A    
C5    H24   S    
C84   O2    A    
C26   C27   A    
C72   C77   A    
Cr4   O6    S    
C19   C89   A    
Cr5   O11   S    
C35   C37   A    
C3    C7    A    
Cr6   O9    S    
C42   C46   A    
C30   C31   A    
C63   H17   S    
Cr2   O12   S    
C89   H22   S    
C16   O1    A    
C46   H5    S    
Cr1   O1    S    
C56   C78   T    
C40   O20   A    
C15   C17   A    
C85   O23   A    
C27   C85   S    
C21   C25   A    
C33   C35   A    
Cr4   O23   S    
C60   H14   S    
C61   C66   A    
C9    C19   A    
Cr2   O22   S    
C45   C56   S    
C52   O17   A    
C49   C51   A    
C29   C38   A    
C61   H15   S    
C51   H11   S    
Cr1   O17   S    
Cr3   O21   S    
C1    O4    A    
C9    C10   A    
C87   O8    A    
Cr6   O3    S    
C13   C14   A    
Cr3   O15   S    
Cr5   O7    S    
C2    C6    A    
C7    H21   S    
C2    C11   A    
Cr6   O2    S    
C44   H8    S    
Cr4   O24   S    
C40   C58   S    
C74   C75   A    
C62   C66   A    
Cr4   O5    S    
C64   C67   T    
C45   C88   A    
C24   C25   A    
C80   C82   T    
C23   H20   S    
C37   Cl1   S    
C72   C73   A    
C26   H28   S    
C83   O24   A    
C52   O21   A    
C4    O15   A    
C10   C13   A    
C8    C18   A    
C29   H4    S    
C57   H9    S    
C60   C61   A    
C51   C53   A    
C47   C87   S    
C2    C89   A    
C43   C44   A    
C62   H16   S    
C62   C63   A    
Cr2   O13   S    
C52   C59   S    
C24   H30   S    
C42   C55   A    
C47   C57   A    
C20   C38   A    
C83   O25   A    
C77   C81   S    
C23   C34   A    
C4    O14   A    
C73   C79   A    
Cr1   O18   S    
C43   H7    S    
Cr3   O22   S    
C87   O9    A    
C75   C77   A    
C90   O10   A    
C1    C38   S    
C59   C69   T    
C13   H23   S    
C86   O7    A    
C33   H32   S    
C48   C49   A    
C85   O3    A    
C60   C65   A    
C74   C79   A    
Cr5   O25   S    
C41   C44   A    
C22   C24   A    
Cr5   O8    S    
C28   C71   S    
C42   C43   A    
C70   C86   S    
C41   C50   A    
C90   O5    A    
Cr2   O14   S    
C76   H1    S    
C9    H27   S    
C76   C88   A    
C54   C55   A    
C11   C17   A    
C84   O26   A    
C14   C15   A    
C12   Cl2   S    
C6    H25   S    
C12   C45   A    
C3    C5    A    
Cr6   O11   S    
C34   C67   S    
C48   C58   A    
C22   C36   A    
C4    C64   S    
C50   C55   A    
C82   C90   S    
C40   O12   A    
C16   O16   A    
Cr1   O22   S    
C32   C33   A    
C12   C23   A    
Cr6   O10   S    
C18   H26   S    
C30   C32   A    
Cr2   O19   S    
C5    C6    A    
C27   C37   A    
C16   C19   S    
C65   C69   S    
C39   C58   A    
Cr1   O4    S    
Cr3   O16   S    
Cr3   O20   S    
C3    C17   A    
C32   H2    S    
C46   C47   A    
C10   C11   A    
C86   O6    A    
C29   C30   A    
C79   C80   S    
C78   C84   S    
C20   C21   A    
C28   O19   A    
C68   C70   T    
C49   C50   A    
C22   C26   A    
Cr5   O26   S    
C72   H18   S    
C31   C36   A    
C75   Cl4   S    
C34   C76   A    
C48   H13   S    
C71   C81   T    
C54   C57   A    
C25   H31   S    
