data_mof_unit_54166.cif
_audit_creation_date              2012-12-10T20:55:45-0500
_audit_creation_method            fapswitch 2.2
_symmetry_space_group_name_H-M    P1
_symmetry_Int_Tables_number       1
_space_group_crystal_system       triclinic
_cell_length_a                    15.814884
_cell_length_b                    15.033626
_cell_length_c                    10.834711
_cell_angle_alpha                 89.642978
_cell_angle_beta                  89.625621
_cell_angle_gamma                 90.067249
_cell_volume                      2575.90036929

loop_
_atom_site_label
_atom_site_type_symbol
_atom_type_description
_atom_site_fract_x
_atom_site_fract_y
_atom_site_fract_z
_atom_type_partial_charge
C1    C     C_1   0.250319 0.499464 0.506173 -0.194654
C2    C     C_1   0.749479 0.499694 0.510565 -0.200328
C3    C     C_R   0.487919 0.498894 0.873631 -0.173886
C4    C     C_R   0.489223 0.500972 0.127715 -0.166203
C5    C     C_R   0.499834 0.905054 0.502376 -0.318539
C6    C     C_R   0.499520 0.095010 0.503021 -0.319576
C7    C     C_R   0.423067 0.952680 0.496122 0.375938
C8    C     C_R   0.575759 0.047376 0.516406 0.372953
C9    C     C_R   0.576318 0.953050 0.510473 0.375379
C10   C     C_R   0.423192 0.047052 0.491227 0.374865
C11   C     C_R   0.956211 0.576455 0.550542 -0.193833
C12   C     C_R   0.043495 0.418306 0.501884 -0.199380
C13   C     C_R   0.043883 0.576504 0.548640 -0.185970
C14   C     C_R   0.955852 0.418274 0.503667 -0.194322
C15   C     C_R   0.338756 0.499906 0.499579 0.893477
C16   C     C_R   0.661222 0.500001 0.501171 0.894955
C17   C     C_R   0.497532 0.500290 0.259476 0.962889
C18   C     C_R   0.496818 0.499577 0.740991 0.917025
C19   C     C_R   0.912867 0.497554 0.526607 0.173837
C20   C     C_R   0.086827 0.497648 0.522879 0.181423
C21   C     C_1   0.500007 0.807156 0.500970 0.274465
C22   C     C_1   0.499748 0.192864 0.501439 0.273925
C23   C     C_1   0.824166 0.498813 0.519028 -0.080963
C24   C     C_1   0.175533 0.498712 0.513903 -0.069008
C25   C     C_R   0.549630 0.656175 0.103352 0.534654
C26   C     C_R   0.509164 0.330978 0.898512 0.542761
C27   C     C_R   0.454436 0.664735 0.888098 0.556120
C28   C     C_R   0.419109 0.349161 0.119351 0.546073
C29   C     C_R   0.534762 0.738565 0.046494 -0.325667
C30   C     C_R   0.475650 0.255827 0.957855 -0.313241
C31   C     C_R   0.482472 0.743235 0.943788 -0.329585
C32   C     C_R   0.426304 0.265524 0.063548 -0.341814
C33   C     C_R   0.480445 0.580999 0.937679 -0.101064
C34   C     C_R   0.462639 0.423082 0.065513 -0.102050
C35   C     C_R   0.507280 0.579407 0.059097 -0.110556
C36   C     C_R   0.487289 0.417368 0.942335 -0.109524
H1    H     H_    0.078036 0.637823 0.564934 0.137356
H2    H     H_    0.921713 0.357322 0.484958 0.145925
H3    H     H_    0.922362 0.637778 0.568080 0.139343
H4    H     H_    0.077343 0.357361 0.481915 0.140244
H5    H     H_    0.397624 0.207490 0.106020 0.156040
H6    H     H_    0.466383 0.807299 0.904280 0.169636
H7    H     H_    0.489072 0.189998 0.922834 0.169347
H8    H     H_    0.563860 0.798357 0.081866 0.170360
N1    N     N_1   0.500000 0.270550 0.500000 -0.077581
N2    N     N_1   0.500000 0.729450 0.500000 -0.079895
O1    O     O_R   0.378020 0.573650 0.500040 -0.605375
O2    O     O_R   0.621980 0.426350 0.499960 -0.618186
O3    O     O_R   0.621980 0.573650 0.499960 -0.600561
O4    O     O_R   0.378020 0.426350 0.500040 -0.589758
O5    O     O_R   0.499990 0.573670 0.316780 -0.589574
O6    O     O_R   0.500010 0.426330 0.683220 -0.575886
O7    O     O_R   0.500010 0.573670 0.683220 -0.579302
O8    O     O_R   0.499990 0.426330 0.316780 -0.586664
Zn1   Zn    Zn3+2 0.500000 0.598370 0.500000 1.031847
Zn2   Zn    Zn3+2 0.500000 0.401630 0.500000 1.030497
O9    O     O_3   0.347237 0.092120 0.483635 -0.575511
C37   C     C_3   0.329426 0.107669 0.358059 -0.255631
H9    H     H_    0.322924 0.044169 0.306636 0.175144
H10   H     H_    0.378585 0.150529 0.314085 0.149128
H11   H     H_    0.268316 0.143484 0.351547 0.175487
O10   O     O_3   0.651944 0.907754 0.520971 -0.579764
C38   C     C_3   0.688990 0.901703 0.402653 -0.270241
H12   H     H_    0.700537 0.968522 0.360960 0.184470
H13   H     H_    0.649424 0.860650 0.340234 0.153348
H14   H     H_    0.751281 0.868640 0.411703 0.184326
O11   O     O_3   0.651192 0.092975 0.528417 -0.581924
C39   C     C_3   0.668143 0.102369 0.655282 -0.265070
H15   H     H_    0.674461 0.036550 0.701940 0.179874
H16   H     H_    0.618578 0.142820 0.701930 0.165176
H17   H     H_    0.729246 0.137774 0.665397 0.181085
O12   O     O_3   0.347405 0.907119 0.487263 -0.575177
C40   C     C_3   0.314920 0.893719 0.607457 -0.257196
H18   H     H_    0.300311 0.958127 0.652951 0.179475
H19   H     H_    0.359100 0.853987 0.665326 0.153109
H20   H     H_    0.254985 0.855678 0.600989 0.176807
O13   O     O_3   0.613701 0.649072 0.189006 -0.604523
C41   C     C_3   0.690438 0.634903 0.124105 0.070350
H21   H     H_    0.708818 0.695703 0.070998 0.136365
H22   H     H_    0.684910 0.578158 0.058639 0.091594
C42   C     C_3   0.761051 0.611785 0.214130 -0.329321
H23   H     H_    0.743897 0.550105 0.265143 0.212123
H24   H     H_    0.820032 0.598543 0.161033 0.170006
C43   C     C_3   0.777639 0.686891 0.304947 -0.785192
H25   H     H_    0.793834 0.749147 0.254337 0.224830
H26   H     H_    0.831530 0.668827 0.365151 0.233596
H27   H     H_    0.721122 0.698319 0.364050 0.295507
O14   O     O_3   0.571617 0.318217 0.810664 -0.625809
C44   C     C_3   0.651667 0.321674 0.867832 0.034944
H28   H     H_    0.654443 0.370550 0.945046 0.129271
H29   H     H_    0.667373 0.254461 0.904562 0.143583
C45   C     C_3   0.717726 0.349460 0.771663 -0.288840
H30   H     H_    0.714006 0.305034 0.690291 0.237800
H31   H     H_    0.704037 0.418539 0.741034 0.216446
C46   C     C_3   0.806980 0.346041 0.824010 -0.985236
H32   H     H_    0.812462 0.391425 0.904099 0.263530
H33   H     H_    0.853076 0.367360 0.751932 0.276734
H34   H     H_    0.822693 0.277177 0.853594 0.262655
O15   O     O_3   0.399217 0.671334 0.789909 -0.626104
C47   C     C_3   0.314854 0.673778 0.833995 0.051623
H35   H     H_    0.278021 0.715750 0.769009 0.159637
H36   H     H_    0.308109 0.705076 0.926802 0.123213
C48   C     C_3   0.276786 0.580151 0.835286 -0.339335
H37   H     H_    0.285579 0.549415 0.743515 0.228877
H38   H     H_    0.310223 0.538368 0.903757 0.203963
C49   C     C_3   0.182740 0.581829 0.867167 -0.949309
H39   H     H_    0.172610 0.612161 0.959275 0.263369
H40   H     H_    0.157653 0.512812 0.869178 0.273528
H41   H     H_    0.147523 0.620584 0.796679 0.262806
O16   O     O_3   0.372226 0.357567 0.227140 -0.626506
C50   C     C_3   0.284672 0.352285 0.202368 0.045326
H42   H     H_    0.252968 0.327104 0.287503 0.174562
H43   H     H_    0.268732 0.304514 0.127656 0.123112
C51   C     C_3   0.249524 0.444668 0.172179 -0.353830
H44   H     H_    0.267465 0.492119 0.245595 0.225762
H45   H     H_    0.277483 0.468568 0.084120 0.213638
C52   C     C_3   0.153463 0.442865 0.160553 -0.935747
H46   H     H_    0.134503 0.398714 0.083684 0.261722
H47   H     H_    0.129904 0.511033 0.141257 0.267169
H48   H     H_    0.123956 0.418704 0.247793 0.266815

loop_
_geom_bond_atom_site_label_1
_geom_bond_atom_site_label_2
_ccdc_geom_bond_type
C7    C10   A    
C38   H13   S    
C31   H6    S    
C46   H32   S    
C40   H18   S    
C50   H42   S    
C43   H27   S    
C15   O1    A    
C17   O5    A    
C51   H44   S    
C46   H34   S    
C18   O6    A    
O13   C41   S    
C27   C33   A    
C11   C19   A    
C25   O13   S    
C43   H26   S    
C52   H47   S    
C41   H22   S    
C49   H39   S    
C3    C33   A    
C37   H10   S    
C6    C22   S    
C3    C18   S    
C15   O4    A    
O16   C50   S    
C45   H30   S    
C18   O7    A    
C20   C24   S    
N1    Zn2   S    
C8    C9    A    
N2    Zn1   S    
C32   H5    S    
C1    C15   S    
C44   H29   S    
C2    C16   S    
C13   H1    S    
C1    C24   T    
C37   H11   S    
C38   H14   S    
C28   C34   A    
C40   H19   S    
C16   O2    A    
C50   C51   S    
C47   H36   S    
C42   H24   S    
C42   H23   S    
C4    C34   A    
O7    Zn1   S    
C25   C29   A    
O8    Zn2   S    
C27   C31   A    
C9    O10   S    
C28   C32   A    
C10   O9    S    
C16   O3    A    
C50   H43   S    
C52   H48   S    
C7    O12   S    
C5    C7    A    
C41   H21   S    
C39   H15   S    
C6    C8    A    
C28   O16   S    
C37   H9    S    
O3    Zn1   S    
C47   C48   S    
O4    Zn2   S    
O11   C39   S    
C12   H4    S    
C19   C23   S    
C5    C9    A    
O10   C38   S    
C14   H2    S    
O15   C47   S    
C27   O15   S    
C12   C20   A    
C45   H31   S    
C48   H38   S    
C43   H25   S    
C44   C45   S    
C11   H3    S    
C25   C35   A    
C4    C17   S    
C26   C36   A    
C12   C14   A    
C26   C30   A    
C29   H8    S    
C40   H20   S    
C30   H7    S    
C48   H37   S    
C42   C43   S    
O1    Zn1   S    
C21   N2    T    
O2    Zn2   S    
C13   C20   A    
C14   C19   A    
O12   C40   S    
C6    C10   A    
C51   H45   S    
C46   H33   S    
C29   C31   A    
C52   H46   S    
C30   C32   A    
C11   C13   A    
C41   C42   S    
O9    C37   S    
C49   H40   S    
C3    C36   A    
C39   H17   S    
C47   H35   S    
C33   C35   A    
C34   C36   A    
C48   C49   S    
O5    Zn1   S    
C45   C46   S    
C4    C35   A    
C51   C52   S    
C38   H12   S    
C22   N1    T    
C5    C21   S    
O14   C44   S    
C8    O11   S    
C26   O14   S    
C2    C23   T    
C39   H16   S    
C44   H28   S    
C17   O8    A    
O6    Zn2   S    
C49   H41   S    
