data_mof_unit_55453.cif
_audit_creation_date              2012-10-26T20:57:21-0400
_audit_creation_method            fapswitch 2.2
_symmetry_space_group_name_H-M    P1
_symmetry_Int_Tables_number       1
_space_group_crystal_system       triclinic
_cell_length_a                    14.709728
_cell_length_b                    14.667378
_cell_length_c                    15.844517
_cell_angle_alpha                 76.662533
_cell_angle_beta                  102.899463
_cell_angle_gamma                 114.907224
_cell_volume                      2985.97537637

loop_
_atom_site_label
_atom_site_type_symbol
_atom_type_description
_atom_site_fract_x
_atom_site_fract_y
_atom_site_fract_z
_atom_type_partial_charge
C1    C     C_R   0.880462 0.312121 0.513115 0.552229
C2    C     C_R   0.359641 0.922201 0.492879 0.002091
C3    C     C_R   0.675151 0.003855 0.505059 -0.053890
C4    C     C_R   0.323431 0.996653 0.495269 -0.053998
C5    C     C_R   0.532024 0.053416 0.493577 -0.007981
C6    C     C_R   0.465687 0.948403 0.500653 -0.006708
C7    C     C_R   0.508406 0.873450 0.518762 0.250803
C8    C     C_R   0.488776 0.127948 0.476996 0.250161
C9    C     C_R   0.609816 0.902065 0.512495 -0.108454
C10   C     C_R   0.388255 0.098666 0.487103 -0.113124
C11   C     C_R   0.708383 0.656996 0.343974 0.211859
C12   C     C_R   0.119440 0.687809 0.488032 0.562706
C13   C     C_R   0.280449 0.325150 0.640750 0.222389
C14   C     C_R   0.792294 0.630522 0.371083 0.037787
C15   C     C_R   0.200951 0.358372 0.619856 0.063958
C16   C     C_R   0.000061 0.500450 0.659998 0.553670
C17   C     C_R   0.000000 0.499605 0.340052 0.538505
C18   C     C_R   0.716787 0.512913 0.490741 0.019666
C19   C     C_R   0.285285 0.490781 0.511885 0.008896
C20   C     C_R   0.628358 0.535058 0.466607 -0.039152
C21   C     C_R   0.370378 0.463244 0.531229 -0.042237
C22   C     C_R   0.627318 0.611588 0.393461 0.027714
C23   C     C_R   0.778650 0.029865 0.506705 -0.119903
C24   C     C_R   0.366968 0.379430 0.598253 0.027176
C25   C     C_R   0.541293 0.483647 0.511521 0.033919
C26   C     C_R   0.457456 0.514729 0.486220 0.034072
C27   C     C_R   0.462753 0.594879 0.415714 -0.128474
C28   C     C_R   0.534104 0.400357 0.579157 -0.126631
C29   C     C_R   0.545020 0.640939 0.369797 -0.122387
C30   C     C_R   0.448869 0.349461 0.621088 -0.120575
C31   C     C_3   0.945663 0.403131 0.036210 -0.179289
C32   C     C_3   0.056294 0.598542 0.964184 -0.178024
C33   C     C_3   0.906494 0.469972 0.958987 0.255817
C34   C     C_R   0.221389 0.968657 0.501726 -0.125195
C35   C     C_3   0.095502 0.531675 0.041445 0.254305
C36   C     C_1   0.000736 0.501955 0.749477 -0.003464
C37   C     C_1   0.999859 0.498652 0.250656 -0.019589
C38   C     C_3   0.042740 0.438455 0.994001 0.254694
C39   C     C_3   0.959224 0.563139 0.006454 0.254665
C40   C     C_3   0.002537 0.503501 0.916713 0.007502
C41   C     C_3   0.999437 0.498082 0.083629 0.008646
C42   C     C_1   0.001744 0.503030 0.825002 0.012267
C43   C     C_1   0.999562 0.498088 0.175218 0.004085
C44   C     C_R   0.813075 0.204423 0.513872 -0.009589
C45   C     C_R   0.847643 0.130524 0.507533 0.255225
C46   C     C_R   0.186331 0.795589 0.487680 -0.007853
C47   C     C_3   0.734715 0.402015 0.963861 -0.010252
C48   C     C_3   0.632312 0.387803 0.908406 -0.370709
C49   C     C_3   0.267433 0.599233 0.037009 -0.003981
C50   C     C_3   0.369901 0.614384 0.092777 -0.381735
C51   C     C_3   0.676518 0.683019 0.195581 -0.022710
C52   C     C_3   0.668660 0.760778 0.115180 -0.374657
C53   C     C_3   0.220019 0.153033 0.662379 -0.023230
C54   C     C_3   0.221651 0.059455 0.727435 -0.369676
C55   C     C_3   0.895242 0.685622 0.941312 -0.003620
C56   C     C_R   0.152684 0.867590 0.500404 0.254474
C57   C     C_3   0.828377 0.736033 0.953418 -0.381992
C58   C     C_3   0.105718 0.315641 0.060538 -0.007374
C59   C     C_3   0.171883 0.263847 0.049691 -0.372542
C60   C     C_3   0.996210 0.872737 0.453687 0.003117
C61   C     C_3   0.893329 0.840399 0.481546 -0.356326
C62   C     C_3   0.967218 0.162694 0.423261 -0.002319
C63   C     C_3   0.080663 0.202213 0.422248 -0.368522
C64   C     C_3   0.458550 0.759669 0.640138 -0.016946
C65   C     C_3   0.400788 0.648406 0.674565 -0.361005
C66   C     C_3   0.538798 0.242655 0.356072 -0.013369
C67   C     C_R   0.710074 0.177161 0.514864 -0.153981
C68   C     C_3   0.594436 0.354594 0.322088 -0.371113
C69   C     C_R   0.287898 0.824797 0.480093 -0.151300
C70   C     C_R   0.638370 0.079452 0.502698 -0.001885
Cu1   Cu    Cu3+1 0.081740 0.475690 0.522610 0.937164
Cu2   Cu    Cu3+1 0.918260 0.524310 0.477390 0.937689
H1    H     H_    0.134708 0.317827 0.652751 0.157824
H2    H     H_    0.572314 0.355698 0.951322 0.094483
H3    H     H_    0.633158 0.462239 0.871234 0.155716
H4    H     H_    0.270548 0.674200 0.999045 0.126001
H5    H     H_    0.253633 0.546317 0.990898 0.166477
H6    H     H_    0.369298 0.540466 0.131040 0.151083
H7    H     H_    0.429923 0.645679 0.049952 0.086423
H8    H     H_    0.387319 0.668352 0.138723 0.160049
H9    H     H_    0.281017 0.552900 0.461858 0.147278
H10   H     H_    0.725516 0.458382 0.546958 0.141597
H11   H     H_    0.600649 0.619279 0.197936 0.122873
H12   H     H_    0.855803 0.666483 0.334614 0.137032
H13   H     H_    0.732444 0.653553 0.188299 0.135823
H14   H     H_    0.743632 0.824449 0.109707 0.157745
H15   H     H_    0.643375 0.724303 0.055319 0.086748
H16   H     H_    0.612884 0.791243 0.120240 0.152713
H17   H     H_    0.255436 0.157422 0.605467 0.116629
H18   H     H_    0.139615 0.143465 0.639789 0.164922
H19   H     H_    0.185543 0.051545 0.784697 0.159822
H20   H     H_    0.179416 0.990405 0.695489 0.122547
H21   H     H_    0.301023 0.066272 0.750243 0.152624
H22   H     H_    0.403132 0.622675 0.392575 0.112680
H23   H     H_    0.901302 0.324916 0.066862 0.084898
H24   H     H_    0.592399 0.370507 0.600110 0.115761
H25   H     H_    0.855686 0.640301 0.886815 0.167788
H26   H     H_    0.968068 0.746181 0.923148 0.130268
H27   H     H_    0.865866 0.783084 0.006715 0.160487
H28   H     H_    0.814619 0.785603 0.891711 0.096149
H29   H     H_    0.754532 0.677042 0.970570 0.146508
H30   H     H_    0.032492 0.255768 0.078538 0.125026
H31   H     H_    0.145298 0.361270 0.114836 0.163188
H32   H     H_    0.246097 0.322000 0.032563 0.154799
H33   H     H_    0.184932 0.214664 0.111919 0.087029
H34   H     H_    0.100534 0.676822 0.933574 0.090049
H35   H     H_    0.134116 0.216131 0.996882 0.169254
H36   H     H_    0.309132 0.770680 0.462053 0.187328
H37   H     H_    0.688181 0.232706 0.529214 0.194108
H38   H     H_    0.985571 0.839620 0.393879 0.139964
H39   H     H_    0.028982 0.957245 0.437978 0.110535
H40   H     H_    0.902639 0.874726 0.540031 0.150151
H41   H     H_    0.842554 0.865648 0.427303 0.108938
H42   H     H_    0.858584 0.756457 0.499168 0.179379
H43   H     H_    0.938156 0.217162 0.376370 0.126729
H44   H     H_    0.930829 0.086956 0.401036 0.115576
H45   H     H_    0.639107 0.843335 0.521338 0.130796
H46   H     H_    0.095528 0.207953 0.355125 0.086071
H47   H     H_    0.118891 0.278706 0.442555 0.181480
H48   H     H_    0.112264 0.149530 0.467889 0.124650
H49   H     H_    0.806215 0.971972 0.507951 0.105849
H50   H     H_    0.195632 0.024685 0.510119 0.092087
H51   H     H_    0.422886 0.805447 0.657146 0.137514
H52   H     H_    0.538273 0.782457 0.673659 0.128677
H53   H     H_    0.435680 0.600686 0.660261 0.164715
H54   H     H_    0.403256 0.638179 0.746579 0.089301
H55   H     H_    0.320523 0.623508 0.643299 0.192932
H56   H     H_    0.359061 0.156882 0.481293 0.122427
H57   H     H_    0.459300 0.217990 0.321904 0.128019
H58   H     H_    0.576909 0.198834 0.339613 0.134503
H59   H     H_    0.674301 0.381464 0.354415 0.188624
H60   H     H_    0.593529 0.365431 0.250242 0.080004
H61   H     H_    0.556828 0.400300 0.335568 0.158659
H62   H     H_    0.543619 0.700317 0.314847 0.155671
H63   H     H_    0.447396 0.285398 0.671953 0.155884
H64   H     H_    0.748871 0.454255 0.010707 0.162312
H65   H     H_    0.731352 0.326649 0.001012 0.125812
H66   H     H_    0.614811 0.334861 0.861500 0.165466
N1    N     N_R   0.795440 0.560790 0.443380 -0.274149
N2    N     N_R   0.204560 0.439210 0.556620 -0.281873
O1    O     O_R   0.977900 0.338120 0.529810 -0.454329
O2    O     O_3   0.192229 0.559914 0.092346 -0.558764
O3    O     O_3   0.707769 0.730126 0.271250 -0.583610
O4    O     O_3   0.273760 0.240471 0.703508 -0.577351
O5    O     O_3   0.912921 0.624176 0.020585 -0.562058
O6    O     O_3   0.089070 0.376973 0.980786 -0.555445
O7    O     O_3   0.057411 0.836614 0.522977 -0.544342
O8    O     O_3   0.949517 0.154598 0.509183 -0.554090
O9    O     O_3   0.454730 0.772020 0.548456 -0.582408
O10   O     O_3   0.541240 0.229720 0.447586 -0.583337
O11   O     O_R   0.022100 0.661880 0.470190 -0.461384
O12   O     O_R   0.839850 0.379180 0.491620 -0.522490
O13   O     O_R   0.160150 0.620820 0.508380 -0.520063
O14   O     O_R   0.069010 0.479460 0.640020 -0.501946
O15   O     O_R   0.930990 0.520540 0.359980 -0.509677
O16   O     O_R   0.930960 0.520530 0.601820 -0.488783
O17   O     O_R   0.069040 0.479470 0.398180 -0.502000
O18   O     O_3   0.809697 0.441796 0.908279 -0.557850

loop_
_geom_bond_atom_site_label_1
_geom_bond_atom_site_label_2
_ccdc_geom_bond_type
C46   C69   A    
C66   C68   S    
C21   C26   A    
C34   C56   A    
C23   C45   A    
C22   C29   A    
C47   H64   S    
C27   C29   A    
C45   O8    S    
C9    H45   S    
C36   C42   T    
C55   H25   S    
C12   O11   A    
C14   H12   S    
C12   O13   A    
C50   H7    S    
C51   H13   S    
C39   C41   S    
C53   C54   S    
C44   C45   A    
C25   C28   A    
C62   H44   S    
C26   C27   A    
C62   C63   S    
Cu2   O16   S    
C59   H32   S    
C65   H55   S    
C68   H61   S    
C19   C21   A    
C66   O10   S    
C5    C6    A    
C11   C14   A    
C55   O5    S    
C20   C25   A    
C57   H27   S    
C1    O12   A    
C13   O4    S    
C68   H60   S    
C38   O6    S    
C54   H21   S    
C7    O9    S    
C33   C39   S    
C3    C23   A    
C67   H37   S    
Cu2   N1    S    
C49   H5    S    
C19   N2    A    
Cu2   O12   S    
C16   O16   A    
C31   C33   S    
C58   H30   S    
C60   O7    S    
C2    C69   A    
C17   O17   A    
Cu1   O1    S    
C66   H57   S    
C40   C42   S    
C29   H62   S    
C34   H50   S    
Cu2   O15   S    
C62   O8    S    
C41   C43   S    
C48   H3    S    
C47   H65   S    
C2    C6    A    
C10   H56   S    
C50   H6    S    
C69   H36   S    
Cu1   O17   S    
C4    C34   A    
C33   C40   S    
C51   C52   S    
C32   C35   S    
C48   H2    S    
C52   H16   S    
C3    C70   A    
C1    O1    A    
C23   H49   S    
C63   H46   S    
C25   C26   A    
C64   H52   S    
Cu1   O14   S    
C59   H35   S    
C13   C24   A    
C60   C61   S    
C65   H53   S    
C37   C43   T    
C68   H59   S    
C8    O10   S    
C54   H20   S    
C5    C70   A    
C3    C9    A    
C63   H47   S    
C1    C44   S    
C47   C48   S    
Cu2   O11   S    
C49   O2    S    
C39   O5    S    
C49   H4    S    
C59   H33   S    
C17   C37   S    
C6    C7    A    
C12   C46   S    
C15   H1    S    
C20   C22   A    
C49   C50   S    
C13   C15   A    
C53   H17   S    
C4    C10   A    
C17   O15   A    
C51   H11   S    
C61   H42   S    
C33   O18   S    
C15   N2    A    
C7    C9    A    
C31   C41   S    
C52   H15   S    
C27   H22   S    
C50   H8    S    
C5    C8    A    
C58   O6    S    
Cu1   N2    S    
C51   O3    S    
C64   H51   S    
C57   H29   S    
C11   C22   A    
C31   C38   S    
C48   H66   S    
C64   O9    S    
C28   H24   S    
C53   O4    S    
C65   H54   S    
C67   C70   A    
C56   O7    S    
C55   C57   S    
C58   C59   S    
C54   H19   S    
C60   H39   S    
C64   C65   S    
C16   O14   A    
C63   H48   S    
C57   H28   S    
C38   C40   S    
C31   H23   S    
C2    C4    A    
C55   H26   S    
C52   H14   S    
C18   H10   S    
C28   C30   A    
C18   C20   A    
C32   C40   S    
C18   N1    A    
C35   C41   S    
C24   C30   A    
C60   H38   S    
C35   O2    S    
C62   H43   S    
Cu1   Cu2   S    
C14   N1    A    
C8    C10   A    
C30   H63   S    
C21   C24   A    
C46   C56   A    
C53   H18   S    
C32   C39   S    
C35   C38   S    
C44   C67   A    
C32   H34   S    
C58   H31   S    
C19   H9    S    
C61   H40   S    
C11   O3    S    
C61   H41   S    
C16   C36   S    
C66   H58   S    
C47   O18   S    
Cu1   O13   S    
