data_mof_unit_44053.cif
_audit_creation_date              2012-12-11T17:02:21-0500
_audit_creation_method            fapswitch 2.2
_symmetry_space_group_name_H-M    P1
_symmetry_Int_Tables_number       1
_space_group_crystal_system       triclinic
_cell_length_a                    21.664384
_cell_length_b                    7.058304
_cell_length_c                    14.785952
_cell_angle_alpha                 90.001287
_cell_angle_beta                  105.983556
_cell_angle_gamma                 89.998995
_cell_volume                      2173.56861634

loop_
_atom_site_label
_atom_site_type_symbol
_atom_type_description
_atom_site_fract_x
_atom_site_fract_y
_atom_site_fract_z
_atom_type_partial_charge
O1    O     O_R   0.585850 0.505770 0.002130 -0.536082
O2    O     O_R   0.414150 0.005770 0.997870 -0.536077
O3    O     O_R   0.467530 0.173560 0.861970 -0.536256
O4    O     O_R   0.532470 0.673560 0.138030 -0.536247
C1    C     C_R   0.457293 0.344588 0.824076 0.694439
C2    C     C_R   0.542711 0.844590 0.175923 0.694436
O5    O     O_R   0.588690 0.175900 0.993250 -0.548638
O6    O     O_R   0.411310 0.675900 0.006750 -0.548628
O7    O     O_R   0.536170 0.007950 0.130090 -0.535911
O8    O     O_R   0.463830 0.507950 0.869910 -0.535906
C3    C     C_R   0.615661 0.344263 0.001061 0.684858
C4    C     C_R   0.384339 0.844266 0.998941 0.684856
O9    O     O_3   0.482630 0.339970 0.044740 -0.367935
O10   O     O_3   0.517370 0.839970 0.955260 -0.367941
V1    V     V_3+5 0.503220 0.064200 0.991700 1.434779
V2    V     V_3+5 0.496780 0.564200 0.008300 1.434803
C5    C     C_R   0.275323 0.999695 0.950471 0.073166
C6    C     C_R   0.724675 0.499701 0.049532 0.073132
C7    C     C_R   0.315130 0.851179 0.994899 -0.099300
C8    C     C_R   0.684872 0.351173 0.005110 -0.099274
C9    C     C_R   0.285583 0.702690 0.031621 -0.188531
C10   C     C_R   0.714422 0.202681 0.968389 -0.188568
H1    H     H_    0.313435 0.581538 0.064431 0.146848
H2    H     H_    0.686572 0.081521 0.935584 0.146849
C11   C     C_R   0.220654 0.715080 0.032357 -0.179510
C12   C     C_R   0.779349 0.215079 0.967649 -0.179522
H3    H     H_    0.200703 0.602458 0.065238 0.132727
H4    H     H_    0.799302 0.102453 0.934771 0.132738
C13   C     C_R   0.183119 0.875756 0.995941 -0.142111
C14   C     C_R   0.816880 0.375766 0.004057 -0.142106
C15   C     C_R   0.211485 0.011624 0.951349 0.118437
C16   C     C_R   0.788513 0.511642 0.048648 0.118492
C17   C     C_3   0.213743 0.223095 0.956812 -0.044340
C18   C     C_3   0.786240 0.723115 0.043163 -0.044348
C19   C     C_3   0.283972 0.209561 0.955148 -0.404036
C20   C     C_3   0.716017 0.709562 0.044849 -0.404112
H5    H     H_    0.208886 0.275598 0.025423 0.113689
H6    H     H_    0.791083 0.775589 0.974540 0.113695
H7    H     H_    0.318451 0.254998 0.022159 0.168959
H8    H     H_    0.681528 0.754981 0.977844 0.168989
H9    H     H_    0.293951 0.267580 0.890716 0.163184
H10   H     H_    0.706047 0.767584 0.109289 0.163178
C21   C     C_R   0.927944 0.890405 0.722199 -0.039334
C22   C     C_R   0.072069 0.390404 0.277795 -0.039295
C23   C     C_R   0.568317 0.851890 0.279866 -0.023174
C24   C     C_R   0.431693 0.351891 0.720133 -0.023170
C25   C     C_R   0.934278 0.980726 0.567302 -0.169582
C26   C     C_R   0.065722 0.480502 0.432715 -0.169576
C27   C     C_R   0.963664 0.955464 0.662940 -0.172508
C28   C     C_R   0.036332 0.455239 0.337079 -0.172520
C29   C     C_R   0.862537 0.851684 0.685539 -0.212371
C30   C     C_R   0.137491 0.351875 0.314432 -0.212321
C31   C     C_R   0.830547 0.887191 0.589577 0.107909
C32   C     C_R   0.169476 0.387302 0.410403 0.107909
C33   C     C_R   0.868080 0.949267 0.530403 0.143366
C34   C     C_R   0.131932 0.449222 0.469594 0.143361
C35   C     C_R   0.762581 0.868289 0.551252 -0.008202
C36   C     C_R   0.237445 0.368443 0.448727 -0.008196
C37   C     C_R   0.733848 0.896854 0.452766 0.066457
C38   C     C_R   0.266172 0.396969 0.547218 0.066461
C39   C     C_R   0.773598 0.957313 0.396939 -0.172787
C40   C     C_R   0.226418 0.457378 0.603048 -0.172786
C41   C     C_R   0.839103 0.984994 0.435491 -0.207241
C42   C     C_R   0.160908 0.484965 0.564505 -0.207242
C43   C     C_R   0.722281 0.829694 0.609209 -0.221244
C44   C     C_R   0.277748 0.329870 0.390774 -0.221245
C45   C     C_R   0.656369 0.814190 0.573143 0.363157
C46   C     C_R   0.343658 0.314336 0.426845 0.363148
C47   C     C_R   0.627806 0.830919 0.475898 0.033512
C48   C     C_R   0.372217 0.331022 0.524094 0.033522
C49   C     C_R   0.666034 0.870120 0.414205 0.035663
C50   C     C_R   0.333985 0.370216 0.585784 0.035659
C51   C     C_R   0.561366 0.808840 0.439831 -0.162454
C52   C     C_R   0.438654 0.308893 0.560168 -0.162465
C53   C     C_R   0.530389 0.821209 0.343592 0.114096
C54   C     C_R   0.469626 0.321202 0.656411 0.114090
C55   C     C_R   0.635038 0.877361 0.316177 -0.228890
C56   C     C_R   0.364976 0.377411 0.683814 -0.228886
H11   H     H_    0.867353 0.037294 0.390635 0.120437
H12   H     H_    0.132652 0.537195 0.609367 0.120441
H13   H     H_    0.662010 0.894730 0.265359 0.095628
H14   H     H_    0.338000 0.394784 0.734629 0.095628
H15   H     H_    0.962991 0.030614 0.522563 0.118685
H16   H     H_    0.036998 0.530230 0.477473 0.118684
H17   H     H_    0.014096 0.989321 0.691083 0.107399
H18   H     H_    0.985885 0.488926 0.308955 0.107348
H19   H     H_    0.838025 0.800084 0.734850 0.099291
H20   H     H_    0.162015 0.300481 0.265094 0.099233
H21   H     H_    0.755157 0.991783 0.323454 0.124427
H22   H     H_    0.244857 0.491850 0.676533 0.124425
H23   H     H_    0.740129 0.816826 0.684388 0.158915
H24   H     H_    0.259904 0.317001 0.315594 0.158915
H25   H     H_    0.532191 0.780416 0.487161 0.178663
H26   H     H_    0.467832 0.280472 0.512840 0.178670
O11   O     O_R   0.036080 0.231270 0.130120 -0.538291
O12   O     O_R   0.963920 0.731270 0.869880 -0.538297
O13   O     O_R   0.911300 0.558970 0.006750 -0.544010
O14   O     O_R   0.088700 0.058970 0.993250 -0.544033
C57   C     C_R   0.884752 0.389890 0.001466 0.697533
C58   C     C_R   0.115248 0.889886 0.998533 0.697539
O15   O     O_R   0.032450 0.561140 0.138040 -0.536465
O16   O     O_R   0.967550 0.061140 0.861960 -0.536476
O17   O     O_R   0.085870 0.728910 0.002130 -0.541221
O18   O     O_R   0.914130 0.228910 0.997870 -0.541229
C59   C     C_R   0.044096 0.392915 0.175553 0.694076
C60   C     C_R   0.955905 0.892913 0.824446 0.694077
O19   O     O_3   0.017320 0.394650 0.955270 -0.378112
O20   O     O_3   0.982680 0.894650 0.044730 -0.378098
V3    V     V_3+5 0.996780 0.670490 0.008300 1.395491
V4    V     V_3+5 0.003220 0.170490 0.991700 1.395450
Cl1   Cl    Cl    0.611722 0.773472 0.654907 -0.752460
Cl2   Cl    Cl    0.388310 0.273594 0.345088 -0.752490
C61   C     C_3   0.168591 0.325929 0.871655 -0.312359
C62   C     C_3   0.156656 0.221390 0.777561 -0.747845
H27   H     H_    0.202228 0.200708 0.758343 0.229394
H28   H     H_    0.133730 0.081787 0.780743 0.213545
H29   H     H_    0.123306 0.305747 0.721795 0.208810
H30   H     H_    0.121537 0.347609 0.886358 0.199799
H31   H     H_    0.188529 0.468516 0.864682 0.183395
C63   C     C_3   0.831387 0.826032 0.128299 -0.312346
C64   C     C_3   0.843412 0.721439 0.222388 -0.747802
H32   H     H_    0.797864 0.700527 0.241647 0.229393
H33   H     H_    0.866397 0.581946 0.219166 0.213523
H34   H     H_    0.876738 0.805883 0.278143 0.208820
H35   H     H_    0.878414 0.847913 0.113541 0.199800
H36   H     H_    0.811402 0.968533 0.135311 0.183394
C65   C     C_3   0.457864 0.795687 0.320332 -0.359273
C66   C     C_3   0.417956 0.846238 0.222306 -0.662409
H37   H     H_    0.431737 0.986731 0.200322 0.243525
H38   H     H_    0.423449 0.731752 0.174469 0.213099
H39   H     H_    0.366451 0.851931 0.220864 0.233835
H40   H     H_    0.447581 0.646450 0.335091 0.229727
H41   H     H_    0.439783 0.885480 0.369383 0.232019
C67   C     C_3   0.542148 0.295628 0.679674 -0.359259
C68   C     C_3   0.582057 0.346057 0.777718 -0.662462
H42   H     H_    0.568295 0.486548 0.799733 0.243472
H43   H     H_    0.576546 0.231538 0.825524 0.213161
H44   H     H_    0.633564 0.351701 0.779168 0.233824
H45   H     H_    0.552421 0.146401 0.664873 0.229699
H46   H     H_    0.560241 0.385464 0.630653 0.232055

loop_
_geom_bond_atom_site_label_1
_geom_bond_atom_site_label_2
_ccdc_geom_bond_type
C68   H44   S    
C44   C46   A    
O14   V4    S    
C2    C23   S    
C51   C53   A    
C52   H26   S    
C20   H10   S    
O1    C3    A    
C51   H25   S    
O2    C4    A    
C66   H37   S    
C2    O7    A    
C24   C54   A    
C62   H27   S    
C68   H42   S    
C25   C27   A    
C41   H11   S    
C22   C59   S    
O5    C3    A    
C52   C54   A    
C38   C40   A    
C7    C9    A    
C67   H46   S    
C63   H36   S    
C35   C37   A    
C38   C50   A    
C36   C38   A    
O20   V3    S    
C68   H43   S    
C46   Cl2   S    
C47   C49   A    
C65   H40   S    
C64   H34   S    
C50   C56   A    
O11   C59   A    
C17   C19   S    
C61   H31   S    
C36   C44   A    
C39   H21   S    
C43   C45   A    
C33   C41   A    
C48   C52   A    
C40   C42   A    
C34   C42   A    
C47   C51   A    
C25   H15   S    
C14   C16   A    
C53   C65   S    
C26   C34   A    
C22   C30   A    
O5    V1    S    
C57   O18   A    
O6    V2    S    
O15   C59   A    
C42   H12   S    
O13   C57   A    
C30   C32   A    
C31   C33   A    
C11   C13   A    
C32   C34   A    
C3    C8    S    
C37   C39   A    
C48   C50   A    
C15   C17   S    
O12   C60   A    
C27   H17   S    
C30   H20   S    
O4    C2    A    
C29   H19   S    
C67   H45   S    
C24   C56   A    
C31   C35   A    
C63   H35   S    
C21   C27   A    
C44   H24   S    
C14   C57   S    
C58   O17   A    
C17   H5    S    
C26   H16   S    
C29   C31   A    
C21   C60   S    
C16   C18   S    
O4    V2    S    
C19   H7    S    
O13   V3    S    
C56   H14   S    
C20   H8    S    
O6    C4    A    
C39   C41   A    
O1    V2    S    
O2    V1    S    
C64   H32   S    
O12   V3    S    
C45   Cl1   S    
C8    C10   A    
C12   C14   A    
O14   C58   A    
C9    H1    S    
C5    C15   A    
O19   V4    S    
C10   H2    S    
O16   V4    S    
C6    C16   A    
C65   C66   S    
C66   H39   S    
C49   C55   A    
O3    V1    S    
C63   C64   S    
C25   C33   A    
C61   C62   S    
C32   C36   A    
C22   C28   A    
C43   H23   S    
C9    C11   A    
C54   C67   S    
C13   C58   S    
C18   H6    S    
C17   C61   S    
C65   H41   S    
C35   C43   A    
O3    C1    A    
O11   V4    S    
C66   H38   S    
C62   H28   S    
C67   C68   S    
C11   H3    S    
C1    C24   S    
C12   H4    S    
O17   V3    S    
C23   C53   A    
O7    V1    S    
C1    O8    A    
C13   C15   A    
O8    V2    S    
O18   V4    S    
C21   C29   A    
O19   V3    S    
C6    C20   S    
C40   H22   S    
C4    C7    S    
C26   C28   A    
C5    C7    A    
C18   C20   S    
O20   V4    S    
O16   C60   A    
C6    C8    A    
C19   H9    S    
C64   H33   S    
C62   H29   S    
C28   H18   S    
C61   H30   S    
C18   C63   S    
C46   C48   A    
C55   H13   S    
C10   C12   A    
O9    V2    S    
O10   V1    S    
C23   C55   A    
C5    C19   S    
C45   C47   A    
O15   V3    S    
C37   C49   A    
