data_mof_unit_36426.cif
_audit_creation_date              2013-03-05T16:18:51-0500
_audit_creation_method            fapswitch 2.2
_symmetry_space_group_name_H-M    P1
_symmetry_Int_Tables_number       1
_space_group_crystal_system       triclinic
_cell_length_a                    8.612489
_cell_length_b                    18.986263
_cell_length_c                    22.988796
_cell_angle_alpha                 101.844309
_cell_angle_beta                  89.652918
_cell_angle_gamma                 92.578694
_cell_volume                      3675.32428474

loop_
_atom_site_label
_atom_site_type_symbol
_atom_site_description
_atom_site_fract_x
_atom_site_fract_y
_atom_site_fract_z
_atom_type_partial_charge
P1    P     P_3+3 0.935930 0.665430 0.555670 0.625641
O1    O     O_2   0.110690 0.676100 0.539200 -0.284821
O2    O     O_3   0.863220 0.586720 0.534720 -0.377164
O3    O     O_3   0.368310 0.629070 0.432760 -0.347577
O4    O     O_2   0.274403 0.757188 0.480874 -0.373557
O5    O     O_3   0.941423 0.695435 0.634385 -0.464845
O6    O     O_3   0.356403 0.752176 0.371939 -0.620486
C1    C     C_3   0.406828 0.769555 0.273070 -0.051573
H1    H     H_    0.286132 0.786443 0.270177 0.079017
P2    P     P_3+3 0.382700 0.439650 0.365620 0.510971
P3    P     P_3+3 0.943330 0.579569 0.324432 0.540879
O7    O     O_2   0.210480 0.460990 0.358130 -0.301776
O8    O     O_3   0.959520 0.592090 0.401630 -0.421370
O9    O     O_2   0.081886 0.535447 0.297794 -0.367613
O10   O     O_3   0.355873 0.345547 0.349534 -0.566642
O11   O     O_3   0.977897 0.664358 0.305656 -0.506987
C2    C     C_3   0.969501 0.718570 0.357853 0.387405
H2    H     H_    0.059317 0.711577 0.390402 0.106797
H3    H     H_    0.854444 0.716016 0.379059 0.101469
C3    C     C_3   0.996200 0.794895 0.345801 -0.411882
H4    H     H_    0.121820 0.809671 0.346562 0.211790
C4    C     C_3   0.978933 0.295386 0.333302 0.598175
H5    H     H_    0.079432 0.288269 0.361311 -0.024930
C5    C     C_3   0.940409 0.224300 0.288955 -0.176805
H6    H     H_    0.842308 0.231788 0.260088 0.160108
H7    H     H_    0.040439 0.209791 0.259025 0.152532
Ba1   Ba    Ba6+2 0.157800 0.534120 0.474430 1.690504
C6    C     C_3   0.908304 0.639602 0.665048 0.265058
H8    H     H_    0.983958 0.593657 0.650003 0.060298
H9    H     H_    0.790044 0.620773 0.654874 0.107080
C7    C     C_3   0.918686 0.664964 0.734263 0.334325
C8    C     C_3   0.498357 0.312198 0.337230 0.116231
H10   H     H_    0.523554 0.285572 0.374494 0.098734
H11   H     H_    0.597936 0.350085 0.333333 0.136058
C9    C     C_3   0.487510 0.253200 0.280043 0.160846
H12   H     H_    0.586734 0.218222 0.280824 0.088023
P4    P     P_3+3 0.874370 0.334570 0.444280 0.491129
O12   O     O_2   0.699610 0.323860 0.460780 -0.363816
O13   O     O_3   0.947090 0.413280 0.465240 -0.367740
O14   O     O_3   0.442000 0.370930 0.567190 -0.371047
O15   O     O_3   0.845239 0.317368 0.366829 -0.613203
P5    P     P_3+3 0.884526 0.402156 0.672243 0.484202
O16   O     O_3   0.359410 0.538600 0.570730 -0.371524
O17   O     O_3   0.850780 0.407910 0.598320 -0.333315
O18   O     O_2   0.779715 0.459078 0.708804 -0.368169
O19   O     O_3   0.792224 0.318778 0.677524 -0.507537
Ba2   Ba    Ba6+2 0.652390 0.465870 0.525520 1.641247
P6    P     P_3+3 0.400743 0.722015 0.437947 0.524376
C10   C     C_3   0.413778 0.715121 0.316054 0.699556
H13   H     H_    0.440391 0.743735 0.227242 0.126089
O20   O     O_3   0.450900 0.461390 0.429220 -0.424024
C11   C     C_3   0.458542 0.711808 0.666134 0.826621
C12   C     C_3   0.433907 0.782416 0.713787 -0.118575
H14   H     H_    0.480120 0.830780 0.698020 0.142349
H15   H     H_    0.307511 0.790896 0.719335 0.163297
P7    P     P_3+3 0.425905 0.562152 0.647093 0.565911
O21   O     O_2   0.599830 0.538970 0.641850 -0.375810
O22   O     O_3   0.451863 0.650825 0.692777 -0.578884
H16   H     H_    0.943290 0.833350 0.382916 0.181404
C13   C     C_3   0.888959 0.275790 0.704441 0.552189
H17   H     H_    0.010104 0.297412 0.708824 -0.083175
C14   C     C_3   0.835614 0.273699 0.769557 -0.142677
H18   H     H_    0.942619 0.279419 0.797305 0.214948
P8    P     P_3+3 0.405857 0.277373 0.561804 0.450900
C15   C     C_3   0.351647 0.273090 0.672019 0.062614
H19   H     H_    0.232249 0.259922 0.654334 0.033801
O23   O     O_2   0.526272 0.241402 0.516446 -0.395630
O24   O     O_3   0.465907 0.255395 0.628096 -0.507246
H20   H     H_    0.364106 0.331791 0.690941 0.109050
C16   C     C_3   0.379006 0.231016 0.721191 0.357762
H21   H     H_    0.503674 0.237602 0.731524 0.043348
C17   C     C_R   0.984296 0.954080 0.530192 0.034494
C18   C     C_R   0.073843 0.908079 0.556112 0.090496
C19   C     C_R   0.219539 0.933406 0.580718 -0.121236
C20   C     C_R   0.276264 0.003150 0.579245 -0.089527
C21   C     C_R   0.186524 0.049935 0.554850 0.165335
C22   C     C_R   0.039825 0.025650 0.530158 0.059723
C23   C     C_R   0.241997 0.120460 0.555009 -0.209360
C24   C     C_R   0.152440 0.168766 0.531763 -0.069863
C25   C     C_R   0.006673 0.144049 0.504591 0.030921
C26   C     C_R   0.951089 0.072076 0.504116 0.026543
C27   C     C_R   0.204923 0.240913 0.534564 0.104759
C28   C     C_R   0.106442 0.287276 0.513317 -0.186793
C29   C     C_R   0.971489 0.263770 0.480037 0.174590
C30   C     C_R   0.918154 0.190407 0.476954 -0.062961
C31   C     C_R   0.839606 0.928601 0.504552 0.036250
C32   C     C_R   0.787776 0.855654 0.502301 -0.000161
C33   C     C_R   0.881474 0.807834 0.525958 -0.079247
C34   C     C_R   0.018724 0.837075 0.556005 -0.072955
H22   H     H_    0.291139 0.898898 0.600280 0.171659
H23   H     H_    0.390555 0.020622 0.597469 0.162482
H24   H     H_    0.355944 0.136885 0.573500 0.188312
H25   H     H_    0.084438 0.804824 0.579111 0.216341
C35   C     C_R   0.779360 0.161738 0.447910 0.030093
C36   C     C_R   0.721666 0.090918 0.448737 0.039146
C37   C     C_R   0.806701 0.046372 0.477814 -0.033593
C38   C     C_R   0.749277 0.975391 0.479275 -0.013482
C39   C     C_R   0.580379 0.063877 0.420299 0.029180
C40   C     C_R   0.517479 0.994951 0.424880 0.308028
C41   C     C_R   0.602206 0.950847 0.454931 -0.070826
C42   C     C_R   0.640980 0.831328 0.477200 -0.070076
C43   C     C_R   0.546973 0.880720 0.457553 -0.045919
C44   C     C_R   0.593738 0.757779 0.470419 0.284382
C45   C     C_R   0.695361 0.709344 0.487223 -0.325026
C46   C     C_R   0.834712 0.732804 0.518514 0.252211
H26   H     H_    0.714988 0.194678 0.424446 0.163980
H27   H     H_    0.433003 0.863352 0.440557 0.212939
H28   H     H_    0.659840 0.652779 0.479296 0.189459
H29   H     H_    0.172232 0.364069 0.064514 0.221885
C47   C     C_R   0.657696 0.505531 0.332835 -0.296839
C48   C     C_R   0.473054 0.526490 0.935885 -0.133639
C49   C     C_R   0.442365 0.510161 0.873807 0.528668
O25   O     O_2   0.547033 0.520739 0.840322 -0.616933
N1    N     N_R   0.299726 0.478216 0.851207 -0.145895
C50   C     C_R   0.199977 0.452823 0.891287 0.662316
O26   O     O_2   0.062544 0.439877 0.879629 -0.609295
C51   C     C_R   0.254347 0.445413 0.947749 -0.188886
C52   C     C_R   0.386714 0.487317 0.971648 -0.052303
C53   C     C_R   0.591017 0.577913 0.962628 0.203207
C54   C     C_R   0.629373 0.582222 0.023102 -0.132701
C55   C     C_R   0.552349 0.538210 0.057475 -0.057146
C56   C     C_R   0.432109 0.490243 0.031364 0.000710
C57   C     C_R   0.176875 0.400616 0.982287 0.390116
C58   C     C_R   0.230155 0.400312 0.039699 -0.169479
C59   C     C_R   0.356957 0.445068 0.064854 -0.128335
C60   C     C_R   0.412418 0.443763 0.122270 0.605558
N2    N     N_R   0.524788 0.494310 0.150330 -0.171098
C61   C     C_R   0.589150 0.543516 0.118288 0.514477
C62   C     C_2   0.137889 0.427032 0.760118 -0.158237
C63   C     C_3   0.099878 0.418622 0.694146 0.026928
C64   C     C_1   0.310617 0.509370 0.691872 0.300542
C65   C     C_2   0.348569 0.513768 0.748230 -0.128355
C66   C     C_2   0.258079 0.471546 0.787254 0.114315
C67   C     C_R   0.722945 0.521303 0.233688 -0.097424
C68   C     C_R   0.761452 0.530540 0.294065 0.366156
C69   C     C_R   0.509176 0.478747 0.313691 0.194699
C70   C     C_R   0.464287 0.476910 0.254799 -0.171598
C71   C     C_R   0.571069 0.496797 0.212645 0.107488
O27   O     O_2   0.361550 0.396346 0.146570 -0.499080
O28   O     O_2   0.675095 0.593557 0.142803 -0.576917
C72   C     C_2   0.182805 0.475493 0.667055 -0.367298
H30   H     H_    0.719806 0.620046 0.044073 0.182390
H31   H     H_    0.812211 0.534670 0.204084 0.175178
H32   H     H_    0.416409 0.561556 0.769058 0.210014
H33   H     H_    0.075313 0.390287 0.782526 0.198252
H34   H     H_    0.345070 0.460629 0.243127 0.216981
H35   H     H_    0.691611 0.509010 0.378638 0.160237
H36   H     H_    0.131313 0.491119 0.628924 0.139321
N3    N     N_2   0.311959 0.651631 0.294562 -0.106601
H37   H     H_    0.323208 0.611853 0.318481 0.225819
C73   C     C_3   0.298524 0.624064 0.230843 -0.949045
H38   H     H_    0.242113 0.569456 0.220962 0.282603
H39   H     H_    0.414741 0.621015 0.210038 0.262426
H40   H     H_    0.225160 0.659170 0.210485 0.262482
N4    N     N_R   0.903315 0.164802 0.318347 0.240672
O29   O     O_R   0.778405 0.124373 0.303165 -0.419598
O30   O     O_R   0.009979 0.142119 0.348723 -0.452425
N5    N     N_R   0.078608 0.687894 0.753136 0.262603
O31   O     O_R   0.185116 0.641116 0.745721 -0.429416
O32   O     O_R   0.108938 0.750491 0.787590 -0.291629
N6    N     N_2   0.864807 0.603621 0.759911 -0.149955
H41   H     H_    0.746630 0.592318 0.755123 0.208697
C74   C     C_3   0.923729 0.595921 0.817245 -0.625529
H42   H     H_    0.851460 0.554736 0.834299 0.270185
H43   H     H_    0.923278 0.647555 0.849929 0.259358
H44   H     H_    0.043475 0.576944 0.812901 0.242061
N7    N     N_R   0.819024 0.725586 0.755451 0.243574
O33   O     O_R   0.765021 0.733625 0.809280 -0.339220
O34   O     O_R   0.836218 0.782891 0.732835 -0.269579
N8    N     N_2   0.343553 0.209343 0.277700 -0.095611
H45   H     H_    0.296127 0.206888 0.318435 0.175624
C75   C     C_3   0.342713 0.139484 0.237732 -0.718665
H46   H     H_    0.433335 0.106007 0.250761 0.239937
H47   H     H_    0.363987 0.145281 0.191296 0.284040
H48   H     H_    0.227727 0.111091 0.239397 0.256012
N9    N     N_R   0.502346 0.285578 0.227545 0.273884
O35   O     O_R   0.392307 0.276322 0.187826 -0.262740
O36   O     O_R   0.632229 0.318856 0.217671 -0.382415
N10   N     N_R   0.574462 0.692602 0.318728 0.204467
O37   O     O_R   0.668837 0.695836 0.274806 -0.387105
O38   O     O_R   0.608884 0.650967 0.354396 -0.536944
N11   N     N_R   0.601184 0.714171 0.633054 0.170240
O39   O     O_R   0.674966 0.775332 0.632338 -0.420078
O40   O     O_R   0.615579 0.661181 0.588098 -0.445575
N12   N     N_R   0.334401 0.707155 0.625039 0.211262
O41   O     O_R   0.325886 0.757365 0.594544 -0.451418
O42   O     O_R   0.213270 0.668902 0.634180 -0.385904
N13   N     N_R   0.496213 0.782522 0.772553 0.305341
O43   O     O_R   0.568320 0.840846 0.801433 -0.255568
O44   O     O_R   0.443317 0.735076 0.802163 -0.271279
N14   N     N_R   0.509574 0.833907 0.290134 0.292944
O45   O     O_R   0.519455 0.879958 0.255328 -0.334014
O46   O     O_R   0.606685 0.841162 0.334177 -0.396724
N15   N     N_2   0.898379 0.204178 0.666721 -0.121036
H49   H     H_    0.995793 0.198642 0.640335 0.165164
C76   C     C_3   0.762388 0.171745 0.633481 -0.692106
H50   H     H_    0.740270 0.199474 0.596457 0.268464
H51   H     H_    0.660416 0.173767 0.662670 0.280933
H52   H     H_    0.781985 0.114229 0.614512 0.214515
N16   N     N_2   0.752443 0.206108 0.773824 -0.121689
H53   H     H_    0.656423 0.211297 0.801063 0.216983
C77   C     C_3   0.846581 0.148845 0.784759 -0.614858
H54   H     H_    0.773190 0.098455 0.780617 0.253048
H55   H     H_    0.896219 0.163170 0.830386 0.269353
H56   H     H_    0.942050 0.138618 0.752076 0.283779
N17   N     N_2   0.741788 0.335333 0.793327 -0.098490
H57   H     H_    0.644057 0.340469 0.769206 0.240770
C78   C     C_3   0.715498 0.351801 0.856822 -0.640445
H58   H     H_    0.682576 0.408516 0.870571 0.258533
H59   H     H_    0.821818 0.345412 0.881347 0.297865
H60   H     H_    0.620051 0.316403 0.869040 0.242697
N18   N     N_R   0.295804 0.260601 0.775758 0.202880
O47   O     O_R   0.203035 0.219345 0.800362 -0.329007
O48   O     O_R   0.342644 0.322795 0.807052 -0.475048
N19   N     N_R   0.338721 0.154068 0.701208 0.240592
O49   O     O_R   0.440547 0.106776 0.705400 -0.407382
O50   O     O_R   0.195923 0.132097 0.687592 -0.428321
N20   N     N_2   0.147624 0.360369 0.523530 -0.113095
H61   H     H_    0.173521 0.382785 0.567014 0.150884
C79   C     C_3   0.253165 0.377625 0.479732 -0.494890
H62   H     H_    0.308781 0.429499 0.499886 0.282534
H63   H     H_    0.191461 0.379910 0.438736 0.223402
H64   H     H_    0.342855 0.337245 0.466405 0.201245
N21   N     N_2   0.505557 0.105471 0.384811 -0.110617
H65   H     H_    0.514477 0.084869 0.339950 0.242234
C80   C     C_3   0.352484 0.128726 0.403309 -0.763155
H66   H     H_    0.268614 0.107808 0.366999 0.296300
H67   H     H_    0.353569 0.188403 0.414266 0.217412
H68   H     H_    0.313192 0.107602 0.442333 0.260099
N22   N     N_R   0.370307 0.969267 0.397211 0.239898
O51   O     O_R   0.346706 0.969236 0.341401 -0.360686
O52   O     O_R   0.254041 0.953359 0.429216 -0.456954
N23   N     N_R   0.055812 0.349078 0.957707 0.245308
O53   O     O_R   0.936975 0.337409 0.990225 -0.382756
O54   O     O_R   0.080818 0.303286 0.908523 -0.331018
N24   N     N_2   0.659508 0.628220 0.929844 -0.099483
H69   H     H_    0.586114 0.642578 0.899378 0.243347
C81   C     C_3   0.757254 0.688547 0.960270 -0.818763
H70   H     H_    0.792802 0.723542 0.928884 0.293093
H71   H     H_    0.864493 0.669005 0.977039 0.243452
H72   H     H_    0.692442 0.721614 0.997239 0.256333
N25   N     N_2   0.929615 0.802314 0.289714 -0.036595
H73   H     H_    0.969519 0.766261 0.253489 0.238719
C82   C     C_3   0.936400 0.875242 0.279852 -0.552608
H74   H     H_    0.872828 0.876903 0.238321 0.241441
H75   H     H_    0.059221 0.893980 0.275425 0.227992
H76   H     H_    0.881066 0.912211 0.317224 0.266365
N26   N     N_R   0.020952 0.349174 0.297962 0.246149
O55   O     O_R   0.138387 0.339855 0.261771 -0.340817
O56   O     O_R   0.924223 0.398293 0.293293 -0.379763

loop_
_geom_bond_atom_site_label_1
_geom_bond_atom_site_label_2
_geom_bond_distance
_ccdc_geom_bond_type
P2    Ba1   3.411464 S    
C65   H32   1.082232 S    
O14   Ba2   2.800721 S    
N15   C76   1.444872 S    
C32   C33   1.430131 A    
C7    N6    1.466090 S    
C42   C43   1.409084 A    
C33   C46   1.438731 A    
N4    O30   1.297629 A    
C16   N18   1.462412 S    
C18   C19   1.402991 A    
C47   C69   1.394591 A    
C36   C37   1.411475 A    
C20   C21   1.404431 A    
N21   H65   1.028903 S    
C40   N22   1.440773 S    
C24   C27   1.411812 A    
C79   H63   1.094277 S    
N6    H41   1.032521 S    
N20   H61   1.024531 S    
C36   C39   1.409724 A    
C13   N15   1.460213 S    
C57   C58   1.401171 A    
N7    O34   1.301061 A    
C12   H14   1.111291 S    
P7    O21   1.577149 D    
C15   H19   1.106990 S    
C3    N25   1.449821 S    
C81   H72   1.111205 S    
C60   N2    1.394133 Am   
C77   H55   1.111211 S    
C48   C52   1.405656 A    
C9    N9    1.465033 S    
P8    O24   1.747602 S    
N13   O44   1.301312 A    
C6    H8    1.108903 S    
C74   H43   1.106145 S    
C12   N13   1.456241 S    
C5    H7    1.108100 S    
P2    O10   1.753561 S    
N3    C73   1.454276 S    
P5    O19   1.765565 S    
C75   H46   1.108356 S    
C25   C26   1.425356 A    
P3    O9    1.539889 D    
N17   C78   1.447305 S    
N12   O42   1.285220 A    
C4    O15   1.412260 S    
N8    H45   1.028350 S    
C1    N14   1.462848 S    
C50   O26   1.218138 D    
P3    O8    1.747072 S    
C2    C3    1.537415 S    
N24   H69   1.031323 S    
C48   C53   1.426624 A    
P1    O1    1.564265 D    
C52   C56   1.419073 A    
C73   H40   1.109967 S    
C63   C72   1.505036 S    
C31   C38   1.418339 A    
N11   O39   1.301468 A    
C45   C46   1.409626 A    
O3    Ba1   2.801491 S    
C72   H36   1.084621 S    
C2    H3    1.105202 S    
C67   H31   1.079641 S    
C57   N23   1.432580 S    
N13   O43   1.301531 A    
P4    O15   1.760443 S    
O5    C6    1.406799 S    
C74   H42   1.109795 S    
C82   H75   1.111557 S    
C1    H1    1.107869 S    
C50   C51   1.418482 A    
C77   H56   1.106932 S    
C39   N21   1.421665 S    
N25   C82   1.446882 S    
C73   H38   1.105415 S    
P4    C29   1.935295 S    
C16   H21   1.097131 S    
N2    C71   1.480116 S    
P7    O22   1.797355 S    
P4    Ba2   3.439746 S    
C5    N4    1.453597 S    
C82   H74   1.110196 S    
C62   H33   1.073692 S    
N19   O50   1.299770 A    
C64   C72   1.320670 D    
O17   Ba2   2.809117 S    
C20   H23   1.083061 S    
C17   C18   1.411556 A    
N9    O36   1.301635 A    
N15   H49   1.028810 S    
C42   C44   1.414257 A    
C32   C42   1.411230 A    
N5    O32   1.302399 A    
C47   C68   1.394364 A    
C35   C36   1.416154 A    
P5    O17   1.751966 S    
C76   H52   1.109657 S    
P2    O20   1.547234 S    
C49   N1    1.399385 Am   
C79   H62   1.089500 S    
N6    C74   1.452575 S    
N26   O56   1.298982 A    
N25   H73   1.031438 S    
C21   C22   1.407102 A    
C12   H15   1.110345 S    
C11   O22   1.415538 S    
O4    P6    1.544548 D    
C81   H71   1.110487 S    
C60   O27   1.217581 D    
N4    O29   1.299455 A    
C77   H54   1.110321 S    
O7    Ba1   2.792835 S    
N14   O45   1.300622 A    
P7    C64   1.836148 S    
C8    C9    1.542528 S    
C70   H34   1.078194 S    
O10   C8    1.406760 S    
C74   H44   1.104905 S    
C54   H30   1.080199 S    
C29   C30   1.434743 A    
O6    C10   1.429045 S    
C55   C61   1.417662 A    
C76   H51   1.099253 S    
C19   C20   1.397588 A    
Ba1   O13   2.834208 S    
N7    O33   1.301085 A    
C26   C37   1.408375 A    
N17   H57   1.029894 S    
N16   H53   1.030257 S    
Ba2   O20   2.806346 S    
C23   H24   1.078946 S    
P6    C44   1.867230 S    
P1    O5    1.782343 S    
C13   H17   1.101378 S    
P1    O2    1.575231 S    
P5    O18   1.547568 D    
C8    H11   1.109493 S    
N5    O31   1.291713 A    
P4    O12   1.564551 D    
N19   O49   1.300771 A    
N14   O46   1.298560 A    
C25   C30   1.433660 A    
P3    C68   1.850085 S    
Ba2   O21   2.793060 S    
C30   C35   1.404596 A    
C53   N24   1.437956 S    
N20   C79   1.429998 S    
C40   C41   1.417559 A    
C22   C26   1.415002 A    
P2    C69   1.854154 S    
C15   O24   1.406876 S    
C37   C38   1.421369 A    
C3    H4    1.104722 S    
C14   H18   1.112507 S    
C41   C43   1.406506 A    
C2    H2    1.110364 S    
O12   Ba2   2.845024 S    
C43   H27   1.071210 S    
P5    C63   1.919833 S    
C11   C12   1.569123 S    
C5    H6    1.109415 S    
C3    H16   1.112756 S    
N22   O52   1.300113 A    
N23   O54   1.300408 A    
P8    C27   1.895651 S    
C55   C56   1.400127 A    
O1    Ba1   2.844599 S    
P2    O7    1.574684 D    
C62   C66   1.373904 D    
C78   H59   1.102440 S    
N9    O35   1.300921 A    
C7    N7    1.467132 S    
C27   C28   1.407670 A    
C80   H67   1.108703 S    
C6    C7    1.566827 S    
C59   C60   1.411762 A    
C4    C5    1.539465 S    
C11   N11   1.444750 S    
C28   C29   1.399761 A    
C11   N12   1.418779 S    
C16   N19   1.465139 S    
N2    C61   1.397707 Am   
C1    H13   1.109436 S    
C45   H28   1.082106 S    
C38   C41   1.408257 A    
C54   C55   1.406262 A    
O13   Ba2   2.996113 S    
C62   C63   1.527984 S    
O3    P6    1.753848 S    
Ba1   Ba2   4.731306 S    
C28   N20   1.389163 S    
C81   H70   1.109778 S    
C35   H26   1.078302 S    
C48   C49   1.420619 A    
O19   C13   1.420531 S    
C31   C32   1.426646 A    
P3    O11   1.762698 S    
P8    O23   1.545170 D    
C80   H66   1.105286 S    
C21   C23   1.400594 A    
C76   H50   1.110330 S    
C64   C65   1.323121 D    
N21   C80   1.443016 S    
C67   C71   1.421957 A    
C17   C22   1.420254 A    
C17   C31   1.404247 A    
C53   C54   1.415979 A    
C75   H48   1.110300 S    
H29   C58   1.083793 S    
N1    C50   1.398193 Am   
C67   C68   1.402749 A    
N10   O37   1.301908 A    
C80   H68   1.100922 S    
C70   C71   1.426752 A    
C51   C52   1.407477 A    
O14   P8    1.768583 S    
C82   H76   1.111538 S    
C10   N3    1.460076 S    
C8    H10   1.107421 S    
C19   H22   1.082789 S    
C56   C59   1.400863 A    
O2    Ba1   2.995369 S    
C51   C57   1.420822 A    
C18   C34   1.408466 A    
C6    H9    1.075023 S    
P4    O13   1.575286 S    
N26   O55   1.300743 A    
O6    P6    1.777589 S    
C13   C14   1.570955 S    
C4    N26   1.462088 S    
Ba1   O20   3.008640 S    
C23   C24   1.411213 A    
N12   O41   1.298800 A    
O11   C2    1.415336 S    
N8    C75   1.449986 S    
C78   H60   1.109653 S    
C15   H20   1.110712 S    
O2    Ba2   2.834958 S    
C75   H47   1.108753 S    
N1    C66   1.493995 S    
N24   C81   1.449594 S    
C65   C66   1.511738 S    
C78   H58   1.107464 S    
C49   O25   1.218314 D    
C73   H39   1.105426 S    
C34   H25   1.070407 S    
N22   O51   1.300100 A    
N11   O40   1.295562 A    
C7    N5    1.466480 S    
N18   O48   1.298682 A    
C14   N16   1.462084 S    
C24   C25   1.422191 A    
Ba1   O16   2.806988 S    
O16   P7    1.810125 S    
C58   C59   1.404115 A    
C33   C34   1.405717 A    
N16   C77   1.447947 S    
C39   C40   1.417458 A    
P1    C46   1.919308 S    
C44   C45   1.408291 A    
P1    Ba1   3.439314 S    
C9    N8    1.457028 S    
C4    H5    1.111307 S    
O8    Ba1   2.808626 S    
C9    H12   1.108061 S    
C10   N10   1.472002 S    
C15   C16   1.536975 S    
N3    H37   1.029493 S    
O16   Ba2   3.007754 S    
C1    C10   1.572790 S    
C14   N17   1.462258 S    
C79   H64   1.110106 S    
C69   C70   1.403334 A    
C47   H35   1.082507 S    
N23   O53   1.301437 A    
N18   O47   1.300743 A    
C61   O28   1.220705 D    
N10   O38   1.294305 A    
