data_mof_unit_7937.cif
_audit_creation_date              2012-10-26T20:46:49-0400
_audit_creation_method            fapswitch 2.2
_symmetry_space_group_name_H-M    P1
_symmetry_Int_Tables_number       1
_space_group_crystal_system       triclinic
_cell_length_a                    15.031564
_cell_length_b                    14.050432
_cell_length_c                    10.915351
_cell_angle_alpha                 90.000056
_cell_angle_beta                  92.17336
_cell_angle_gamma                 89.999976
_cell_volume                      2303.66346309

loop_
_atom_site_label
_atom_site_type_symbol
_atom_type_description
_atom_site_fract_x
_atom_site_fract_y
_atom_site_fract_z
_atom_type_partial_charge
C1    C     C_R   0.330492 0.499836 0.500725 0.546036
C2    C     C_R   0.453616 0.893508 0.409573 -0.150283
C3    C     C_R   0.546386 0.893508 0.590425 -0.150282
C4    C     C_R   0.452639 0.792853 0.411049 0.118676
C5    C     C_R   0.547361 0.792853 0.588950 0.118676
C6    C     C_R   0.500001 0.945961 0.499999 0.000314
C7    C     C_R   0.499395 0.499974 0.265509 0.553284
C8    C     C_R   0.500605 0.499974 0.734491 0.553284
C9    C     C_2   0.494943 0.422208 0.933128 -0.174852
C10   C     C_2   0.505057 0.422208 0.066872 -0.174852
C11   C     C_2   0.505794 0.501166 0.866901 -0.117979
C12   C     C_R   0.669508 0.499836 0.499275 0.546036
C13   C     C_2   0.494205 0.501166 0.133099 -0.117979
C14   C     C_R   0.099051 0.463633 0.604388 -0.129864
C15   C     C_R   0.907320 0.523803 0.604357 -0.128988
C16   C     C_R   0.191615 0.466432 0.605040 -0.134613
C17   C     C_R   0.814894 0.525645 0.603623 -0.130715
C18   C     C_R   0.234373 0.498843 0.501540 0.035846
C19   C     C_R   0.765627 0.498842 0.498459 0.035846
C20   C     C_R   0.185106 0.525641 0.396375 -0.130714
C21   C     C_R   0.808385 0.466428 0.394962 -0.134613
C22   C     C_R   0.092680 0.523799 0.395640 -0.128988
C23   C     C_R   0.048870 0.493193 0.499947 0.028487
C24   C     C_R   0.900949 0.463629 0.395613 -0.129865
C25   C     C_R   0.397566 0.748875 0.312199 0.091941
C26   C     C_R   0.430065 0.745594 0.193182 -0.093863
C27   C     C_R   0.372850 0.724675 0.092790 -0.132354
C28   C     C_R   0.282349 0.709725 0.109852 -0.110975
C29   C     C_R   0.248840 0.716779 0.227099 -0.138672
C30   C     C_R   0.306133 0.735921 0.328092 -0.085706
C31   C     C_R   0.602431 0.748876 0.687804 0.091942
C32   C     C_R   0.569928 0.745597 0.806819 -0.093863
C33   C     C_R   0.627140 0.724680 0.907215 -0.132354
C34   C     C_R   0.951130 0.493193 0.500052 0.028487
C35   C     C_R   0.717642 0.709728 0.890159 -0.110974
C36   C     C_R   0.751154 0.716780 0.772915 -0.138671
C37   C     C_R   0.693864 0.735920 0.671917 -0.085709
C38   C     C_R   0.647609 0.251414 0.616793 0.082890
C39   C     C_R   0.730693 0.251524 0.561725 -0.088391
C40   C     C_R   0.806536 0.284348 0.626832 -0.108826
C41   C     C_R   0.800165 0.316158 0.747517 -0.112499
C42   C     C_R   0.718292 0.313468 0.803958 -0.125534
C43   C     C_R   0.642715 0.279324 0.739544 -0.066462
C44   C     C_R   0.352390 0.251413 0.383208 0.082890
C45   C     C_R   0.571154 0.106416 0.551190 -0.151734
C46   C     C_R   0.269307 0.251522 0.438276 -0.088391
C47   C     C_R   0.193463 0.284346 0.373169 -0.108826
C48   C     C_R   0.199834 0.316156 0.252485 -0.112500
C49   C     C_R   0.281706 0.313466 0.196043 -0.125535
C50   C     C_R   0.357284 0.279324 0.260457 -0.066463
C51   C     C_R   0.428847 0.106416 0.448808 -0.151734
C52   C     C_R   0.570127 0.207009 0.553109 0.115037
C53   C     C_R   0.429873 0.207009 0.446891 0.115037
C54   C     C_R   0.500001 0.053992 0.499999 0.002040
Cu1   Cu    Cu3+1 0.500000 0.596430 0.500000 0.951589
Cu2   Cu    Cu3+1 0.500000 0.403570 0.500000 0.948507
H1    H     H_    0.479909 0.354738 0.888938 0.136152
H2    H     H_    0.770144 0.443405 0.314181 0.101179
H3    H     H_    0.055620 0.546704 0.313896 0.098275
H4    H     H_    0.933229 0.437682 0.315121 0.097227
H5    H     H_    0.628799 0.069559 0.590270 0.094971
H6    H     H_    0.371202 0.069559 0.409728 0.094972
H7    H     H_    0.417926 0.930373 0.335718 0.098042
H8    H     H_    0.582075 0.930373 0.664280 0.098042
H9    H     H_    0.499384 0.761101 0.178132 0.096490
H10   H     H_    0.398493 0.721423 0.001570 0.096645
H11   H     H_    0.237933 0.694438 0.031981 0.108040
H12   H     H_    0.520090 0.354738 0.111061 0.136152
H13   H     H_    0.178212 0.708150 0.239653 0.103328
H14   H     H_    0.278732 0.744439 0.417805 0.114999
H15   H     H_    0.500609 0.761105 0.821864 0.096491
H16   H     H_    0.601493 0.721430 0.998434 0.096644
H17   H     H_    0.762055 0.694442 0.968034 0.108041
H18   H     H_    0.821783 0.708150 0.760365 0.103326
H19   H     H_    0.721268 0.744437 0.582206 0.114999
H20   H     H_    0.736498 0.226310 0.468596 0.096738
H21   H     H_    0.870160 0.285447 0.583619 0.114502
H22   H     H_    0.858803 0.342089 0.797552 0.102660
H23   H     H_    0.521986 0.568561 0.909445 0.105912
H24   H     H_    0.713700 0.336106 0.898291 0.106638
H25   H     H_    0.580993 0.271941 0.785925 0.102829
H26   H     H_    0.263502 0.226309 0.531405 0.096738
H27   H     H_    0.129840 0.285444 0.416383 0.114502
H28   H     H_    0.141195 0.342086 0.202449 0.102660
H29   H     H_    0.286298 0.336105 0.101709 0.106638
H30   H     H_    0.419006 0.271942 0.214075 0.102829
H31   H     H_    0.478014 0.568561 0.090555 0.105910
H32   H     H_    0.066771 0.437689 0.684882 0.097227
H33   H     H_    0.944380 0.546712 0.686100 0.098275
H34   H     H_    0.229855 0.443412 0.685822 0.101178
H35   H     H_    0.781596 0.544950 0.685976 0.117933
H36   H     H_    0.218404 0.544943 0.314021 0.117934
N1    N     N_R   0.500000 0.258690 0.500000 -0.232926
N2    N     N_R   0.500000 0.741330 0.500000 -0.232367
O1    O     O_R   0.371460 0.581430 0.500010 -0.504104
O2    O     O_R   0.628540 0.581430 0.499990 -0.504104
O3    O     O_R   0.371470 0.418560 0.500010 -0.492883
O4    O     O_R   0.628530 0.418560 0.499990 -0.492883
O5    O     O_R   0.500000 0.581410 0.321940 -0.499170
O6    O     O_R   0.500000 0.581410 0.678060 -0.499170
O7    O     O_R   0.500010 0.418540 0.321940 -0.504868
O8    O     O_R   0.499990 0.418540 0.678060 -0.504868

loop_
_geom_bond_atom_site_label_1
_geom_bond_atom_site_label_2
_ccdc_geom_bond_type
Cu1   Cu2   S    
C42   H24   S    
C41   C42   A    
C35   C36   A    
C17   H35   S    
Cu2   O4    S    
C3    C6    A    
C5    N2    A    
C3    H8    S    
C36   H18   S    
C16   H34   S    
C20   H36   S    
C26   C27   A    
C7    O5    A    
C28   C29   A    
C19   C21   A    
Cu2   O7    S    
C38   C39   A    
C38   C52   S    
C18   C20   A    
C33   H16   S    
C17   C19   A    
C46   H26   S    
C44   C53   S    
C35   H17   S    
C31   C32   A    
Cu1   O6    S    
C47   H27   S    
C9    C10   S    
C15   C34   A    
C12   O4    A    
C24   H4    S    
C37   H19   S    
C2    C6    A    
C51   H6    S    
Cu2   O3    S    
C6    C54   S    
Cu1   N2    S    
C30   H14   S    
C44   C46   A    
C4    C25   S    
C32   H15   S    
C29   H13   S    
Cu2   N1    S    
C53   N1    A    
C49   H29   S    
C28   H11   S    
Cu1   O1    S    
C1    O3    A    
C22   H3    S    
C45   C52   A    
C25   C26   A    
C24   C34   A    
C48   H28   S    
C51   C53   A    
C14   C23   A    
C2    C4    A    
C29   C30   A    
C15   H33   S    
C47   C48   A    
C7    C13   S    
C1    O1    A    
C23   C34   S    
C13   H31   S    
C1    C18   S    
C52   N1    A    
C39   H20   S    
C9    C11   D    
C11   H23   S    
C4    N2    A    
C48   C49   A    
C20   C22   A    
C45   C54   A    
C43   H25   S    
C14   C16   A    
C42   C43   A    
C41   H22   S    
C2    H7    S    
C44   C50   A    
C25   C30   A    
C15   C17   A    
C46   C47   A    
C36   C37   A    
C22   C23   A    
C26   H9    S    
Cu1   O2    S    
C3    C5    A    
C10   C13   D    
C10   H12   S    
C51   C54   A    
C32   C33   A    
C8    O6    A    
Cu2   O8    S    
C38   C43   A    
C27   H10   S    
C8    C11   S    
C12   C19   S    
C45   H5    S    
C33   C35   A    
C9    H1    S    
C50   H30   S    
C14   H32   S    
C39   C40   A    
C31   C37   A    
C21   H2    S    
C16   C18   A    
C49   C50   A    
C7    O7    A    
C21   C24   A    
Cu1   O5    S    
C27   C28   A    
C40   H21   S    
C12   O2    A    
C40   C41   A    
C8    O8    A    
C5    C31   S    
