data_mof_unit_11282.cif
_audit_creation_date              2013-03-05T15:52:04-0500
_audit_creation_method            fapswitch 2.2
_symmetry_space_group_name_H-M    P1
_symmetry_Int_Tables_number       1
_space_group_crystal_system       triclinic
_cell_length_a                    12.166906
_cell_length_b                    12.744577
_cell_length_c                    27.626464
_cell_angle_alpha                 90.68105
_cell_angle_beta                  87.242421
_cell_angle_gamma                 91.295649
_cell_volume                      4277.51207985

loop_
_atom_site_label
_atom_site_type_symbol
_atom_site_description
_atom_site_fract_x
_atom_site_fract_y
_atom_site_fract_z
_atom_type_partial_charge
O1    O     O_R   0.421700 0.658820 0.502400 -0.625381
O2    O     O_R   0.578300 0.341180 0.497600 -0.613737
O3    O     O_R   0.609310 0.646410 0.496630 -0.520678
O4    O     O_R   0.390690 0.353590 0.503370 -0.568822
C1    C     C_R   0.520345 0.699045 0.496049 0.875224
C2    C     C_R   0.479416 0.300483 0.502192 0.855816
O5    O     O_R   0.406200 0.506190 0.574130 -0.560058
O6    O     O_R   0.593800 0.493810 0.425870 -0.565956
O7    O     O_R   0.593820 0.493770 0.568360 -0.656188
O8    O     O_R   0.406180 0.506230 0.431640 -0.670049
C3    C     C_R   0.501037 0.500497 0.593779 0.892166
C4    C     C_R   0.498986 0.500100 0.406225 0.882235
Zn1   Zn    Zn3+2 0.374730 0.508290 0.503850 1.012428
Zn2   Zn    Zn3+2 0.625270 0.491710 0.496150 1.029093
C5    C     C_R   0.537021 0.607804 0.823064 0.614505
C6    C     C_R   0.425924 0.419732 0.178284 0.551689
O9    O     O_2   0.587210 0.686914 0.797976 -0.569645
O10   O     O_2   0.367140 0.348405 0.205005 -0.550403
N1    N     N_R   0.504844 0.519447 0.798632 -0.336341
N2    N     N_R   0.490112 0.491770 0.201439 -0.338908
C7    C     C_R   0.463538 0.432571 0.822024 0.540265
C8    C     C_R   0.548531 0.568777 0.177253 0.573747
C9    C     C_R   0.584450 0.458064 0.720899 -0.170495
C10   C     C_R   0.402055 0.528951 0.280495 -0.179713
C11   C     C_R   0.582739 0.451522 0.670766 -0.189879
C12   C     C_R   0.403931 0.532066 0.330640 -0.217059
C13   C     C_R   0.425497 0.565201 0.672721 -0.340989
C14   C     C_R   0.586964 0.459745 0.325825 -0.315442
C15   C     C_R   0.429764 0.577042 0.723197 0.547782
C16   C     C_R   0.583884 0.452280 0.275330 0.540253
C17   C     C_R   0.507943 0.519716 0.746954 0.224841
C18   C     C_R   0.491920 0.490158 0.252939 0.236578
C19   C     C_R   0.481304 0.523585 0.898733 -0.065041
C20   C     C_R   0.476623 0.504317 0.102042 -0.062567
C21   C     C_R   0.520236 0.614609 0.873939 -0.165834
C22   C     C_R   0.419346 0.422168 0.127341 -0.166640
C23   C     C_R   0.540514 0.708030 0.900809 -0.108256
C24   C     C_R   0.353539 0.349792 0.101272 -0.107520
C25   C     C_R   0.453028 0.432092 0.872460 0.000907
C26   C     C_R   0.542547 0.577047 0.127245 -0.012578
C27   C     C_R   0.503207 0.505216 0.646508 -0.041759
C28   C     C_R   0.496578 0.497696 0.353540 -0.090678
H1    H     H_    0.363038 0.602632 0.653438 0.206296
H2    H     H_    0.659312 0.435061 0.343335 0.209971
C29   C     C_R   0.524183 0.598319 0.026702 0.083698
C30   C     C_R   0.427188 0.433257 0.974256 0.080786
C31   C     C_R   0.411507 0.436147 0.025371 -0.098182
C32   C     C_R   0.511115 0.610125 0.976423 -0.095955
C33   C     C_R   0.470362 0.513032 0.051348 0.024323
C34   C     C_R   0.472431 0.522747 0.949858 0.022601
C35   C     C_R   0.594043 0.665723 0.052587 -0.166610
C36   C     C_R   0.404543 0.341815 0.947026 -0.188840
C37   C     C_R   0.602208 0.655838 0.102105 -0.175318
C38   C     C_R   0.416169 0.341636 0.896929 -0.165977
O11   O     O_2   0.610843 0.638143 0.201879 -0.526956
O12   O     O_2   0.432303 0.347087 0.796333 -0.536741
C39   C     C_R   0.534276 0.705884 0.951773 0.372329
C40   C     C_R   0.341236 0.363714 0.051482 0.368442
H3    H     H_    0.333941 0.563070 0.351351 0.169138
H4    H     H_    0.642155 0.403239 0.651018 0.160030
H5    H     H_    0.331184 0.557544 0.262849 0.162582
H6    H     H_    0.644376 0.414438 0.739710 0.168777
H7    H     H_    0.656341 0.710011 0.120564 0.197752
H8    H     H_    0.397407 0.269623 0.877473 0.195796
H9    H     H_    0.647369 0.723763 0.034845 0.210739
H10   H     H_    0.382532 0.267852 0.963925 0.202567
C41   C     C_R   0.467018 0.189896 0.507162 -0.080187
C42   C     C_R   0.530873 0.809144 0.489016 -0.088666
C43   C     C_R   0.561039 0.959772 0.437802 -0.240197
C44   C     C_R   0.421605 0.037171 0.555048 -0.202634
C45   C     C_R   0.570642 0.852247 0.444379 -0.041282
C46   C     C_R   0.418590 0.145011 0.549667 -0.153705
C47   C     C_R   0.484264 0.870796 0.525796 -0.204539
C48   C     C_R   0.507615 0.128509 0.468952 -0.227595
C49   C     C_R   0.472694 0.976299 0.518675 0.198577
C50   C     C_R   0.512991 0.021540 0.474709 0.156023
H11   H     H_    0.538832 0.164898 0.435552 0.144142
H12   H     H_    0.454477 0.835564 0.559646 0.129223
H13   H     H_    0.591566 0.995388 0.404145 0.167834
H14   H     H_    0.388348 0.001484 0.588243 0.149031
N3    N     N_R   0.207800 0.519340 0.508990 -0.180761
N4    N     N_R   0.792200 0.480660 0.491010 -0.160459
C51   C     C_R   0.950321 0.366085 0.483647 -0.218881
C52   C     C_R   0.050030 0.634897 0.512541 -0.225815
C53   C     C_R   0.837940 0.386790 0.476278 -0.082660
C54   C     C_R   0.162153 0.615091 0.520810 -0.070491
C55   C     C_R   0.858459 0.557935 0.509973 0.657008
C56   C     C_R   0.140447 0.441068 0.491355 0.627288
C57   C     C_R   0.976782 0.549098 0.505506 -0.176273
C58   C     C_R   0.022746 0.450493 0.494432 -0.131040
C59   C     C_2   0.371480 0.208622 0.590272 0.983651
O13   O     O_2   0.273347 0.200733 0.601340 -0.514688
O14   O     O_R   0.438361 0.274560 0.617412 -0.772793
H15   H     H_    0.518901 0.270624 0.606500 0.283425
C60   C     C_2   0.617836 0.788155 0.403531 0.893633
O15   O     O_2   0.594954 0.807640 0.361998 -0.602587
O16   O     O_R   0.691670 0.708770 0.411921 -0.738334
H16   H     H_    0.718351 0.671755 0.381003 0.353197
O17   O     O_3   0.187300 0.356060 0.467216 -0.615590
C61   C     C_3   0.212931 0.381833 0.418007 0.099766
H17   H     H_    0.296666 0.352712 0.408630 0.191189
H18   H     H_    0.213127 0.467828 0.410587 0.129181
C62   C     C_3   0.134829 0.326181 0.383787 -0.408621
H19   H     H_    0.136643 0.240133 0.389510 0.275314
H20   H     H_    0.049762 0.353905 0.391096 0.235793
C63   C     C_3   0.168633 0.348622 0.330883 -0.877497
H21   H     H_    0.164560 0.433995 0.323731 0.260733
H22   H     H_    0.111898 0.306186 0.306781 0.276013
H23   H     H_    0.253678 0.321905 0.322168 0.282660
O18   O     O_3   0.807472 0.644604 0.531489 -0.595618
C64   C     C_3   0.841373 0.665754 0.579339 0.048391
H24   H     H_    0.862717 0.750668 0.581810 0.210224
H25   H     H_    0.914121 0.621367 0.589972 0.122932
C65   C     C_3   0.747524 0.643606 0.616481 -0.358816
H26   H     H_    0.669728 0.675467 0.603814 0.239687
H27   H     H_    0.739799 0.557550 0.620465 0.232019
C66   C     C_3   0.770080 0.691796 0.665975 -0.895183
H28   H     H_    0.847005 0.660457 0.679701 0.274394
H29   H     H_    0.700698 0.671943 0.692098 0.281720
H30   H     H_    0.777771 0.778594 0.663478 0.274099
C67   C     C_2   0.228232 0.698910 0.543014 1.050354
O19   O     O_2   0.248519 0.780783 0.521351 -0.603245
O20   O     O_R   0.264043 0.685832 0.589644 -0.825297
H31   H     H_    0.304839 0.750094 0.602055 0.306670
C68   C     C_2   0.771077 0.305411 0.452469 1.020752
O21   O     O_2   0.730402 0.323972 0.414033 -0.666094
O22   O     O_R   0.758492 0.205717 0.472861 -0.781017
H32   H     H_    0.727133 0.152192 0.449624 0.337329
C69   C     C_2   0.989869 0.256124 0.483869 1.046785
O23   O     O_2   0.973306 0.195987 0.450049 -0.640647
O24   O     O_R   0.047709 0.222273 0.523130 -0.725147
H33   H     H_    0.071677 0.146842 0.519224 0.369925
C70   C     C_2   0.012139 0.744144 0.505675 0.984780
O25   O     O_2   0.034819 0.814488 0.534244 -0.618328
O26   O     O_R   0.947862 0.765399 0.466465 -0.740575
H34   H     H_    0.925332 0.841450 0.465737 0.361672
O27   O     O_3   0.355642 0.636211 0.751691 -0.632447
C71   C     C_3   0.320036 0.728205 0.729224 0.110267
H35   H     H_    0.263719 0.767931 0.756080 0.194218
H36   H     H_    0.268779 0.709647 0.697969 0.148409
C72   C     C_3   0.415159 0.805994 0.715858 -0.391193
H37   H     H_    0.463713 0.822293 0.748193 0.296701
H38   H     H_    0.470950 0.772463 0.686988 0.206419
C73   C     C_3   0.371953 0.909165 0.697715 -0.897285
H39   H     H_    0.322530 0.894871 0.665430 0.257670
H40   H     H_    0.442234 0.962745 0.687414 0.273139
H41   H     H_    0.320053 0.947769 0.726599 0.285651
O28   O     O_3   0.672516 0.415821 0.246909 -0.629918
C74   C     C_3   0.700979 0.313281 0.260480 0.081269
H42   H     H_    0.700491 0.262501 0.227516 0.181316
H43   H     H_    0.641711 0.275419 0.287454 0.135971
C75   C     C_3   0.817340 0.315056 0.279404 -0.345068
H44   H     H_    0.877432 0.338904 0.249766 0.238692
H45   H     H_    0.823551 0.373280 0.309406 0.240658
C76   C     C_3   0.847373 0.207497 0.297867 -0.858684
H46   H     H_    0.789494 0.183153 0.328214 0.280307
H47   H     H_    0.931867 0.211137 0.311321 0.270913
H48   H     H_    0.844454 0.148055 0.268199 0.265678
C77   C     C_2   0.559402 0.811321 0.877260 1.050131
O29   O     O_2   0.639498 0.865945 0.886922 -0.583195
O30   O     O_R   0.483099 0.847587 0.845472 -0.798984
H49   H     H_    0.504019 0.919533 0.832229 0.342014
C78   C     C_2   0.302538 0.254410 0.123861 1.063451
O31   O     O_2   0.202690 0.240893 0.125266 -0.628470
O32   O     O_R   0.369815 0.178898 0.142672 -0.776984
H50   H     H_    0.326127 0.116790 0.156706 0.347500
O33   O     O_3   0.545253 0.799960 0.976940 -0.637392
C79   C     C_3   0.439544 0.838270 0.989619 0.066451
H51   H     H_    0.395164 0.785177 0.016087 0.148914
H52   H     H_    0.389998 0.845414 0.956916 0.145970
C80   C     C_3   0.452336 0.946964 0.012940 -0.310408
H53   H     H_    0.500934 0.940964 0.045833 0.237831
H54   H     H_    0.497710 0.000220 0.986971 0.242235
C81   C     C_3   0.340873 0.993838 0.027145 -0.891111
H55   H     H_    0.291315 0.001738 0.994687 0.266858
H56   H     H_    0.353441 0.072953 0.043531 0.289454
H57   H     H_    0.295101 0.943269 0.054081 0.265441
O34   O     O_3   0.261258 0.303480 0.029096 -0.655267
C82   C     C_3   0.177235 0.368120 0.012891 0.092070
H58   H     H_    0.140188 0.327416 0.981636 0.175534
H59   H     H_    0.208017 0.445878 0.999298 0.133247
C83   C     C_3   0.086997 0.383584 0.052783 -0.313787
H60   H     H_    0.052530 0.305833 0.064294 0.268114
H61   H     H_    0.122555 0.423659 0.084567 0.231426
C84   C     C_3   0.994147 0.449644 0.035117 -0.939057
H62   H     H_    0.026175 0.528632 0.024213 0.266299
H63   H     H_    0.930087 0.459178 0.064755 0.280056
H64   H     H_    0.955861 0.410552 0.003753 0.270660

loop_
_geom_bond_atom_site_label_1
_geom_bond_atom_site_label_2
_geom_bond_distance
_ccdc_geom_bond_type
C80   H53   1.112027 S    
O14   H15   1.013452 S    
C30   C36   1.408726 A    
C76   H47   1.109661 S    
C32   C39   1.420665 A    
C56   C58   1.438141 A    
C53   C68   1.472147 S    
C60   O15   1.223257 D    
C49   C50   1.412350 A    
N1    C17   1.426404 S    
C72   H38   1.110165 S    
O16   H16   1.013977 S    
O20   H31   1.012901 S    
C31   C33   1.410308 A    
C55   O18   1.392162 S    
C5    N1    1.365407 A    
C80   H54   1.112062 S    
O32   H50   1.013821 S    
C48   C50   1.377777 A    
O1    C1    1.299287 A    
C38   H8    1.083474 S    
C78   O32   1.398104 S    
C10   C12   1.386694 A    
C51   C69   1.492149 S    
C74   H43   1.117703 S    
C84   H63   1.110487 S    
C25   C38   1.397528 A    
C45   C60   1.485710 S    
C63   H21   1.110778 S    
C29   C35   1.408065 A    
N4    C55   1.373584 A    
Zn1   N3    2.037096 S    
C13   C15   1.404139 A    
C43   C50   1.394785 A    
C41   C46   1.409782 A    
C35   H9    1.079191 S    
C14   C28   1.401369 A    
O4    Zn1   1.985316 S    
C43   C45   1.392759 A    
C24   C78   1.482841 S    
C81   H55   1.111162 S    
C4    C28   1.457131 S    
C62   H19   1.110712 S    
C24   C40   1.404555 A    
C72   H37   1.109462 S    
C62   H20   1.109761 S    
C79   C80   1.528720 S    
C78   O31   1.221954 D    
C48   H11   1.085942 S    
C47   H12   1.085136 S    
O8    Zn1   2.013090 S    
C11   H4    1.083098 S    
C62   C63   1.527684 S    
C12   H3    1.082409 S    
N3    C54   1.381287 A    
C6    N2    1.365165 A    
C82   C83   1.532002 S    
C79   H52   1.115687 S    
C82   H59   1.114402 S    
C76   H48   1.110756 S    
C47   C49   1.372563 A    
O2    C2    1.300480 A    
C73   H41   1.110744 S    
C5    C21   1.412419 A    
C36   C38   1.384411 A    
C65   H26   1.111721 S    
C83   H61   1.111262 S    
C9    H6    1.082813 S    
C65   C66   1.526653 S    
C80   C81   1.526394 S    
C52   C70   1.493564 S    
C44   H14   1.085112 S    
N3    C56   1.376191 A    
O34   C82   1.419534 S    
O26   H34   1.013891 S    
O28   C74   1.418766 S    
C73   H40   1.110527 S    
C72   C73   1.526030 S    
C11   C27   1.398930 A    
C59   O13   1.220386 D    
C46   C59   1.477042 S    
C84   H64   1.110871 S    
C42   C47   1.384602 A    
C14   H2    1.079315 S    
C61   C62   1.529652 S    
O18   C64   1.424508 S    
C35   C37   1.383808 A    
C83   C84   1.526127 S    
C9    C17   1.398972 A    
O5    C3    1.302433 A    
O7    Zn2   2.013085 S    
C10   C18   1.398165 A    
C59   O14   1.394029 S    
C13   C27   1.398736 A    
C77   O29   1.222907 D    
C7    C25   1.393143 A    
C75   C76   1.526434 S    
C29   C33   1.419997 A    
O6    C4    1.302769 A    
C8    C26   1.392315 A    
C54   C67   1.468614 S    
C61   H18   1.117292 S    
C64   H25   1.114164 S    
C41   C48   1.384923 A    
C19   C25   1.410879 A    
O7    C3    1.304429 A    
C81   H57   1.111113 S    
C67   O19   1.223454 D    
O3    Zn2   1.985316 S    
O8    C4    1.304030 A    
C10   H5    1.082985 S    
C39   O33   1.385877 S    
C74   C75   1.532210 S    
O4    C2    1.285945 A    
C79   H51   1.114164 S    
C51   C53   1.423038 A    
C75   H45   1.110046 S    
C55   C57   1.445794 A    
C68   O21   1.220734 D    
C20   C26   1.411401 A    
C66   H30   1.110728 S    
O1    Zn1   1.989636 S    
C52   C57   1.412541 A    
Zn2   N4    2.037096 S    
O22   H32   1.012127 S    
C1    C42   1.420904 S    
O33   C79   1.412879 S    
C36   H10   1.079458 S    
C12   C28   1.400110 A    
C68   O22   1.398241 S    
C69   O23   1.222718 D    
N2    C18   1.424401 S    
C29   C32   1.415855 A    
C5    O9    1.348278 S    
C51   C58   1.413243 A    
C30   C31   1.415983 A    
C2    C41   1.421602 S    
C20   C33   1.412045 A    
O6    Zn2   1.997581 S    
C64   H24   1.109275 S    
C21   C23   1.418716 A    
N2    C8    1.361331 A    
C73   H39   1.110447 S    
O3    C1    1.287114 A    
C71   C72   1.540899 S    
C7    O12   1.350537 S    
C65   H27   1.104984 S    
C60   O16   1.396808 S    
C16   O28   1.388465 S    
C8    O11   1.350634 S    
C71   H36   1.109381 S    
N4    C53   1.379610 A    
C15   O27   1.396409 S    
O27   C71   1.419024 S    
C30   C34   1.418547 A    
O17   C61   1.420746 S    
C23   C77   1.483665 S    
C66   H29   1.110645 S    
C77   O30   1.397938 S    
C19   C34   1.411500 A    
C14   C16   1.399340 A    
C15   C17   1.404355 A    
O30   H49   1.013820 S    
C74   H42   1.111090 S    
C6    C22   1.414245 A    
C31   C40   1.422786 A    
C16   C18   1.402056 A    
C37   H7    1.083459 S    
C84   H62   1.110914 S    
C70   O25   1.223001 D    
C63   H22   1.109561 S    
C42   C45   1.415383 A    
C32   C34   1.410778 A    
C61   H17   1.110049 S    
C19   C21   1.414957 A    
C40   O34   1.389789 S    
C3    C27   1.458737 S    
C64   C65   1.521830 S    
C20   C22   1.416967 A    
C9    C11   1.387629 A    
O24   H33   1.013910 S    
O2    Zn2   1.989636 S    
C81   H56   1.110776 S    
C67   O20   1.392671 S    
C56   O17   1.384766 S    
C43   H13   1.085209 S    
C71   H35   1.110911 S    
C22   C24   1.420154 A    
C82   H58   1.110895 S    
C13   H1    1.072501 S    
O5    Zn1   1.997575 S    
C75   H44   1.111579 S    
C44   C49   1.393249 A    
C6    O10   1.348548 S    
C26   C37   1.397411 A    
C76   H46   1.111090 S    
C70   O26   1.398739 S    
C52   C54   1.422621 A    
C44   C46   1.385635 A    
C69   O24   1.398614 S    
C57   C58   1.411306 A    
C66   H28   1.110837 S    
C23   C39   1.406909 A    
C83   H60   1.111188 S    
N1    C7    1.362607 A    
C63   H23   1.111121 S    
