data_mof_unit_62045.cif
_audit_creation_date              2012-12-10T16:54:37-0500
_audit_creation_method            fapswitch 2.2
_symmetry_space_group_name_H-M    P1
_symmetry_Int_Tables_number       1
_space_group_crystal_system       triclinic
_cell_length_a                    23.677823
_cell_length_b                    30.980885
_cell_length_c                    19.184795
_cell_angle_alpha                 89.924676
_cell_angle_beta                  127.277307
_cell_angle_gamma                 90.075764
_cell_volume                      11198.2193615

loop_
_atom_site_label
_atom_site_type_symbol
_atom_type_description
_atom_site_fract_x
_atom_site_fract_y
_atom_site_fract_z
_atom_type_partial_charge
C1    C     C_R   0.694720 0.808889 0.880321 0.899194
C2    C     C_R   0.307797 0.190779 0.119115 0.921369
C3    C     C_R   0.305293 0.808885 0.119690 0.906028
C4    C     C_R   0.692203 0.190776 0.880875 0.921505
C5    C     C_R   0.194714 0.308896 0.880324 0.899327
C6    C     C_R   0.807787 0.690779 0.119097 0.921437
C7    C     C_R   0.805288 0.308886 0.119690 0.899930
C8    C     C_R   0.195623 0.690633 0.881394 0.903459
C9    C     C_R   0.659740 0.837066 0.733729 -0.062437
C10   C     C_R   0.330258 0.157503 0.253198 -0.080409
C11   C     C_R   0.340161 0.836998 0.266222 -0.062914
C12   C     C_R   0.670029 0.157486 0.747027 -0.080383
C13   C     C_R   0.159608 0.337056 0.733652 -0.064743
C14   C     C_R   0.829664 0.657282 0.252652 -0.081357
C15   C     C_R   0.840121 0.337013 0.266199 -0.062674
C16   C     C_R   0.206115 0.618857 0.824723 -0.063972
C17   C     C_R   0.661631 0.841030 0.809977 -0.210791
C18   C     C_R   0.339682 0.157551 0.186857 -0.208851
C19   C     C_R   0.338349 0.841023 0.190019 -0.213312
C20   C     C_R   0.660355 0.157547 0.813156 -0.208733
C21   C     C_R   0.161689 0.341071 0.810031 -0.211879
C22   C     C_R   0.839603 0.657537 0.186773 -0.207100
C23   C     C_R   0.838336 0.341027 0.190014 -0.211480
C24   C     C_R   0.165787 0.656161 0.815819 -0.212277
C25   C     C_R   0.625312 0.874978 0.816418 0.475132
C26   C     C_R   0.385334 0.127594 0.189266 0.471975
C27   C     C_R   0.374649 0.875067 0.183574 0.474468
C28   C     C_R   0.614558 0.127565 0.810595 0.471924
C29   C     C_R   0.125705 0.375157 0.816727 0.474914
C30   C     C_R   0.885613 0.627756 0.189535 0.472059
C31   C     C_R   0.874660 0.375061 0.183585 0.475317
C32   C     C_R   0.092363 0.658683 0.746912 0.478898
C33   C     C_R   0.591168 0.906351 0.751924 -0.272444
C34   C     C_R   0.418903 0.096513 0.254976 -0.270811
C35   C     C_R   0.408714 0.906448 0.248009 -0.271993
C36   C     C_R   0.581063 0.096478 0.744947 -0.270566
C37   C     C_R   0.091629 0.406560 0.752294 -0.282804
C38   C     C_R   0.919171 0.596680 0.255250 -0.270583
C39   C     C_R   0.908731 0.406441 0.248025 -0.273809
C40   C     C_R   0.058971 0.626120 0.684883 -0.282092
C41   C     C_R   0.588893 0.903562 0.678069 -0.154955
C42   C     C_R   0.412468 0.097128 0.322734 -0.160056
C43   C     C_R   0.410913 0.903606 0.321826 -0.154764
C44   C     C_R   0.587716 0.097088 0.677357 -0.160082
C45   C     C_R   0.089008 0.403648 0.678215 -0.151552
C46   C     C_R   0.912331 0.597127 0.322679 -0.157331
C47   C     C_R   0.910915 0.403604 0.321832 -0.155259
C48   C     C_R   0.096310 0.589702 0.692110 -0.143841
C49   C     C_R   0.060115 0.558673 0.620611 0.811393
C50   C     C_R   0.941675 0.439612 0.382960 0.815352
C51   C     C_R   0.942649 0.561249 0.384652 0.831371
C52   C     C_R   0.058313 0.439646 0.617099 0.794882
C53   C     C_R   0.557407 0.061225 0.615399 0.813749
C54   C     C_R   0.441673 0.939613 0.382956 0.814649
C55   C     C_R   0.442659 0.061235 0.384633 0.814206
C56   C     C_R   0.558262 0.939601 0.617010 0.815227
C57   C     C_R   0.641135 0.751051 0.998340 0.871546
C58   C     C_R   0.358082 0.249799 0.999989 0.850288
C59   C     C_R   0.358070 0.750258 0.999937 0.849341
C60   C     C_R   0.641934 0.249778 0.000066 0.850723
C61   C     C_R   0.141135 0.251099 0.998344 0.871760
C62   C     C_R   0.858077 0.749806 0.999978 0.850347
C63   C     C_R   0.858858 0.251128 0.001614 0.871972
C64   C     C_R   0.141929 0.749778 0.000054 0.850259
C65   C     C_1   0.579911 0.752059 0.997691 -0.168465
C66   C     C_1   0.418888 0.249349 0.999850 -0.158669
C67   C     C_1   0.418692 0.750903 0.999413 -0.163166
C68   C     C_1   0.581201 0.249309 0.000356 -0.157941
C69   C     C_1   0.080017 0.252387 0.997914 -0.171478
C70   C     C_1   0.918870 0.749374 0.999815 -0.156867
C71   C     C_1   0.919906 0.252434 0.001892 -0.170736
C72   C     C_1   0.081189 0.749330 0.000331 -0.160199
C73   C     C_1   0.528946 0.752116 0.997939 -0.010014
C74   C     C_1   0.470041 0.249122 0.999998 -0.005736
C75   C     C_1   0.469434 0.751553 0.998728 -0.005859
C76   C     C_1   0.530077 0.249102 0.000270 -0.005471
C77   C     C_1   0.029442 0.252964 0.998947 -0.010911
C78   C     C_1   0.970019 0.749161 0.999954 -0.004215
C79   C     C_1   0.970453 0.252987 0.000798 -0.010769
C80   C     C_1   0.030057 0.749141 0.000229 -0.002627
C81   C     C_R   0.695396 0.803923 0.721121 0.515741
C82   C     C_R   0.277132 0.182352 0.247308 0.525585
C83   C     C_R   0.304557 0.803744 0.278861 0.515656
C84   C     C_R   0.723333 0.182330 0.753133 0.525340
C85   C     C_R   0.195082 0.303853 0.720881 0.514929
C86   C     C_R   0.776110 0.681905 0.246228 0.525423
C87   C     C_R   0.804467 0.303778 0.278802 0.515086
C88   C     C_R   0.281387 0.613475 0.891399 0.515024
C89   C     C_R   0.691542 0.804357 0.644647 -0.218942
C90   C     C_R   0.278732 0.187338 0.321022 -0.197893
C91   C     C_R   0.308315 0.804085 0.355258 -0.218492
C92   C     C_R   0.722008 0.187319 0.679600 -0.197627
C93   C     C_R   0.190978 0.304217 0.644231 -0.220561
C94   C     C_R   0.777147 0.686724 0.319561 -0.196581
C95   C     C_R   0.808197 0.304138 0.355184 -0.220015
C96   C     C_R   0.315554 0.576341 0.890468 -0.221471
C97   C     C_R   0.647556 0.832714 0.577021 -0.219240
C98   C     C_R   0.328567 0.165171 0.397995 -0.231823
C99   C     C_R   0.352127 0.832504 0.422791 -0.218852
C100  C     C_R   0.672265 0.165157 0.602613 -0.231826
C101  C     C_R   0.146955 0.332582 0.576642 -0.222017
C102  C     C_R   0.826856 0.664599 0.396644 -0.227834
C103  C     C_R   0.852038 0.332541 0.422737 -0.220199
C104  C     C_R   0.277171 0.542391 0.834693 -0.217418
C105  C     C_R   0.610664 0.863612 0.586364 -0.147529
C106  C     C_R   0.374069 0.135770 0.400174 -0.144912
C107  C     C_R   0.388967 0.863530 0.413433 -0.148516
C108  C     C_R   0.626586 0.135751 0.600258 -0.145068
C109  C     C_R   0.110284 0.363561 0.586184 -0.147165
C110  C     C_R   0.872788 0.635396 0.399272 -0.140026
C111  C     C_R   0.888927 0.363542 0.413411 -0.147858
C112  C     C_R   0.204521 0.545881 0.773566 -0.140735
C113  C     C_R   0.619787 0.868269 0.665916 0.035471
C114  C     C_R   0.372896 0.129959 0.326259 0.037319
C115  C     C_R   0.379981 0.868241 0.333958 0.035748
C116  C     C_R   0.627485 0.129929 0.673994 0.037433
C117  C     C_R   0.119650 0.368275 0.665877 0.036647
C118  C     C_R   0.872220 0.629756 0.325759 0.038556
C119  C     C_R   0.879957 0.368248 0.333946 0.035402
C120  C     C_R   0.168867 0.584761 0.763066 0.036638
Cu1   Cu    Cu3+1 0.719090 0.719080 0.938180 0.967840
Cu2   Cu    Cu3+1 0.280910 0.280920 0.061820 1.004933
Cu3   Cu    Cu3+1 0.280910 0.719080 0.061820 0.927990
Cu4   Cu    Cu3+1 0.719090 0.280920 0.938180 1.007922
Cu5   Cu    Cu3+1 0.219090 0.219080 0.938180 0.967916
Cu6   Cu    Cu3+1 0.780910 0.780920 0.061820 1.012882
Cu7   Cu    Cu3+1 0.780910 0.219080 0.061820 0.967635
Cu8   Cu    Cu3+1 0.219090 0.780920 0.938180 1.024317
Cu9   Cu    Cu3+1 0.944200 0.500000 0.499990 0.941475
Cu10  Cu    Cu3+1 0.055800 0.500000 0.500010 0.942090
Cu11  Cu    Cu3+1 0.444200 0.000000 0.499990 0.945452
Cu12  Cu    Cu3+1 0.555800 0.000000 0.500010 0.945605
H1    H     H_    0.721435 0.781544 0.636077 0.141557
H2    H     H_    0.239360 0.207179 0.317277 0.152156
H3    H     H_    0.278465 0.781158 0.363828 0.142732
H4    H     H_    0.761522 0.207157 0.683507 0.152220
H5    H     H_    0.220724 0.281356 0.635506 0.140961
H6    H     H_    0.737448 0.706400 0.315418 0.152270
H7    H     H_    0.778306 0.281237 0.363735 0.140859
H8    H     H_    0.372626 0.572921 0.935939 0.143325
H9    H     H_    0.642267 0.830870 0.516947 0.157096
H10   H     H_    0.329679 0.169206 0.454854 0.156167
H11   H     H_    0.357330 0.830606 0.482811 0.158007
H12   H     H_    0.671363 0.169199 0.545892 0.156164
H13   H     H_    0.141485 0.330693 0.516454 0.156846
H14   H     H_    0.827552 0.668503 0.453225 0.158565
H15   H     H_    0.857223 0.330650 0.482745 0.156805
H16   H     H_    0.303965 0.513097 0.838850 0.162976
H17   H     H_    0.575181 0.884004 0.530267 0.151122
H18   H     H_    0.410648 0.118186 0.460430 0.150239
H19   H     H_    0.424321 0.883960 0.469477 0.151359
H20   H     H_    0.590082 0.118178 0.539997 0.150371
H21   H     H_    0.074791 0.383975 0.530131 0.153362
H22   H     H_    0.909213 0.617834 0.459574 0.149059
H23   H     H_    0.924300 0.383961 0.469467 0.152636
H24   H     H_    0.176880 0.517625 0.734118 0.159975
H25   H     H_    0.566925 0.933472 0.760369 0.171328
H26   H     H_    0.449693 0.071582 0.252436 0.175216
H27   H     H_    0.432991 0.933611 0.239564 0.171368
H28   H     H_    0.550130 0.071549 0.747389 0.175292
H29   H     H_    0.067652 0.433777 0.760914 0.169633
H30   H     H_    0.950278 0.571884 0.252973 0.173950
H31   H     H_    0.933020 0.433600 0.239589 0.170688
H32   H     H_    0.003352 0.629652 0.629959 0.157447
O1    O     O_R   0.678810 0.768970 0.857610 -0.575025
O2    O     O_R   0.321190 0.231030 0.142390 -0.588842
O3    O     O_R   0.321190 0.768970 0.142390 -0.575786
O4    O     O_R   0.678810 0.231030 0.857610 -0.589160
O5    O     O_R   0.178810 0.268970 0.857610 -0.574182
O6    O     O_R   0.821190 0.731030 0.142390 -0.587625
O7    O     O_R   0.821190 0.268970 0.142390 -0.575040
O8    O     O_R   0.178810 0.731030 0.857610 -0.547155
O9    O     O_R   0.730990 0.821160 0.961990 -0.548112
O10   O     O_R   0.269010 0.178840 0.038010 -0.556766
O11   O     O_R   0.269010 0.821160 0.038010 -0.545132
O12   O     O_R   0.730990 0.178840 0.961990 -0.557029
O13   O     O_R   0.230990 0.321160 0.961990 -0.550137
O14   O     O_R   0.769010 0.678840 0.038010 -0.557942
O15   O     O_R   0.769010 0.321160 0.038010 -0.548895
O16   O     O_R   0.230990 0.678840 0.961990 -0.573077
O17   O     O_R   0.642490 0.723880 0.947790 -0.602488
O18   O     O_R   0.357510 0.276120 0.052210 -0.597407
O19   O     O_R   0.357510 0.723880 0.052210 -0.584313
O20   O     O_R   0.642490 0.276120 0.947790 -0.596856
O21   O     O_R   0.142490 0.223880 0.947790 -0.603085
O22   O     O_R   0.857510 0.776120 0.052210 -0.595502
O23   O     O_R   0.857510 0.223880 0.052210 -0.603395
O24   O     O_R   0.142490 0.776120 0.947790 -0.578397
O25   O     O_R   0.694660 0.776070 0.052170 -0.548993
O26   O     O_R   0.305340 0.223930 0.947830 -0.569285
O27   O     O_R   0.305340 0.776070 0.947830 -0.581111
O28   O     O_R   0.694660 0.223930 0.052170 -0.569512
O29   O     O_R   0.194660 0.276070 0.052170 -0.549061
O30   O     O_R   0.805340 0.723930 0.947830 -0.570092
O31   O     O_R   0.805340 0.276070 0.947830 -0.549019
O32   O     O_R   0.194660 0.723930 0.052170 -0.585743
O33   O     O_R   0.997960 0.545070 0.590160 -0.596369
O34   O     O_R   0.002040 0.454930 0.409840 -0.596720
O35   O     O_R   0.002040 0.545070 0.409840 -0.586489
O36   O     O_R   0.997960 0.454930 0.590160 -0.594950
O37   O     O_R   0.497960 0.045070 0.590160 -0.598100
O38   O     O_R   0.502040 0.954930 0.409840 -0.597064
O39   O     O_R   0.502040 0.045070 0.409840 -0.598078
O40   O     O_R   0.497960 0.954930 0.590160 -0.597069
O41   O     O_R   0.092180 0.545060 0.590150 -0.584487
O42   O     O_R   0.907820 0.454940 0.409850 -0.579016
O43   O     O_R   0.907820 0.545060 0.409850 -0.584859
O44   O     O_R   0.092180 0.454940 0.590150 -0.592107
O45   O     O_R   0.592180 0.045060 0.590150 -0.580911
O46   O     O_R   0.407820 0.954940 0.409850 -0.578260
O47   O     O_R   0.407820 0.045060 0.409850 -0.580849
O48   O     O_R   0.592180 0.954940 0.590150 -0.578135
O49   O     O_3   0.625649 0.878712 0.888553 -0.556392
C121  C     C_3   0.562387 0.860518 0.867457 -0.302946
H33   H     H_    0.557060 0.825972 0.848339 0.133265
H34   H     H_    0.515118 0.879125 0.814617 0.159276
H35   H     H_    0.563955 0.861827 0.926390 0.195280
O50   O     O_3   0.393269 0.126764 0.123539 -0.563304
C122  C     C_3   0.456616 0.148522 0.153560 -0.322873
H36   H     H_    0.503838 0.131392 0.210060 0.161381
H37   H     H_    0.455741 0.182597 0.171327 0.141666
H38   H     H_    0.461780 0.149252 0.099827 0.195354
O51   O     O_3   0.374405 0.878882 0.111505 -0.556246
C123  C     C_3   0.437569 0.860607 0.132615 -0.300254
H39   H     H_    0.442539 0.826002 0.151349 0.134377
H40   H     H_    0.484968 0.879038 0.185732 0.158128
H41   H     H_    0.436160 0.862095 0.073802 0.195396
O52   O     O_3   0.606398 0.126716 0.876131 -0.563461
C124  C     C_3   0.543070 0.148496 0.845859 -0.323342
H42   H     H_    0.495859 0.131403 0.789259 0.161455
H43   H     H_    0.544129 0.182582 0.828139 0.141812
H44   H     H_    0.537715 0.149197 0.899429 0.195317
O53   O     O_3   0.126279 0.378982 0.889024 -0.559454
C125  C     C_3   0.062999 0.360944 0.868158 -0.305113
H45   H     H_    0.057444 0.326389 0.849003 0.134601
H46   H     H_    0.015776 0.379621 0.815424 0.159148
H47   H     H_    0.064745 0.362325 0.927215 0.194394
O54   O     O_3   0.893884 0.627070 0.124089 -0.565037
C126  C     C_3   0.957194 0.648980 0.154458 -0.323141
H48   H     H_    0.004412 0.631880 0.211030 0.163191
H49   H     H_    0.956087 0.683012 0.172254 0.144016
H50   H     H_    0.962580 0.649853 0.100915 0.193372
O55   O     O_3   0.874425 0.378862 0.111521 -0.557056
C127  C     C_3   0.937696 0.360706 0.132739 -0.304909
H51   H     H_    0.942924 0.326139 0.151812 0.133711
H52   H     H_    0.984975 0.379290 0.185655 0.158595
H53   H     H_    0.936232 0.362096 0.073880 0.195058
O56   O     O_3   0.053081 0.694236 0.737918 -0.558485
C128  C     C_3   0.017247 0.684043 0.773578 -0.307725
H54   H     H_    0.055049 0.674639 0.843829 0.138917
H55   H     H_    0.977296 0.658085 0.735384 0.155211
H56   H     H_    0.988468 0.713184 0.770131 0.194029
O57   O     O_3   0.737158 0.772898 0.784725 -0.582098
C129  C     C_3   0.721891 0.731115 0.746716 -0.264167
H57   H     H_    0.757827 0.723547 0.729386 0.144370
H58   H     H_    0.665315 0.727026 0.688577 0.127043
H59   H     H_    0.731416 0.706555 0.794578 0.207281
O58   O     O_3   0.218360 0.196990 0.167540 -0.596836
C130  C     C_3   0.168752 0.162716 0.128149 -0.341329
H60   H     H_    0.191247 0.133544 0.119288 0.165958
H61   H     H_    0.122217 0.172543 0.062073 0.189604
H62   H     H_    0.149238 0.154499 0.166719 0.167516
O59   O     O_3   0.262929 0.772679 0.215354 -0.579886
C131  C     C_3   0.278580 0.730877 0.253478 -0.267958
H63   H     H_    0.242867 0.723068 0.271084 0.145681
H64   H     H_    0.335243 0.726937 0.311470 0.126713
H65   H     H_    0.269055 0.706400 0.205572 0.203700
O60   O     O_3   0.782025 0.196938 0.832984 -0.597070
C132  C     C_3   0.831524 0.162649 0.872573 -0.341028
H66   H     H_    0.808827 0.133448 0.881205 0.165943
H67   H     H_    0.877929 0.172424 0.938771 0.189662
H68   H     H_    0.851276 0.154494 0.834283 0.167580
O61   O     O_3   0.236964 0.272864 0.784520 -0.582796
C133  C     C_3   0.221674 0.231055 0.746612 -0.262361
H69   H     H_    0.257482 0.223475 0.729092 0.144234
H70   H     H_    0.165053 0.226927 0.688621 0.127813
H71   H     H_    0.231366 0.206526 0.794608 0.207355
O62   O     O_3   0.717504 0.696473 0.166257 -0.596926
C134  C     C_3   0.668084 0.662112 0.126571 -0.343410
H72   H     H_    0.690967 0.632953 0.118288 0.164841
H73   H     H_    0.621839 0.671839 0.060211 0.192534
H74   H     H_    0.648059 0.653909 0.164580 0.165173
O63   O     O_3   0.762814 0.272729 0.215260 -0.582723
C135  C     C_3   0.778217 0.230932 0.253360 -0.262847
H75   H     H_    0.742336 0.223225 0.270757 0.144377
H76   H     H_    0.834816 0.226925 0.311478 0.127768
H77   H     H_    0.768719 0.206424 0.205520 0.207325
O64   O     O_3   0.322303 0.644922 0.954277 -0.580130
C136  C     C_3   0.368153 0.626109 0.039030 -0.262653
H78   H     H_    0.345530 0.596647 0.047214 0.129918
H79   H     H_    0.377592 0.649071 0.089106 0.202434
H80   H     H_    0.420498 0.618802 0.054353 0.143986

loop_
_geom_bond_atom_site_label_1
_geom_bond_atom_site_label_2
_ccdc_geom_bond_type
C60   O20   A    
Cu2   O13   S    
C11   C83   A    
C88   C96   A    
C106  H18   S    
C37   C45   A    
C7    O7    A    
C82   O58   S    
C133  H71   S    
C69   C77   T    
C104  H16   S    
C59   O27   A    
O51   C123  S    
Cu12  O48   S    
C130  H62   S    
C123  H39   S    
C28   O52   S    
C91   H3    S    
C71   C79   T    
C50   O34   A    
C109  C117  A    
O59   C131  S    
C48   C120  A    
C49   O33   A    
O49   C121  S    
C84   C92   A    
C11   C19   A    
C128  H54   S    
C129  H57   S    
C74   C76   S    
C25   O49   S    
C32   O56   S    
Cu2   O2    S    
C105  C113  A    
C135  H75   S    
Cu4   O20   S    
C124  H44   S    
C16   C120  A    
C86   O62   S    
O57   C129  S    
C90   H2    S    
C121  H34   S    
C84   O60   S    
C26   O50   S    
C31   O55   S    
C61   O29   A    
C101  C109  A    
O55   C127  S    
C66   C74   T    
C53   O45   A    
C64   O32   A    
C136  H80   S    
C65   C73   T    
C127  H51   S    
C62   C70   S    
C103  C111  A    
C133  H69   S    
C98   C106  A    
C134  H74   S    
C127  H52   S    
Cu4   O15   S    
C129  H58   S    
C86   C94   A    
C59   C67   S    
Cu4   O4    S    
Cu2   O18   S    
C85   C93   A    
C44   C53   S    
C26   C34   A    
C126  H48   S    
C33   H25   S    
C34   C42   A    
Cu8   O11   S    
C5    O13   A    
C87   C95   A    
C58   O26   A    
C29   C37   A    
Cu3   O19   S    
C134  H72   S    
C15   C119  A    
C3    C19   S    
Cu5   O26   S    
C52   O36   A    
C27   O51   S    
Cu5   O5    S    
O53   C125  S    
C2    O2    A    
C133  H70   S    
C10   C114  A    
C36   C44   A    
C12   C84   A    
C62   O22   A    
Cu3   O3    S    
C6    C22   S    
C47   C119  A    
C60   C68   S    
C55   O39   A    
C16   C24   A    
C52   O44   A    
C132  H66   S    
C98   H10   S    
C73   C75   S    
C110  C118  A    
C92   H4    S    
C125  H46   S    
C30   O54   S    
C43   C115  A    
Cu5   O10   S    
C57   O17   A    
O52   C124  S    
C95   C103  A    
C136  H78   S    
C47   C50   S    
C35   H27   S    
C105  H17   S    
C77   C79   S    
C103  H15   S    
C16   C88   A    
C100  C108  A    
C89   H1    S    
C49   O41   A    
Cu1   O17   S    
C3    O3    A    
Cu6   O22   S    
C28   C36   A    
Cu10  O44   S    
C33   C41   A    
C14   C86   A    
C100  H12   S    
C93   C101  A    
C122  H36   S    
C112  C120  A    
C38   H30   S    
C17   C25   A    
C121  H33   S    
C131  H63   S    
C109  H21   S    
C20   C28   A    
C129  H59   S    
C27   C35   A    
C54   O38   A    
C39   C47   A    
C21   C29   A    
C46   C51   S    
C10   C82   A    
C53   O37   A    
C4    O4    A    
Cu5   O21   S    
C89   C97   A    
C104  C112  A    
C125  H47   S    
C23   C31   A    
Cu6   O25   S    
Cu12  O38   S    
C42   C114  A    
C24   C32   A    
C41   C56   S    
C57   O25   A    
C124  H42   S    
C110  H22   S    
C11   C115  A    
C122  H37   S    
C8    O16   A    
C43   C54   S    
Cu7   O23   S    
C124  H43   S    
C1    O1    A    
C1    O9    A    
C101  H13   S    
C18   C26   A    
C12   C20   A    
Cu11  O46   S    
C61   O21   A    
O61   C133  S    
C4    O12   A    
C78   C80   S    
C13   C21   A    
C126  H49   S    
C82   C90   A    
C9    C17   A    
C59   O19   A    
Cu11  O40   S    
C97   H9    S    
C64   O24   A    
Cu6   O9    S    
C51   O35   A    
Cu4   Cu7   S    
C56   O40   A    
C50   O42   A    
C111  C119  A    
C3    O11   A    
C48   C49   S    
C106  C114  A    
Cu8   O8    S    
C128  H55   S    
C63   O23   A    
C135  H76   S    
C132  H67   S    
C132  H68   S    
Cu11  O47   S    
C94   H6    S    
C63   O31   A    
C60   O28   A    
C102  C110  A    
C46   C118  A    
C67   C75   T    
C125  H45   S    
C62   O30   A    
C37   H29   S    
C39   H31   S    
C130  H60   S    
C123  H41   S    
C34   H26   S    
Cu1   O30   S    
C35   C43   A    
O56   C128  S    
C92   C100  A    
C58   C66   S    
Cu9   Cu10  S    
C6    O6    A    
C70   C78   T    
C99   H11   S    
Cu7   O12   S    
C40   C48   A    
C96   C104  A    
O54   C126  S    
Cu1   O1    S    
C128  H56   S    
C22   C30   A    
C107  H19   S    
Cu8   O24   S    
C1    C17   S    
C97   C105  A    
C135  H77   S    
Cu12  O45   S    
C14   C118  A    
O50   C122  S    
C57   C65   S    
C2    C18   S    
C130  H61   S    
C121  H35   S    
C123  H40   S    
C96   H8    S    
C13   C117  A    
C8    O8    A    
C64   C72   S    
C56   O48   A    
Cu1   O14   S    
Cu3   O16   S    
Cu12  O39   S    
C68   C76   T    
C99   C107  A    
C95   H7    S    
Cu7   O28   S    
C45   C52   S    
C127  H53   S    
C58   O18   A    
C7    O15   A    
Cu8   O27   S    
C61   C69   S    
O64   C136  S    
C108  C116  A    
Cu2   Cu5   S    
C88   O64   S    
O58   C130  S    
C41   C113  A    
C81   C89   A    
Cu1   Cu6   S    
C72   C80   T    
Cu10  O41   S    
C2    O10   A    
C122  H38   S    
C29   O53   S    
C40   H32   S    
C14   C22   A    
Cu3   Cu8   S    
C108  H20   S    
C7    C23   S    
C111  H23   S    
C10   C18   A    
C42   C55   S    
Cu9   O43   S    
C83   C91   A    
Cu4   O31   S    
C15   C23   A    
C8    C24   S    
C85   O61   S    
C107  C115  A    
C126  H50   S    
C51   O43   A    
C102  H14   S    
C32   C40   A    
Cu9   O42   S    
Cu11  Cu12  S    
Cu3   O32   S    
C87   O63   S    
C45   C117  A    
C38   C46   A    
Cu9   O36   S    
C93   H5    S    
C83   O59   S    
C36   H28   S    
C55   O47   A    
C4    C20   S    
C134  H73   S    
Cu11  O37   S    
C54   O46   A    
C5    C21   S    
O60   C132  S    
C44   C116  A    
C131  H65   S    
C131  H64   S    
C25   C33   A    
C112  H24   S    
C15   C87   A    
C13   C85   A    
O63   C135  S    
C31   C39   A    
C9    C113  A    
C5    O5    A    
O62   C134  S    
C136  H79   S    
Cu6   O6    S    
Cu2   O29   S    
C30   C38   A    
C91   C99   A    
Cu10  O34   S    
Cu7   O7    S    
C63   C71   S    
C90   C98   A    
Cu9   O33   S    
C81   O57   S    
Cu10  O35   S    
C94   C102  A    
C9    C81   A    
C19   C27   A    
C12   C116  A    
C6    O14   A    
