data_mof_unit_56183.cif
_audit_creation_date              2012-12-11T15:06:43-0500
_audit_creation_method            fapswitch 2.2
_symmetry_space_group_name_H-M    P1
_symmetry_Int_Tables_number       1
_space_group_crystal_system       triclinic
_cell_length_a                    7.239125
_cell_length_b                    14.784334
_cell_length_c                    22.568696
_cell_angle_alpha                 89.999416
_cell_angle_beta                  90.017993
_cell_angle_gamma                 91.511306
_cell_volume                      2414.58882549

loop_
_atom_site_label
_atom_site_type_symbol
_atom_type_description
_atom_site_fract_x
_atom_site_fract_y
_atom_site_fract_z
_atom_type_partial_charge
O1    O     O_R   0.390810 0.844810 0.447340 -0.533143
O2    O     O_R   0.109190 0.155190 0.947340 -0.533161
O3    O     O_R   0.890810 0.655190 0.552660 -0.532582
O4    O     O_R   0.609190 0.344810 0.052660 -0.532603
O5    O     O_R   0.720550 0.655820 0.440420 -0.533029
O6    O     O_R   0.779450 0.344180 0.940420 -0.533060
O7    O     O_R   0.220550 0.844180 0.559580 -0.539229
O8    O     O_R   0.279450 0.155820 0.059580 -0.539188
C1    C     C_R   0.550148 0.626648 0.426231 0.681487
C2    C     C_R   0.949813 0.373344 0.926224 0.681530
C3    C     C_R   0.054221 0.873366 0.573923 0.680990
C4    C     C_R   0.445818 0.126638 0.073921 0.681029
O9    O     O_R   0.720530 0.844130 0.440420 -0.535111
O10   O     O_R   0.779470 0.155870 0.940420 -0.535143
O11   O     O_R   0.220530 0.655870 0.559580 -0.534624
O12   O     O_R   0.279470 0.344130 0.059580 -0.534624
O13   O     O_R   0.890830 0.844810 0.552660 -0.530533
O14   O     O_R   0.609170 0.155190 0.052660 -0.530520
O15   O     O_R   0.390830 0.655190 0.447340 -0.536592
O16   O     O_R   0.109170 0.344810 0.947340 -0.536552
C5    C     C_R   0.554197 0.873302 0.426032 0.690228
C6    C     C_R   0.945765 0.126699 0.926024 0.690191
C7    C     C_R   0.050146 0.626646 0.573744 0.693122
C8    C     C_R   0.449893 0.373360 0.073739 0.693083
O17   O     O_3   0.557310 0.749980 0.536820 -0.373393
O18   O     O_3   0.942690 0.250020 0.036820 -0.373372
O19   O     O_3   0.057310 0.750020 0.463180 -0.374418
O20   O     O_3   0.442690 0.249980 0.963180 -0.374451
V1    V     V_3+5 0.832160 0.749980 0.493170 1.455169
V2    V     V_3+5 0.667840 0.250020 0.993170 1.455138
V3    V     V_3+5 0.332160 0.750020 0.506830 1.444357
V4    V     V_3+5 0.167840 0.249980 0.006830 1.444308
C9    C     C_R   0.046585 0.605301 0.863964 -0.083924
C10   C     C_R   0.451536 0.394853 0.363958 -0.083904
C11   C     C_R   0.340063 0.900676 0.143954 -0.089427
C12   C     C_R   0.161399 0.099079 0.644109 -0.089532
H1    H     H_    0.019439 0.548519 0.950951 0.132436
H2    H     H_    0.478495 0.451641 0.450952 0.132338
H3    H     H_    0.311781 0.957669 0.057323 0.132375
H4    H     H_    0.189727 0.042085 0.557489 0.132326
H5    H     H_    0.113646 0.728431 0.781044 0.140622
H6    H     H_    0.383916 0.271800 0.281019 0.140611
H7    H     H_    0.312295 0.779537 0.230022 0.137224
H8    H     H_    0.189729 0.220108 0.730232 0.137214
H9    H     H_    0.081268 0.672033 0.881209 0.162903
H10   H     H_    0.415940 0.328216 0.381194 0.162799
H11   H     H_    0.275456 0.836946 0.130526 0.158065
H12   H     H_    0.226693 0.162677 0.630757 0.157963
C13   C     C_R   0.967083 0.448123 0.883257 -0.049830
C14   C     C_R   0.532699 0.551860 0.383273 -0.049819
C15   C     C_R   0.444089 0.052304 0.117591 -0.052506
C16   C     C_R   0.056121 0.947694 0.617604 -0.052555
C17   C     C_R   0.987034 0.465370 0.592713 -0.181002
C18   C     C_R   0.514023 0.534552 0.092722 -0.180889
C19   C     C_R   0.636904 0.031050 0.401442 -0.174304
C20   C     C_R   0.862123 0.969093 0.901328 -0.174087
C21   C     C_R   0.947302 0.392413 0.629855 0.325695
C22   C     C_R   0.554171 0.607453 0.129877 0.325512
C23   C     C_R   0.663566 0.102306 0.361896 0.323581
C24   C     C_R   0.835023 0.897928 0.861735 0.323421
C25   C     C_R   0.952261 0.403097 0.691243 -0.211999
C26   C     C_R   0.548870 0.596790 0.191262 -0.212053
C27   C     C_R   0.611622 0.092750 0.302693 -0.212818
C28   C     C_R   0.887272 0.907447 0.802569 -0.212850
C29   C     C_R   0.996465 0.488078 0.717249 0.037319
C30   C     C_R   0.503827 0.511895 0.217253 0.037367
C31   C     C_R   0.530821 0.010867 0.281340 0.039571
C32   C     C_R   0.968896 0.989184 0.781306 0.039643
C33   C     C_R   0.037340 0.562860 0.678594 0.070725
C34   C     C_R   0.462431 0.437179 0.178585 0.070755
C35   C     C_R   0.502377 0.937984 0.322556 0.072988
C36   C     C_R   0.997799 0.061972 0.822573 0.073035
C37   C     C_R   0.998189 0.501668 0.780210 0.091707
C38   C     C_R   0.501696 0.498327 0.280216 0.091709
C39   C     C_R   0.479357 0.998608 0.220379 0.092564
C40   C     C_R   0.020746 0.001390 0.720384 0.092590
C41   C     C_R   0.041233 0.589608 0.802656 0.129226
C42   C     C_R   0.457555 0.410492 0.302650 0.129363
C43   C     C_R   0.397993 0.914288 0.202670 0.134403
C44   C     C_R   0.102985 0.085551 0.702770 0.134538
C45   C     C_R   0.080424 0.661426 0.763966 -0.169901
C46   C     C_R   0.417904 0.338732 0.263949 -0.170160
C47   C     C_R   0.373055 0.844065 0.243623 -0.181836
C48   C     C_R   0.128324 0.155693 0.743766 -0.182005
C49   C     C_R   0.078320 0.648471 0.703013 -0.180679
C50   C     C_R   0.420524 0.351654 0.202994 -0.180924
C51   C     C_R   0.425034 0.855412 0.302455 -0.185755
C52   C     C_R   0.075937 0.144409 0.802555 -0.185944
C53   C     C_R   0.960666 0.431290 0.821963 -0.213810
C54   C     C_R   0.539813 0.568636 0.321979 -0.213907
C55   C     C_R   0.503324 0.066989 0.176270 -0.214859
C56   C     C_R   0.996375 0.933099 0.676229 -0.214905
C57   C     C_R   0.010570 0.535167 0.903810 -0.132747
C58   C     C_R   0.487985 0.464934 0.403815 -0.132372
C59   C     C_R   0.361557 0.969193 0.102051 -0.122423
C60   C     C_R   0.139528 0.030640 0.602167 -0.122098
C61   C     C_R   0.032411 0.550632 0.616100 -0.132832
C62   C     C_R   0.467797 0.449375 0.116093 -0.132826
C63   C     C_R   0.556542 0.948777 0.382830 -0.136384
C64   C     C_R   0.943252 0.051236 0.882806 -0.136462
H13   H     H_    0.931053 0.362463 0.808580 0.098132
H14   H     H_    0.570356 0.637385 0.308601 0.098232
H15   H     H_    0.561788 0.133013 0.186252 0.102512
H16   H     H_    0.937260 0.867190 0.686142 0.102604
H17   H     H_    0.978313 0.455985 0.545147 0.151282
H18   H     H_    0.523084 0.543906 0.045160 0.151280
H19   H     H_    0.682354 0.039359 0.446935 0.154322
H20   H     H_    0.816373 0.960830 0.946785 0.154342
H21   H     H_    0.917928 0.343899 0.717171 0.142376
H22   H     H_    0.583555 0.655935 0.217202 0.142362
H23   H     H_    0.638322 0.150392 0.274551 0.140884
H24   H     H_    0.860154 0.849895 0.774381 0.140848
H25   H     H_    0.109505 0.706398 0.675060 0.107037
H26   H     H_    0.388950 0.293776 0.175032 0.107284
H27   H     H_    0.403195 0.798706 0.332202 0.115698
H28   H     H_    0.098112 0.201052 0.832333 0.115993
Br1   Br    Br    0.876640 0.278026 0.596218 -0.544761
Br2   Br    Br    0.625861 0.721718 0.096271 -0.545025
Br3   Br    Br    0.779292 0.212697 0.388557 -0.544359
Br4   Br    Br    0.718251 0.787735 0.888269 -0.544600

loop_
_geom_bond_atom_site_label_1
_geom_bond_atom_site_label_2
_ccdc_geom_bond_type
O17   V3    S    
C47   C51   A    
C22   C26   A    
C19   C23   A    
O19   V1    S    
C9    H9    S    
O3    C7    A    
H6    C46   S    
C22   Br2   S    
C44   C48   A    
C25   H21   S    
C36   C64   A    
C16   C60   A    
C29   C37   A    
O1    C5    A    
C8    C62   S    
C28   C32   A    
O9    V1    S    
H4    C60   S    
C18   C22   A    
O4    C8    A    
C29   C33   A    
C28   H24   S    
C30   C38   A    
O1    V3    S    
H7    C47   S    
O2    V4    S    
C11   C43   A    
O3    V1    S    
C12   C60   A    
C20   H20   S    
C3    C16   S    
C15   C55   A    
C1    O15   A    
C54   H14   S    
C2    O16   A    
O2    C6    A    
C23   Br3   S    
C24   Br4   S    
O14   V2    S    
C51   H27   S    
C39   C55   A    
C53   H13   S    
O11   C7    A    
O15   V3    S    
O12   C8    A    
O10   V2    S    
C36   C52   A    
C14   C54   A    
O5    V1    S    
C27   C31   A    
O7    V3    S    
C18   H18   S    
H1    C57   S    
O8    V4    S    
C40   C44   A    
C6    C64   S    
C12   C44   A    
C13   C53   A    
C26   C30   A    
O18   V4    S    
C14   C58   A    
C17   C61   A    
C46   C50   A    
C35   C63   A    
C20   C24   A    
C19   H19   S    
C32   C36   A    
C52   H28   S    
O7    C3    A    
O5    C1    A    
C25   C29   A    
C42   C46   A    
C26   H22   S    
C41   C45   A    
O8    C4    A    
H5    C45   S    
H2    C58   S    
O9    C5    A    
C32   C40   A    
O11   V3    S    
H3    C59   S    
C40   C56   A    
C10   H10   S    
C7    C61   S    
C10   C58   A    
C35   C51   A    
C16   C56   A    
C31   C39   A    
C20   C64   A    
C19   C63   A    
C34   C50   A    
C4    C15   S    
C33   C49   A    
C21   Br1   S    
O16   V4    S    
C3    O13   A    
C17   C21   A    
O6    V2    S    
C1    C14   S    
C48   C52   A    
C55   H15   S    
H8    C48   S    
C9    C57   A    
O6    C2    A    
C21   C25   A    
C11   C59   A    
O12   V4    S    
C23   C27   A    
C50   H26   S    
C24   C28   A    
O10   C6    A    
C49   H25   S    
C37   C53   A    
O13   V1    S    
C10   C42   A    
C43   C47   A    
C9    C41   A    
C30   C34   A    
C5    C63   S    
C38   C54   A    
O20   V2    S    
C12   H12   S    
C31   C35   A    
C27   H23   S    
O4    V2    S    
C56   H16   S    
C17   H17   S    
C38   C42   A    
C4    O14   A    
C37   C41   A    
C18   C62   A    
C13   C57   A    
C11   H11   S    
C2    C13   S    
C39   C43   A    
C45   C49   A    
C34   C62   A    
C15   C59   A    
C33   C61   A    
