data_mof_unit_22602.cif
_audit_creation_date              2012-12-11T15:31:37-0500
_audit_creation_method            fapswitch 2.2
_symmetry_space_group_name_H-M    P1
_symmetry_Int_Tables_number       1
_space_group_crystal_system       triclinic
_cell_length_a                    6.975148
_cell_length_b                    14.932312
_cell_length_c                    21.326684
_cell_angle_alpha                 73.52327
_cell_angle_beta                  90.922499
_cell_angle_gamma                 89.685785
_cell_volume                      2129.67255838

loop_
_atom_site_label
_atom_site_type_symbol
_atom_type_description
_atom_site_fract_x
_atom_site_fract_y
_atom_site_fract_z
_atom_type_partial_charge
O1    O     O_R   0.648150 0.130050 0.214300 -0.542970
O2    O     O_R   0.351850 0.869950 0.785700 -0.539470
O3    O     O_R   0.320490 0.006660 0.340150 -0.540992
O4    O     O_R   0.679510 0.993340 0.659850 -0.540605
O5    O     O_R   0.146100 0.869940 0.285700 -0.537602
O6    O     O_R   0.853900 0.130060 0.714300 -0.537115
C1    C     C_R   0.490175 0.001888 0.367032 0.674035
C2    C     C_R   0.509816 0.998048 0.632985 0.678727
O7    O     O_R   0.318690 0.137980 0.218120 -0.539866
O8    O     O_R   0.681310 0.862020 0.781880 -0.547050
O9    O     O_R   0.144280 0.002190 0.162800 -0.534192
O10   O     O_R   0.855720 0.997810 0.837200 -0.536207
C3    C     C_R   0.486831 0.175770 0.208135 0.696134
C4    C     C_R   0.513461 0.824166 0.793864 0.687878
O11   O     O_R   0.649960 0.997790 0.337200 -0.540397
O12   O     O_R   0.350040 0.002210 0.662800 -0.539596
O13   O     O_3   0.479300 0.955290 0.231990 -0.370511
O14   O     O_3   0.520700 0.044710 0.768010 -0.369327
V1    V     V_3+5 0.206040 0.008290 0.253340 1.404322
V2    V     V_3+5 0.793960 0.991710 0.746660 1.395735
O15   O     O_R   0.814320 0.993320 0.159850 -0.548973
O16   O     O_R   0.185680 0.006680 0.840150 -0.549738
C5    C     C_R   0.980881 0.004281 0.131842 0.692565
C6    C     C_R   0.019282 0.994269 0.868250 0.685262
O17   O     O_R   0.816120 0.862000 0.281880 -0.540656
O18   O     O_R   0.183880 0.138000 0.718120 -0.539804
C7    C     C_R   0.987055 0.824513 0.293295 0.696276
C8    C     C_R   0.012934 0.175474 0.706593 0.697796
V3    V     V_3+5 0.705540 0.991700 0.246660 1.391226
V4    V     V_3+5 0.294460 0.008300 0.753340 1.390761
O19   O     O_3   0.982150 0.044700 0.268010 -0.370302
O20   O     O_3   0.017850 0.955300 0.731990 -0.370733
C9    C     C_R   0.008758 0.723254 0.319904 -0.046705
C10   C     C_R   0.990960 0.276696 0.679857 -0.043695
C11   C     C_R   0.181458 0.582731 0.319443 -0.154112
C12   C     C_R   0.815458 0.416695 0.679718 -0.158905
C13   C     C_R   0.130605 0.675163 0.288883 -0.155422
C14   C     C_R   0.867502 0.324544 0.710537 -0.157799
C15   C     C_R   0.943175 0.678983 0.382592 -0.234506
C16   C     C_R   0.056892 0.320953 0.617189 -0.233511
C17   C     C_R   0.017346 0.590546 0.418304 0.077932
C18   C     C_R   0.982141 0.409201 0.581302 0.078258
C19   C     C_R   0.123454 0.539744 0.383540 0.106012
C20   C     C_R   0.874773 0.459834 0.615841 0.108886
C21   C     C_R   0.984431 0.549370 0.486413 -0.020921
C22   C     C_R   0.015244 0.450342 0.513204 -0.021193
C23   C     C_R   0.077083 0.397426 0.470504 0.138627
C24   C     C_R   0.922173 0.602214 0.529113 0.138649
C25   C     C_R   0.158297 0.444853 0.410939 -0.196645
C26   C     C_R   0.839904 0.554719 0.588461 -0.196372
H1    H     H_    0.811628 0.290431 0.758417 0.106752
H2    H     H_    0.185684 0.709243 0.240876 0.103540
C27   C     C_3   0.836828 0.963905 0.982815 -0.206531
C28   C     C_3   0.162879 0.037364 0.016248 -0.203924
C29   C     C_3   0.974435 0.915044 0.040187 0.160083
C30   C     C_3   0.024542 0.086290 0.958682 0.163895
C31   C     C_3   0.987278 0.005629 0.060706 -0.173117
C32   C     C_3   0.012403 0.994699 0.938898 -0.167731
C33   C     C_3   0.850770 0.055135 0.003250 0.174237
C34   C     C_3   0.148757 0.945758 0.996191 0.181999
C35   C     C_3   0.681507 0.002266 0.479280 -0.116504
C36   C     C_3   0.318455 0.997614 0.520755 -0.116124
C37   C     C_3   0.585920 0.076787 0.506836 -0.152379
C38   C     C_3   0.414034 0.923092 0.493198 -0.150835
C39   C     C_3   0.500511 0.998464 0.562358 -0.002772
C40   C     C_3   0.499454 0.001418 0.437673 -0.001581
C41   C     C_3   0.596081 0.923921 0.535624 -0.140674
C42   C     C_3   0.403881 0.075957 0.464412 -0.141726
C43   C     C_R   0.491962 0.277067 0.177676 -0.049172
C44   C     C_R   0.512123 0.721588 0.818973 -0.059277
C45   C     C_R   0.511803 0.433729 0.188778 -0.166656
C46   C     C_R   0.654864 0.575202 0.815005 -0.184182
C47   C     C_R   0.521631 0.337165 0.216622 -0.216039
C48   C     C_R   0.624068 0.670300 0.787149 -0.209188
C49   C     C_R   0.458735 0.313942 0.109740 0.058496
C50   C     C_R   0.426022 0.675442 0.878995 0.057293
C51   C     C_R   0.487931 0.410915 0.080123 0.061678
C52   C     C_R   0.496931 0.585465 0.914105 0.053589
C53   C     C_R   0.492849 0.471176 0.120753 0.123869
C54   C     C_R   0.596157 0.532765 0.878876 0.127821
C55   C     C_R   0.514608 0.450432 0.011903 0.067133
C56   C     C_R   0.482266 0.547414 0.983133 0.062694
C57   C     C_R   0.468826 0.605266 0.024912 -0.225044
C58   C     C_R   0.602885 0.398948 0.974184 -0.218932
C59   C     C_R   0.481493 0.567937 0.092693 -0.195347
C60   C     C_R   0.644507 0.439634 0.908886 -0.190173
H3    H     H_    0.482363 0.614948 0.123199 0.124341
H4    H     H_    0.718050 0.398729 0.881966 0.126511
H5    H     H_    0.687844 0.704199 0.740502 0.120228
H6    H     H_    0.542355 0.309250 0.269040 0.110895
H7    H     H_    0.523123 0.479162 0.220257 0.115925
H8    H     H_    0.737782 0.536567 0.788695 0.115053
H9    H     H_    0.229404 0.405802 0.382087 0.124402
H10   H     H_    0.768241 0.593710 0.617241 0.123648
H11   H     H_    0.831142 0.004252 0.461982 0.109022
H12   H     H_    0.168823 0.995623 0.538056 0.108869
H13   H     H_    0.674526 0.861067 0.565636 0.107993
H14   H     H_    0.325449 0.138813 0.434401 0.108702
C61   C     C_3   0.235351 0.711153 0.896419 -0.402443
C62   C     C_3   0.074219 0.695053 0.851666 -0.662271
H15   H     H_    0.936818 0.721110 0.865824 0.210789
H16   H     H_    0.101289 0.732637 0.799746 0.230134
H17   H     H_    0.060540 0.619238 0.856713 0.221835
H18   H     H_    0.191779 0.674952 0.946850 0.186524
H19   H     H_    0.242970 0.786439 0.891977 0.177758
C63   C     C_3   0.344655 0.255731 0.074555 -0.375815
C64   C     C_3   0.129530 0.265251 0.084356 -0.704913
H20   H     H_    0.095604 0.251411 0.136858 0.239005
H21   H     H_    0.078852 0.336857 0.057830 0.223681
H22   H     H_    0.050581 0.214316 0.064943 0.199321
H23   H     H_    0.368562 0.277149 0.022128 0.178856
H24   H     H_    0.388315 0.181142 0.091389 0.169342
H25   H     H_    0.466403 0.680352 0.005337 0.132076
H26   H     H_    0.655361 0.329001 0.996617 0.125663
H27   H     H_    0.160636 0.284147 0.596432 0.112393
H28   H     H_    0.839983 0.715915 0.403452 0.112638
H29   H     H_    0.267249 0.545040 0.293161 0.109010
H30   H     H_    0.727292 0.453986 0.705542 0.107745
C65   C     C_3   0.040140 0.293284 0.482040 -0.368527
C66   C     C_3   0.942672 0.270891 0.423363 -0.770327
H31   H     H_    0.807671 0.312103 0.409451 0.232499
H32   H     H_    0.038211 0.285177 0.380668 0.221035
H33   H     H_    0.908076 0.195472 0.436460 0.210630
H34   H     H_    0.178133 0.253998 0.493318 0.171262
H35   H     H_    0.940426 0.266509 0.522862 0.185349
C67   C     C_3   0.959584 0.706265 0.517833 -0.368353
C68   C     C_3   0.056181 0.728287 0.576786 -0.769838
H36   H     H_    0.959770 0.714124 0.619259 0.216584
H37   H     H_    0.190668 0.686736 0.590962 0.235093
H38   H     H_    0.091569 0.803612 0.563850 0.210698
H39   H     H_    0.059991 0.732996 0.477208 0.185284
H40   H     H_    0.821860 0.745758 0.506377 0.171361
C69   C     C_3   0.937221 0.820538 0.090486 -0.344665
C70   C     C_3   0.930103 0.739199 0.060281 -0.771672
H41   H     H_    0.852235 0.680154 0.093239 0.226529
H42   H     H_    0.855251 0.759595 0.011875 0.221476
H43   H     H_    0.076863 0.713931 0.054897 0.229947
H44   H     H_    0.048080 0.806220 0.129934 0.159460
H45   H     H_    0.799538 0.825385 0.114559 0.176225
C71   C     C_3   0.053043 0.175729 0.901819 -0.340590
C72   C     C_3   0.039024 0.266908 0.919764 -0.793883
H46   H     H_    0.912098 0.268961 0.949360 0.235675
H47   H     H_    0.168262 0.277356 0.946483 0.235752
H48   H     H_    0.029097 0.325871 0.874308 0.218195
H49   H     H_    0.194233 0.171903 0.879433 0.182081
H50   H     H_    0.943075 0.177751 0.863247 0.162550
H51   H     H_    0.710492 0.933086 0.965728 0.138838
H52   H     H_    0.287402 0.068669 0.033566 0.139112
C73   C     C_3   0.681480 0.114864 0.010734 -0.358355
C74   C     C_3   0.566302 0.148622 0.946838 -0.764726
H53   H     H_    0.652595 0.193837 0.907488 0.233060
H54   H     H_    0.512772 0.088469 0.930974 0.233538
H55   H     H_    0.442878 0.190611 0.954042 0.213237
H56   H     H_    0.591735 0.072447 0.050108 0.167893
H57   H     H_    0.732567 0.174506 0.027222 0.155283
C75   C     C_3   0.314600 0.882072 0.991840 -0.365648
C76   C     C_3   0.435127 0.854386 0.054559 -0.772914
H58   H     H_    0.499077 0.916608 0.064806 0.233694
H59   H     H_    0.349693 0.816563 0.096892 0.226044
H60   H     H_    0.550147 0.806466 0.048723 0.221452
H61   H     H_    0.255684 0.818207 0.983734 0.167812
H62   H     H_    0.402824 0.917098 0.949407 0.168955
H63   H     H_    0.654559 0.140293 0.513668 0.108951
H64   H     H_    0.345301 0.859584 0.486402 0.108673

loop_
_geom_bond_atom_site_label_1
_geom_bond_atom_site_label_2
_ccdc_geom_bond_type
C40   C42   S    
C37   C39   S    
C76   H58   S    
C36   H12   S    
C52   C56   A    
O13   V3    S    
C57   H25   S    
C38   H64   S    
V1    O19   S    
C70   H43   S    
C45   C53   A    
C55   C56   A    
C27   C33   S    
C23   C25   A    
C28   C34   S    
C21   C22   A    
C7    C9    S    
C50   C61   S    
C37   H63   S    
O9    V1    S    
C67   C68   S    
C10   C16   A    
C48   H5    S    
C75   C76   S    
C11   C13   A    
C58   C60   A    
C47   H6    S    
O3    C1    A    
C72   H47   S    
C30   C71   S    
C60   H4    S    
C31   C33   S    
C16   H27   S    
C63   C64   S    
O12   V4    S    
C27   H51   S    
C18   C22   A    
C35   C37   S    
O7    C3    A    
C36   C38   S    
O5    C7    A    
C35   C40   S    
O7    V1    S    
O6    C8    A    
O8    V2    S    
C39   C41   S    
C74   H55   S    
C44   C48   A    
C54   C60   A    
C64   H20   S    
O3    V1    S    
O14   V4    S    
C67   H40   S    
C11   C19   A    
C17   C19   A    
C66   H33   S    
O4    C2    A    
C24   C67   S    
C33   C73   S    
C61   H18   S    
C75   H62   S    
C69   H44   S    
C2    O12   A    
C29   C34   S    
C4    C44   S    
C18   C20   A    
O1    V3    S    
C66   H32   S    
O11   V3    S    
C63   H23   S    
C27   C29   S    
O17   V3    S    
C61   H19   S    
C28   C30   S    
C59   H3    S    
C38   C41   S    
C71   C72   S    
C46   C48   A    
O8    C4    A    
C72   H48   S    
C71   H50   S    
C45   C47   A    
C13   H2    S    
C26   H10   S    
C70   H42   S    
C1    O11   A    
C65   H34   S    
O15   V3    S    
C62   H17   S    
C9    C13   A    
C46   C54   A    
C38   C40   S    
C76   H59   S    
C73   H56   S    
C68   H37   S    
C74   H54   S    
C35   C41   S    
C61   C62   S    
C51   C55   A    
C27   C32   S    
O10   V2    S    
C62   H16   S    
C51   C53   A    
C9    C15   A    
C43   C47   A    
C24   C26   A    
C49   C51   A    
O5    V1    S    
C65   H35   S    
C57   C59   A    
C75   H61   S    
C69   H45   S    
C76   H60   S    
C29   C31   S    
C44   C50   A    
C69   C70   S    
C64   H22   S    
O16   C6    A    
C12   C20   A    
O1    C3    A    
C68   H36   S    
C52   C54   A    
C53   C59   A    
C55   C58   A    
C12   H30   S    
C23   C65   S    
C28   H52   S    
V2    O20   S    
C21   C24   A    
C20   C26   A    
C5    C31   S    
C37   C42   S    
C58   H26   S    
O16   V4    S    
C36   C39   S    
C10   C14   A    
C19   C25   A    
C50   C52   A    
C16   C18   A    
C71   H49   S    
C65   C66   S    
C35   H11   S    
O18   V4    S    
C70   H41   S    
C14   H1    S    
O17   C7    A    
O6    V2    S    
O10   C6    A    
O18   C8    A    
C74   H53   S    
C30   C33   S    
C36   C42   S    
O2    V4    S    
O15   C5    A    
C73   H57   S    
C68   H38   S    
V3    O19   S    
C29   C69   S    
C73   C74   S    
C1    C40   S    
V4    O20   S    
C64   H21   S    
C63   H24   S    
C3    C43   S    
C67   H39   S    
C15   H28   S    
C46   H8    S    
O9    C5    A    
C62   H15   S    
O13   V1    S    
C30   C32   S    
C43   C49   A    
O14   V2    S    
C34   C75   S    
O2    C4    A    
C42   H14   S    
C22   C23   A    
C11   H29   S    
C12   C14   A    
C41   H13   S    
C8    C10   S    
O4    V2    S    
C2    C39   S    
C45   H7    S    
C15   C17   A    
C49   C63   S    
C6    C32   S    
C56   C57   A    
C17   C21   A    
C66   H31   S    
C25   H9    S    
C72   H46   S    
C32   C34   S    
C28   C31   S    
