data_mof_unit_41767.cif
_audit_creation_date              2012-12-10T19:19:37-0500
_audit_creation_method            fapswitch 2.2
_symmetry_space_group_name_H-M    P1
_symmetry_Int_Tables_number       1
_space_group_crystal_system       triclinic
_cell_length_a                    15.737619
_cell_length_b                    15.75688
_cell_length_c                    14.977735
_cell_angle_alpha                 89.736789
_cell_angle_beta                  89.045796
_cell_angle_gamma                 89.941171
_cell_volume                      3713.55951384

loop_
_atom_site_label
_atom_site_type_symbol
_atom_type_description
_atom_site_fract_x
_atom_site_fract_y
_atom_site_fract_z
_atom_type_partial_charge
C1    C     C_R   0.500081 0.337914 0.500252 0.886083
C2    C     C_3   0.532452 0.048780 0.404460 0.248854
C3    C     C_3   0.532687 0.950710 0.407037 -0.394336
C4    C     C_R   0.337503 0.500127 0.500698 0.898227
C5    C     C_1   0.504379 0.750618 0.499612 -0.024495
C6    C     C_3   0.516395 0.083068 0.501606 -0.180392
C7    C     C_3   0.583928 0.948421 0.568612 0.024298
C8    C     C_3   0.513415 0.917013 0.503045 -0.131295
C9    C     C_3   0.426702 0.952721 0.539567 0.264607
C10   C     C_3   0.427828 0.050290 0.534004 -0.456193
C11   C     C_1   0.508902 0.825645 0.501024 0.149603
C12   C     C_3   0.082884 0.502324 0.500693 -0.006975
C13   C     C_1   0.511183 0.174436 0.500840 0.198119
C14   C     C_1   0.505340 0.249435 0.500640 0.007919
C15   C     C_3   0.509840 0.407468 0.054088 -0.369316
C16   C     C_R   0.500137 0.662086 0.499768 0.912820
C17   C     C_3   0.571020 0.553760 0.049619 -0.458100
C18   C     C_3   0.566678 0.557393 0.945485 -0.462205
C19   C     C_3   0.497384 0.499225 0.090134 -0.003163
C20   C     C_3   0.517334 0.406488 0.949682 0.321978
C21   C     C_3   0.497139 0.496527 0.910090 0.004968
C22   C     C_3   0.410518 0.528559 0.948827 -0.393249
C23   C     C_3   0.972967 0.578933 0.475235 0.302026
C24   C     C_3   0.412816 0.537405 0.052906 0.310348
C25   C     C_1   0.497768 0.497736 0.809307 0.168926
C26   C     C_1   0.500196 0.500658 0.190762 0.180810
C27   C     C_R   0.662509 0.500080 0.499275 0.918760
C28   C     C_3   0.969297 0.482733 0.580918 -0.132863
C29   C     C_3   0.027517 0.424693 0.523136 -0.154768
C30   C     C_1   0.248733 0.500926 0.502113 -0.097575
C31   C     C_1   0.751305 0.500767 0.497656 -0.102740
C32   C     C_3   0.026340 0.560498 0.558539 -0.300500
C33   C     C_3   0.917217 0.502216 0.497452 0.011163
C34   C     C_3   0.030425 0.521608 0.418181 0.395725
C35   C     C_3   0.973793 0.444106 0.439527 -0.248131
C36   C     C_1   0.173561 0.501662 0.502163 0.065873
C37   C     C_1   0.826497 0.501454 0.497020 0.069129
C38   C     C_3   0.591327 0.049511 0.564541 0.530199
H1    H     H_    0.595690 0.070093 0.380572 0.191025
H2    H     H_    0.552877 0.623596 0.923873 0.213422
H3    H     H_    0.413050 0.606511 0.068174 0.112600
H4    H     H_    0.358648 0.485793 0.928338 0.260344
H5    H     H_    0.457331 0.366284 0.078398 0.274757
H6    H     H_    0.950680 0.397096 0.390598 0.200847
H7    H     H_    0.395428 0.591605 0.919210 0.161845
H8    H     H_    0.051985 0.361419 0.543142 0.192670
H9    H     H_    0.409145 0.077881 0.599264 0.237750
H10   H     H_    0.377768 0.073725 0.489131 0.273023
H11   H     H_    0.487893 0.085375 0.787308 0.407527
H12   H     H_    0.595725 0.927498 0.383452 0.226161
H13   H     H_    0.559016 0.931870 0.636308 0.135755
H14   H     H_    0.263401 0.789388 0.508529 0.394248
H15   H     H_    0.584763 0.391857 0.931995 0.116798
H16   H     H_    0.250914 0.378204 0.121045 0.414893
H17   H     H_    0.452606 0.184492 0.927741 0.392701
H18   H     H_    0.022888 0.578317 0.181647 0.406560
H19   H     H_    0.052336 0.743186 0.476729 0.350525
H20   H     H_    0.049496 0.608215 0.606687 0.192794
H21   H     H_    0.641894 0.799981 0.674573 0.355705
H22   H     H_    0.745122 0.205681 0.465909 0.392092
H23   H     H_    0.486877 0.924459 0.359085 0.268440
H24   H     H_    0.463617 0.075390 0.173658 0.406989
H25   H     H_    0.420895 0.935689 0.611619 0.148212
H26   H     H_    0.942100 0.466525 0.647698 0.185295
H27   H     H_    0.568810 0.379751 0.082146 0.168978
H28   H     H_    0.567984 0.619388 0.076632 0.206222
H29   H     H_    0.633260 0.526594 0.069482 0.216185
H30   H     H_    0.629850 0.540240 0.916309 0.202129
N1    N     N_1   0.498320 0.498630 0.731150 -0.062738
N2    N     N_1   0.501700 0.501360 0.268850 -0.058996
O1    O     O_R   0.500080 0.377210 0.574260 -0.576410
O2    O     O_2   0.582638 0.184980 0.678941 -0.229324
O3    O     O_3   0.489252 0.056803 0.728539 -0.615689
O4    O     O_2   0.256514 0.963200 0.515611 -0.221069
O5    O     O_2   0.338556 0.899339 0.392838 -0.223175
O6    O     O_3   0.315004 0.811141 0.537678 -0.573657
O7    O     O_2   0.315259 0.517610 0.202892 -0.241299
O8    O     O_2   0.241914 0.542110 0.062671 -0.243193
O9    O     O_3   0.305391 0.392851 0.090721 -0.504885
O10   O     O_2   0.363693 0.332023 0.917760 -0.244909
O11   O     O_2   0.476905 0.311820 0.805373 -0.259097
O12   O     O_R   0.499910 0.377070 0.425800 -0.594795
O13   O     O_3   0.487318 0.229619 0.954962 -0.512732
O14   O     O_2   0.129637 0.622765 0.315972 -0.218922
O15   O     O_2   0.125624 0.471507 0.277705 -0.246435
O16   O     O_3   0.994353 0.564546 0.239347 -0.489186
O17   O     O_2   0.880895 0.673990 0.363156 -0.183496
O18   O     O_2   0.880868 0.716728 0.520216 -0.214536
O19   O     O_3   0.016300 0.746887 0.423252 -0.424656
O20   O     O_2   0.714667 0.871349 0.474126 -0.166447
O21   O     O_2   0.748737 0.923942 0.622976 -0.142648
O22   O     O_3   0.659110 0.788665 0.611836 -0.536846
O23   O     O_R   0.376870 0.500060 0.574220 -0.617174
O24   O     O_2   0.760015 0.088336 0.595507 -0.145781
O25   O     O_2   0.728985 0.037078 0.446328 -0.257870
O26   O     O_3   0.687251 0.190142 0.487196 -0.588555
O27   O     O_2   0.373380 0.062860 0.330908 -0.211288
O28   O     O_2   0.469560 0.184096 0.312134 -0.286792
O29   O     O_3   0.499892 0.048989 0.219549 -0.507654
O30   O     O_R   0.376690 0.499920 0.425760 -0.566109
O31   O     O_R   0.500090 0.622930 0.574200 -0.610820
O32   O     O_R   0.499920 0.622790 0.425740 -0.609403
O33   O     O_R   0.623310 0.500080 0.574240 -0.603951
O34   O     O_R   0.623130 0.499940 0.425780 -0.612528
O35   O     O_2   0.652137 0.056753 0.733696 -0.194418
S1    S     S_3+6 0.580029 0.089621 0.678731 0.068080
S2    S     S_3+6 0.331442 0.907774 0.492484 0.071830
S3    S     S_3+6 0.316027 0.498012 0.104766 0.065511
S4    S     S_3+6 0.457587 0.319735 0.903595 0.051058
S5    S     S_3+6 0.073870 0.545690 0.310302 0.109451
S6    S     S_3+6 0.934234 0.681379 0.444997 0.137474
S7    S     S_3+6 0.680894 0.884610 0.567398 0.135280
S8    S     S_3+6 0.695290 0.089144 0.522862 0.107870
S9    S     S_3+6 0.464401 0.088960 0.317187 0.059070
Zn1   Zn    Zn3+2 0.500120 0.500090 0.599130 1.057569
Zn2   Zn    Zn3+2 0.499880 0.499910 0.400870 1.073657

loop_
_geom_bond_atom_site_label_1
_geom_bond_atom_site_label_2
_ccdc_geom_bond_type
O5    S2    D    
C12   C29   S    
C18   C21   S    
O30   Zn2   S    
C32   H20   S    
O29   S9    S    
C7    C8    S    
C15   C19   S    
C17   H28   S    
C1    O1    A    
H19   O19   S    
C28   C29   S    
O16   S5    S    
C5    C11   T    
O28   S9    D    
O17   S6    D    
C18   H30   S    
C15   H27   S    
C27   O34   A    
C7    S7    S    
O8    S3    D    
C34   C35   S    
O23   Zn1   S    
C19   C26   S    
C18   H2    S    
C5    C16   S    
C17   C19   S    
O4    S2    D    
O34   Zn2   S    
O18   S6    D    
C2    H1    S    
C3    H12   S    
C8    C9    S    
C23   C33   S    
O10   S4    D    
O13   S4    S    
C24   S3    S    
O20   S7    D    
C12   C36   S    
C9    C10   S    
C21   C22   S    
C12   C32   S    
C24   H3    S    
C2    C6    S    
O24   S8    D    
C3    H23   S    
C15   C20   S    
C17   H29   S    
C27   C31   S    
C28   C32   S    
O15   S5    D    
C38   S8    S    
C4    O23   A    
O22   S7    S    
N2    Zn2   S    
C1    O12   A    
O14   S5    D    
H24   O29   S    
O21   S7    D    
C38   S1    S    
O33   Zn1   S    
C7    H13   S    
H18   O16   S    
C23   C34   S    
C29   C35   S    
C6    C38   S    
C17   C18   S    
O1    Zn1   S    
C35   H6    S    
H22   O26   S    
C16   O32   A    
O2    S1    D    
C28   C33   S    
C3    C8    S    
O6    S2    S    
C4    O30   A    
C10   H10   S    
C26   N2    T    
C22   C24   S    
O26   S8    S    
C25   N1    T    
H17   O13   S    
C28   H26   S    
H16   O9    S    
C21   C25   S    
N1    Zn1   S    
C9    H25   S    
O7    S3    D    
O11   S4    D    
C20   H15   S    
H14   O6    S    
C6    C10   S    
C9    S2    S    
C23   S6    S    
O35   S1    D    
O19   S6    S    
C30   C36   T    
C29   H8    S    
C23   C32   S    
C2    C3    S    
C15   H5    S    
C6    C13   S    
C2    S9    S    
O3    S1    S    
C22   H4    S    
O25   S8    D    
C8    C11   S    
O31   Zn1   S    
C27   O33   A    
C33   C35   S    
C7    C38   S    
O9    S3    S    
C19   C24   S    
H11   O3    S    
H21   O22   S    
C33   C37   S    
O32   Zn2   S    
O12   Zn2   S    
C20   S4    S    
C31   C37   T    
C16   O31   A    
C22   H7    S    
C20   C21   S    
C10   H9    S    
C1    C14   S    
C34   S5    S    
O27   S9    D    
C13   C14   T    
C12   C34   S    
C4    C30   S    
