data_mof_unit_6855.cif
_audit_creation_date              2012-12-10T19:11:33-0500
_audit_creation_method            fapswitch 2.2
_symmetry_space_group_name_H-M    P1
_symmetry_Int_Tables_number       1
_space_group_crystal_system       triclinic
_cell_length_a                    10.755535
_cell_length_b                    9.769838
_cell_length_c                    10.537853
_cell_angle_alpha                 90.611687
_cell_angle_beta                  88.479406
_cell_angle_gamma                 91.040041
_cell_volume                      1106.68598204

loop_
_atom_site_label
_atom_site_type_symbol
_atom_type_description
_atom_site_fract_x
_atom_site_fract_y
_atom_site_fract_z
_atom_type_partial_charge
C1    C     C_R   0.258119 0.498733 0.494958 0.857593
C2    C     C_3   0.929837 0.395477 0.377046 0.204700
C3    C     C_3   0.375735 0.079591 0.537764 0.090074
C4    C     C_3   0.374817 0.916794 0.535830 0.094197
C5    C     C_3   0.529748 0.080229 0.369243 -0.301610
C6    C     C_3   0.530616 0.918434 0.369403 -0.306919
C7    C     C_3   0.592929 0.083282 0.584397 -0.221426
C8    C     C_3   0.592131 0.922007 0.585102 -0.237212
C9    C     C_R   0.495968 0.499259 0.257975 0.909438
C10   C     C_R   0.742293 0.501040 0.490397 0.907837
C11   C     C_R   0.500260 0.500554 0.742382 0.873093
C12   C     C_3   0.492554 0.498083 0.123945 -0.042451
C13   C     C_3   0.406396 0.586543 0.045380 -0.209021
C14   C     C_3   0.467416 0.370476 0.040621 -0.175116
C15   C     C_3   0.382457 0.459211 0.958571 -0.228809
C16   C     C_3   0.497885 0.501045 0.877069 -0.020140
C17   C     C_3   0.521284 0.625409 0.962667 0.104443
C18   C     C_3   0.581030 0.414385 0.958291 0.120808
C19   C     C_3   0.605367 0.539195 0.042045 0.038793
C20   C     C_3   0.078049 0.637013 0.436780 -0.522112
C21   C     C_3   0.069036 0.483847 0.625853 -0.434860
C22   C     C_3   0.935045 0.652327 0.452419 0.226208
C23   C     C_3   0.925697 0.462659 0.625048 0.183927
C24   C     C_3   0.072277 0.370923 0.402789 0.190704
C25   C     C_3   0.121775 0.496021 0.488476 0.013449
C26   C     C_3   0.879509 0.502222 0.485798 0.052912
H1    H     H_    0.291356 0.426596 0.920087 0.133545
H2    H     H_    0.621837 0.120506 0.334824 0.177819
H3    H     H_    0.623335 0.882612 0.335935 0.148970
H4    H     H_    0.335507 0.657431 0.085170 0.133520
H5    H     H_    0.445821 0.265844 0.076013 0.136962
H6    H     H_    0.110283 0.649062 0.336601 0.159617
H7    H     H_    0.114431 0.401044 0.678265 0.145607
H8    H     H_    0.123601 0.724470 0.486644 0.180953
H9    H     H_    0.094791 0.578165 0.680056 0.157350
H10   H     H_    0.984045 0.519157 0.220110 0.196612
H11   H     H_    0.912580 0.375245 0.179582 0.190215
H12   H     H_    0.306557 0.112377 0.468520 0.072980
H13   H     H_    0.895012 0.197434 0.307738 0.159966
H14   H     H_    0.860773 0.211295 0.462176 0.215080
H15   H     H_    0.334119 0.236522 0.665989 0.238000
H16   H     H_    0.244950 0.101892 0.683431 0.140439
H17   H     H_    0.342498 0.761409 0.667918 0.258147
H18   H     H_    0.234635 0.876154 0.667162 0.128812
H19   H     H_    0.559720 0.825806 0.999708 0.168168
H20   H     H_    0.639335 0.760703 0.874758 0.172994
H21   H     H_    0.684283 0.244356 0.978728 0.179993
H22   H     H_    0.759221 0.372074 0.904459 0.162126
H23   H     H_    0.306333 0.881457 0.464332 0.080995
H24   H     H_    0.783427 0.605638 0.011741 0.165391
H25   H     H_    0.711507 0.676031 0.138536 0.186230
H26   H     H_    0.915751 0.853094 0.517539 0.149464
H27   H     H_    0.968830 0.751856 0.627130 0.192939
H28   H     H_    0.907674 0.529665 0.812070 0.163133
H29   H     H_    0.773852 0.532354 0.733538 0.178810
H30   H     H_    0.940703 0.788821 0.302174 0.155323
H31   H     H_    0.797177 0.742428 0.346480 0.203288
H32   H     H_    0.937054 0.294511 0.742882 0.170021
H33   H     H_    0.800579 0.306367 0.675280 0.200565
H34   H     H_    0.460860 0.115105 0.300204 0.144125
H35   H     H_    0.178414 0.453893 0.250467 0.149081
H36   H     H_    0.223966 0.300002 0.293802 0.198593
H37   H     H_    0.091257 0.157038 0.408083 0.160658
H38   H     H_    0.149295 0.237238 0.536913 0.194930
H39   H     H_    0.463017 0.878413 0.299424 0.155408
H40   H     H_    0.687165 0.120750 0.555942 0.141225
H41   H     H_    0.686355 0.885366 0.558299 0.160355
H42   H     H_    0.576063 0.122960 0.682465 0.187630
H43   H     H_    0.572615 0.885520 0.683058 0.187370
N1    N     N_3   0.499750 0.138610 0.497240 -0.054488
N2    N     N_3   0.905642 0.754063 0.553744 -0.440494
N3    N     N_3   0.869516 0.551471 0.724410 -0.477059
N4    N     N_3   0.886534 0.704715 0.332618 -0.468247
N5    N     N_3   0.895908 0.319134 0.657393 -0.473990
N6    N     N_3   0.144926 0.358760 0.281644 -0.496748
N7    N     N_3   0.079863 0.239642 0.471120 -0.468667
N8    N     N_3   0.499750 0.861390 0.497240 -0.058366
N9    N     N_3   0.912461 0.452561 0.249046 -0.425591
N10   N     N_3   0.858579 0.263825 0.377286 -0.440346
N11   N     N_3   0.337519 0.131021 0.664796 -0.433573
N12   N     N_3   0.331183 0.865276 0.660471 -0.431604
N13   N     N_3   0.551346 0.763349 0.919154 -0.449729
N14   N     N_3   0.674188 0.319308 0.909939 -0.478057
N15   N     N_3   0.725277 0.583511 0.090077 -0.454315
O1    O     O_R   0.314910 0.616040 0.499970 -0.656176
O2    O     O_R   0.314910 0.383960 0.499970 -0.665912
O3    O     O_R   0.500080 0.616020 0.313900 -0.639938
O4    O     O_R   0.500080 0.383980 0.313900 -0.632406
O5    O     O_R   0.685320 0.616040 0.499930 -0.618883
O6    O     O_R   0.685320 0.383960 0.499930 -0.623175
O7    O     O_R   0.500150 0.616060 0.686000 -0.632948
O8    O     O_R   0.500150 0.383940 0.686000 -0.629009
Zn1   Zn    Zn3+2 0.500150 0.654960 0.499940 0.897863
Zn2   Zn    Zn3+2 0.500150 0.345040 0.499940 0.899947

loop_
_geom_bond_atom_site_label_1
_geom_bond_atom_site_label_2
_ccdc_geom_bond_type
H16   N11   S    
C14   C18   S    
H19   N13   S    
C14   H5    S    
C7    N1    S    
H24   N15   S    
C7    C8    S    
H35   N6    S    
C8    H43   S    
N1    Zn2   S    
C18   C19   S    
C9    O4    A    
C5    C6    S    
C21   H7    S    
H37   N7    S    
C15   C16   S    
C17   N13   S    
C23   C26   S    
H31   N4    S    
C2    N10   S    
O2    Zn2   S    
C7    H42   S    
H20   N13   S    
O1    Zn1   S    
C11   O8    A    
C6    H39   S    
C4    N12   S    
C10   O5    A    
C16   C17   S    
H21   N14   S    
H29   N3    S    
C20   H8    S    
C10   C26   S    
C1    C25   S    
H15   N11   S    
C3    N11   S    
O6    Zn2   S    
C1    O1    A    
O4    Zn2   S    
C13   H4    S    
C3    N1    S    
C24   C25   S    
C3    H12   S    
H18   N12   S    
C24   N7    S    
C6    N8    S    
H13   N10   S    
C5    N1    S    
C2    N9    S    
O7    Zn1   S    
C5    H2    S    
C11   C16   S    
C15   H1    S    
O8    Zn2   S    
C18   N14   S    
H38   N7    S    
H14   N10   S    
C2    C26   S    
H33   N5    S    
C12   C14   S    
C13   C15   S    
C2    C24   S    
C8    N8    S    
H17   N12   S    
H36   N6    S    
C23   N5    S    
C3    C4    S    
H27   N2    S    
C22   N2    S    
H32   N5    S    
C20   H6    S    
C1    O2    A    
C21   C25   S    
H30   N4    S    
C5    H34   S    
C23   N3    S    
C20   C22   S    
C24   N6    S    
C21   H9    S    
H11   N9    S    
H22   N14   S    
C13   C17   S    
C4    H23   S    
C21   C23   S    
C4    N8    S    
H26   N2    S    
H10   N9    S    
C9    O3    A    
C7    H40   S    
O3    Zn1   S    
C12   C19   S    
N8    Zn1   S    
C17   C19   S    
O5    Zn1   S    
C9    C12   S    
C22   C26   S    
C11   O7    A    
C6    H3    S    
H28   N3    S    
C12   C13   S    
C10   O6    A    
C8    H41   S    
C16   C18   S    
C20   C25   S    
C14   C15   S    
C22   N4    S    
H25   N15   S    
C19   N15   S    
