data_mof_unit_23859.cif
_audit_creation_date              2012-12-11T16:18:06-0500
_audit_creation_method            fapswitch 2.2
_symmetry_space_group_name_H-M    P1
_symmetry_Int_Tables_number       1
_space_group_crystal_system       triclinic
_cell_length_a                    14.013543
_cell_length_b                    14.074754
_cell_length_c                    30.122967
_cell_angle_alpha                 96.943043
_cell_angle_beta                  97.252635
_cell_angle_gamma                 61.189821
_cell_volume                      5151.96398497

loop_
_atom_site_label
_atom_site_type_symbol
_atom_type_description
_atom_site_fract_x
_atom_site_fract_y
_atom_site_fract_z
_atom_type_partial_charge
C1    C     C_R   0.385596 0.710847 0.442196 0.545205
C2    C     C_R   0.760682 0.282584 0.373301 -0.111438
C3    C     C_R   0.782620 0.265623 0.328299 0.266710
C4    C     C_R   0.398290 0.381188 0.426584 0.553753
C5    C     C_R   0.806520 0.338339 0.309748 -0.010966
C6    C     C_R   0.816195 0.422743 0.337001 -0.043064
C7    C     C_R   0.794370 0.437538 0.382094 -0.103187
C8    C     C_R   0.785824 0.395923 0.149437 -0.040707
C9    C     C_R   0.813457 0.385499 0.105150 0.024230
C10   C     C_R   0.951062 0.197811 0.116848 -0.132909
C11   C     C_R   0.922137 0.209084 0.160147 -0.102834
C12   C     C_R   0.365129 0.222972 0.227004 -0.126211
C13   C     C_R   0.842057 0.308634 0.176787 0.021947
C14   C     C_1   0.824623 0.321795 0.223100 0.038129
C15   C     C_1   0.815571 0.329622 0.262491 0.048275
C16   C     C_R   0.709427 0.406059 0.442368 0.550577
C17   C     C_R   0.900313 0.286223 0.089518 -0.002050
C18   C     C_R   0.363519 0.771621 0.402392 0.013552
C19   C     C_R   0.447045 0.785288 0.387430 -0.116014
C20   C     C_R   0.435898 0.819743 0.344741 -0.114957
C21   C     C_R   0.340984 0.841773 0.316992 0.031144
C22   C     C_R   0.254119 0.836694 0.332826 -0.074552
C23   C     C_R   0.380835 0.237576 0.273158 -0.090225
C24   C     C_R   0.265073 0.802079 0.375476 -0.121672
C25   C     C_R   0.237335 0.866224 0.157380 0.219433
C26   C     C_R   0.222939 0.884713 0.112177 -0.167784
C27   C     C_R   0.399974 0.880095 0.116031 0.202657
C28   C     C_R   0.389643 0.711682 0.568181 0.546150
C29   C     C_R   0.411182 0.870483 0.163020 -0.035958
C30   C     C_R   0.328750 0.864560 0.183283 -0.047947
C31   C     C_1   0.335302 0.860199 0.231013 0.039700
C32   C     C_1   0.338217 0.854729 0.270574 0.032321
C33   C     C_R   0.299297 0.898963 0.091703 -0.070028
C34   C     C_R   0.306705 0.331136 0.296363 -0.033440
C35   C     C_R   0.364563 0.362726 0.591908 0.018217
C36   C     C_R   0.428543 0.265466 0.613273 -0.120412
C37   C     C_R   0.407345 0.256213 0.656065 -0.108780
C38   C     C_R   0.321908 0.343643 0.677613 0.057693
C39   C     C_R   0.252937 0.437579 0.655401 -0.078551
C40   C     C_R   0.402211 0.383089 0.552381 0.539322
C41   C     C_R   0.273759 0.447020 0.612579 -0.120623
C42   C     C_R   0.211430 0.401232 0.831511 -0.108451
C43   C     C_R   0.204736 0.385835 0.875611 -0.114011
C44   C     C_R   0.391418 0.239158 0.877658 -0.089895
C45   C     C_R   0.276942 0.303089 0.203021 -0.010692
C46   C     C_R   0.397930 0.254992 0.833605 -0.089376
C47   C     C_R   0.306783 0.333506 0.810164 0.042271
C48   C     C_1   0.308985 0.339061 0.763374 -0.020120
C49   C     C_1   0.312794 0.341321 0.724039 -0.005030
C50   C     C_R   0.293226 0.301590 0.898445 0.033406
C51   C     C_1   0.764738 0.375158 0.612147 0.027366
C52   C     C_R   0.713306 0.407633 0.568479 0.547756
C53   C     C_R   0.929639 0.304620 0.718701 0.030919
C54   C     C_R   0.946898 0.290696 0.764966 -0.134360
C55   C     C_R   0.760289 0.326523 0.767657 -0.098936
C56   C     C_1   0.268246 0.282571 0.155186 0.019194
C57   C     C_R   0.741675 0.340537 0.721752 -0.127463
C58   C     C_R   0.824985 0.330520 0.697037 0.044148
C59   C     C_R   0.862648 0.302205 0.789338 0.025218
C60   C     C_1   0.882391 0.291481 0.836896 -0.038660
C61   C     C_1   0.797026 0.352541 0.650365 0.020275
C62   C     C_1   0.907718 0.282058 0.876438 0.003403
C63   C     C_1   0.376018 0.758198 0.613398 -0.012860
C64   C     C_1   0.359413 0.360351 0.382284 0.003686
C65   C     C_R   0.326545 0.913257 0.719127 -0.142896
C66   C     C_R   0.312837 0.939696 0.765143 0.032299
C67   C     C_1   0.332536 0.345780 0.343638 -0.054096
C68   C     C_R   0.363316 0.750798 0.774248 -0.100791
C69   C     C_R   0.376939 0.724618 0.728182 0.032788
C70   C     C_R   0.357567 0.807452 0.700521 -0.006647
C71   C     C_R   0.331039 0.856881 0.792855 0.019734
C72   C     C_1   0.312709 0.879300 0.839924 0.012860
C73   C     C_1   0.366957 0.785251 0.652789 -0.066525
C74   C     C_1   0.292726 0.905430 0.878623 0.040086
C75   C     C_R   0.950291 0.272814 0.047764 0.503376
C76   C     C_R   0.213748 0.411601 0.273267 0.008121
C77   C     C_R   0.254146 0.239891 0.067908 0.548322
C78   C     C_1   0.262367 0.263692 0.115224 0.059090
C79   C     C_R   0.261816 0.952997 0.048873 0.547247
C80   C     C_R   0.952340 0.269221 0.922044 0.546340
C81   C     C_R   0.276093 0.266084 0.939347 0.556919
C82   C     C_R   0.261563 0.951033 0.922879 0.562945
C83   C     C_R   0.200597 0.399698 0.225530 0.227810
C84   C     C_2   0.132540 0.505551 0.299879 0.300955
C85   C     C_2   0.505276 0.871079 0.191956 0.295316
C86   C     C_2   0.022558 0.292465 0.695269 0.220509
C87   C     C_2   0.278724 0.054649 0.781908 0.215225
C88   C     C_2   0.410165 0.611171 0.709443 0.215338
C89   C     C_R   0.761709 0.371098 0.399827 -0.054616
C90   C     C_2   0.749975 0.476535 0.075627 0.276486
C91   C     C_2   0.843800 0.498980 0.318417 0.265803
Cr1   Cr    Cr6+3 0.581000 0.584320 0.508140 1.040408
Cr2   Cr    Cr6+3 0.339110 0.576430 0.496080 1.039986
Cr3   Cr    Cr6+3 0.579910 0.339270 0.495810 1.045962
Cr4   Cr    Cr6+3 0.082090 0.079210 0.982490 1.038658
Cr5   Cr    Cr6+3 0.082460 0.324610 0.994920 1.076800
Cr6   Cr    Cr6+3 0.323630 0.087860 0.996130 1.141156
H1    H     H_    0.965637 0.141395 0.181309 0.176912
H2    H     H_    0.186661 0.505560 0.672039 0.125800
H3    H     H_    0.222944 0.522910 0.596971 0.136074
H4    H     H_    0.498799 0.199136 0.598155 0.137428
H5    H     H_    0.472227 0.202663 0.817172 0.114094
H6    H     H_    0.460859 0.173747 0.894371 0.140882
H7    H     H_    0.460970 0.183179 0.673227 0.111311
H8    H     H_    0.423668 0.149439 0.209720 0.190742
H9    H     H_    0.026107 0.271822 0.782284 0.120372
H10   H     H_    0.694628 0.335846 0.786267 0.136990
H11   H     H_    0.661226 0.360854 0.705511 0.140780
H12   H     H_    0.017907 0.121089 0.105613 0.132486
H13   H     H_    0.312037 0.975830 0.697429 0.110428
H14   H     H_    0.376609 0.688539 0.795854 0.161044
H15   H     H_    0.451996 0.175866 0.290840 0.175009
H16   H     H_    0.722343 0.472163 0.162997 0.168650
H17   H     H_    0.796494 0.505158 0.402770 0.189473
H18   H     H_    0.735790 0.230786 0.386826 0.178428
H19   H     H_    0.159419 0.539887 0.329911 0.108619
H20   H     H_    0.863645 0.038845 0.243730 0.403859
H21   H     H_    0.988105 0.941110 0.139296 0.337786
H22   H     H_    0.537454 0.823858 0.221279 0.110375
H23   H     H_    0.148174 0.894079 0.093399 0.177577
H24   H     H_    0.502714 0.739057 0.037731 0.346069
H25   H     H_    0.186222 0.523159 0.146548 0.359552
H26   H     H_    0.099388 0.276219 0.714323 0.090330
H27   H     H_    0.264585 0.113862 0.758500 0.087896
H28   H     H_    0.421098 0.589262 0.673977 0.111237
H29   H     H_    0.768879 0.469083 0.041171 0.128174
H30   H     H_    0.862319 0.488252 0.283703 0.161988
H31   H     H_    0.180493 0.853397 0.311285 0.193919
H32   H     H_    0.199283 0.792715 0.386147 0.152813
H33   H     H_    0.523713 0.762760 0.407455 0.145737
H34   H     H_    0.503547 0.823214 0.332489 0.136116
H35   H     H_    0.127914 0.435093 0.890656 0.138716
H36   H     H_    0.140738 0.462478 0.813460 0.116262
O1    O     O_R   0.688580 0.499770 0.460490 -0.511591
O2    O     O_R   0.346150 0.177650 0.050510 -0.463865
O3    O     O_R   0.314200 0.996600 0.036060 -0.439974
O4    O     O_R   0.480400 0.672610 0.462660 -0.501651
O5    O     O_R   0.168690 0.969990 0.933130 -0.505258
O6    O     O_R   0.991920 0.175870 0.937430 -0.487875
O7    O     O_R   0.974010 0.342590 0.941330 -0.506505
O8    O     O_R   0.182630 0.317940 0.955040 -0.499556
O9    O     O_R   0.347320 0.174720 0.953250 -0.497883
O10   O     O_R   0.315290 0.993890 0.945900 -0.466904
O11   O     O_3   0.162730 0.163890 0.991180 -0.294688
O12   O     O_R   0.348600 0.476260 0.536540 -0.503753
O13   O     O_R   0.315310 0.685650 0.451800 -0.509121
O14   O     O_R   0.346220 0.474990 0.446280 -0.494141
O15   O     O_R   0.492270 0.312460 0.441630 -0.496724
O16   O     O_R   0.669740 0.350480 0.455640 -0.496650
O17   O     O_R   0.691150 0.501150 0.557860 -0.497769
O18   O     O_R   0.482790 0.673890 0.552920 -0.493420
O19   O     O_R   0.317880 0.687030 0.549170 -0.506313
O20   O     O_2   0.034709 0.541815 0.289993 -0.401615
O21   O     O_2   0.762628 0.083153 0.323948 -0.260873
O22   O     O_2   0.670547 0.205785 0.263189 -0.276807
O23   O     O_R   0.494840 0.313840 0.539010 -0.513986
O24   O     O_3   0.881541 0.087749 0.265461 -0.481245
O25   O     O_2   0.186989 0.743903 0.200941 -0.207547
O26   O     O_2   0.089739 0.939976 0.218643 -0.292165
O27   O     O_3   0.033864 0.862279 0.143090 -0.457020
O28   O     O_2   0.544144 0.928348 0.184698 -0.417917
O29   O     O_2   0.513297 0.964987 0.086197 -0.194727
O30   O     O_2   0.619738 0.780917 0.111045 -0.162607
O31   O     O_3   0.506535 0.806364 0.034588 -0.497752
O32   O     O_2   0.993249 0.491001 0.190365 -0.214469
O33   O     O_2   0.066956 0.615518 0.217098 -0.160677
O34   O     O_R   0.672120 0.351750 0.545910 -0.496973
O35   O     O_3   0.126434 0.503555 0.142097 -0.476575
O36   O     O_2   0.015639 0.299700 0.654896 -0.496928
O37   O     O_2   0.266300 0.085222 0.821429 -0.514512
O38   O     O_2   0.425856 0.540272 0.733490 -0.529629
O39   O     O_2   0.673356 0.560644 0.089160 -0.467043
O40   O     O_2   0.846114 0.575234 0.341736 -0.457086
O41   O     O_3   0.500010 0.500010 0.500010 -0.253421
O42   O     O_R   0.167510 0.972920 0.030390 -0.526524
O43   O     O_R   0.990840 0.178580 0.027590 -0.505098
O44   O     O_R   0.972840 0.345510 0.038590 -0.499146
O45   O     O_R   0.181550 0.320660 0.045200 -0.462059
S1    S     S_3+6 0.771129 0.158250 0.295038 0.030363
S2    S     S_3+6 0.135694 0.852817 0.181517 0.036081
S3    S     S_3+6 0.513791 0.858367 0.087456 0.110689
S4    S     S_3+6 0.093366 0.505701 0.194100 0.099523

loop_
_geom_bond_atom_site_label_1
_geom_bond_atom_site_label_2
_ccdc_geom_bond_type
C8    C13   A    
C55   C59   A    
C27   C29   A    
C86   O36   D    
C85   O28   D    
H21   O27   S    
C35   C36   A    
O33   S4    D    
O26   S2    D    
C16   O1    A    
C76   C84   S    
C25   S2    S    
C39   C41   A    
C38   C49   S    
C77   C78   S    
C27   C33   A    
Cr3   O16   S    
C79   O3    A    
C46   H5    S    
C12   C23   A    
C1    C18   S    
C37   C38   A    
C91   H30   S    
C40   O12   A    
C42   H36   S    
C18   C24   A    
O32   S4    D    
C7    H17   S    
C62   C80   S    
C36   C37   A    
C26   H23   S    
C52   O34   A    
C5    C6    A    
O30   S3    D    
C10   C17   A    
C6    C91   S    
C4    O15   A    
Cr2   O41   S    
C11   C13   A    
C56   C78   T    
C91   O40   D    
C10   H12   S    
C60   C62   T    
C18   C19   A    
O24   S1    S    
Cr2   O14   S    
C85   H22   S    
Cr4   O42   S    
Cr6   O10   S    
C3    S1    S    
O31   S3    S    
Cr5   O8    S    
C39   H2    S    
C24   H32   S    
O27   S2    S    
C47   C48   S    
C45   C56   S    
O22   S1    D    
C8    C9    A    
C51   C61   T    
Cr2   O12   S    
C16   O16   A    
C13   C14   S    
Cr5   O44   S    
C29   C30   A    
C29   C85   S    
Cr3   O23   S    
C58   C61   S    
C81   O8    A    
Cr4   O11   S    
C84   H19   S    
C88   O38   D    
O21   S1    D    
C1    O13   A    
C45   C83   A    
C74   C82   S    
C35   C41   A    
Cr1   O4    S    
C76   C83   A    
C44   H6    S    
C44   C46   A    
C16   C89   S    
C54   C59   A    
Cr3   O15   S    
C38   C39   A    
C65   H13   S    
C21   C32   S    
Cr1   O1    S    
C84   O20   D    
H25   O35   S    
C54   H9    S    
H20   O24   S    
C51   C52   S    
C64   C67   T    
C79   O42   A    
O29   S3    D    
C72   C74   T    
C66   C87   S    
C68   C69   A    
C63   C73   T    
Cr1   O41   S    
C25   C26   A    
C53   C54   A    
C4    O14   A    
C83   S4    S    
C55   H10   S    
C36   H4    S    
C68   H14   S    
Cr3   O34   S    
C2    C89   A    
Cr4   O43   S    
C27   S3    S    
Cr6   O11   S    
C88   H28   S    
C23   H15   S    
Cr5   O11   S    
C2    H18   S    
C26   C33   A    
C22   H31   S    
C31   C32   T    
C30   C31   S    
C23   C34   A    
Cr1   O18   S    
C90   H29   S    
C41   H3    S    
Cr2   O13   S    
C53   C86   S    
C69   C88   S    
C66   C71   A    
Cr3   O41   S    
C8    H16   S    
C9    C17   A    
C48   C49   T    
C28   O19   A    
O35   S4    S    
C11   H1    S    
Cr1   O17   S    
C9    C90   S    
C22   C24   A    
C42   C43   A    
Cr6   O2    S    
C20   H34   S    
C1    O4    A    
C44   C50   A    
C25   C30   A    
C46   C47   A    
C81   O9    A    
Cr4   O5    S    
C75   O43   A    
C33   C79   S    
C82   O10   A    
C3    C5    A    
C34   C67   S    
Cr5   O7    S    
C37   H7    S    
C53   C58   A    
C43   C50   A    
C6    C7    A    
C12   C45   A    
C80   O6    A    
C4    C64   S    
Cr4   O6    S    
C77   O45   A    
C70   C73   S    
H24   O31   S    
O25   S2    D    
C19   C20   A    
C55   C57   A    
C2    C3    A    
C71   C72   S    
C82   O5    A    
C80   O7    A    
C87   O37   D    
C57   C58   A    
C12   H8    S    
C19   H33   S    
C68   C71   A    
C43   H35   S    
C35   C40   S    
C42   C47   A    
C69   C70   A    
C75   O44   A    
Cr6   O9    S    
C5    C15   S    
C10   C11   A    
C28   C63   S    
C59   C60   S    
C57   H11   S    
C87   H27   S    
C20   C21   A    
C28   O18   A    
C52   O17   A    
C65   C66   A    
C90   O39   D    
C86   H26   S    
C17   C75   S    
C14   C15   T    
C40   O23   A    
Cr2   O19   S    
C77   O2    A    
Cr6   O3    S    
Cr5   O45   S    
C21   C22   A    
C65   C70   A    
C50   C81   S    
C34   C76   A    
C7    C89   A    
