data_mof_unit_5772.cif
_audit_creation_date              2012-12-10T16:51:27-0500
_audit_creation_method            fapswitch 2.2
_symmetry_space_group_name_H-M    P1
_symmetry_Int_Tables_number       1
_space_group_crystal_system       triclinic
_cell_length_a                    7.829654
_cell_length_b                    8.570982
_cell_length_c                    12.099789
_cell_angle_alpha                 92.275896
_cell_angle_beta                  101.256192
_cell_angle_gamma                 94.187222
_cell_volume                      793.035891864

loop_
_atom_site_label
_atom_site_type_symbol
_atom_type_description
_atom_site_fract_x
_atom_site_fract_y
_atom_site_fract_z
_atom_type_partial_charge
C1    C     C_R   0.044681 0.794740 0.497362 0.980479
C2    C     C_R   0.158766 0.502642 0.832278 -0.119081
C3    C     C_2   0.067994 0.958507 0.496070 -0.382381
C4    C     C_R   0.106062 0.503765 0.710376 0.850088
C5    C     C_2   0.932429 0.041592 0.504795 -0.363305
C6    C     C_R   0.955462 0.205288 0.502934 0.944797
C7    C     C_R   0.892390 0.488519 0.289667 0.941363
C8    C     C_R   0.803842 0.276912 0.007307 -0.170656
C9    C     C_R   0.829878 0.455282 0.170154 -0.182646
C10   C     C_R   0.071579 0.590855 0.900712 -0.182004
C11   C     C_R   0.140103 0.615580 0.015319 -0.155556
C12   C     C_R   0.394461 0.479789 0.990737 0.095014
C13   C     C_R   0.301416 0.562402 0.060322 -0.103502
C14   C     C_R   0.309560 0.431020 0.880271 0.070329
C15   C     C_R   0.567602 0.441154 0.027561 -0.050508
C16   C     C_R   0.637406 0.325626 0.965612 0.098531
C17   C     C_R   0.539291 0.259730 0.863789 -0.200037
C18   C     C_R   0.378208 0.313633 0.820433 -0.196290
C19   C     C_R   0.675640 0.517171 0.122566 0.524289
C20   C     C_R   0.897334 0.337568 0.111882 -0.276019
F1    F     F_    0.635285 0.652790 0.169930 -0.687991
H1    H     H_    0.017992 0.288987 0.148879 0.182586
H2    H     H_    0.306178 0.260047 0.740863 0.165454
H3    H     H_    0.195704 0.010102 0.487837 0.178394
H4    H     H_    0.804758 0.990016 0.513118 0.182404
H5    H     H_    0.469628 0.375168 0.416312 0.189523
H6    H     H_    0.530364 0.624811 0.583698 0.190300
H7    H     H_    0.588905 0.169510 0.816285 0.144918
H8    H     H_    0.857447 0.187132 0.961847 0.152388
H9    H     H_    0.952828 0.643531 0.865219 0.162546
H10   H     H_    0.347899 0.582040 0.150192 0.203055
H11   H     H_    0.070931 0.680389 0.068756 0.161361
N1    N     N_2   0.434800 0.456690 0.470850 -0.167196
N2    N     N_2   0.565200 0.543310 0.529150 -0.163850
O1    O     O_R   0.893060 0.738880 0.507150 -0.602241
O2    O     O_R   0.172250 0.711130 0.488470 -0.623252
O3    O     O_R   0.944700 0.520730 0.667600 -0.617402
O4    O     O_R   0.223890 0.492980 0.648920 -0.619222
O5    O     O_R   0.827750 0.288870 0.511530 -0.630689
O6    O     O_R   0.106940 0.261120 0.492850 -0.620091
O7    O     O_R   0.776110 0.507020 0.351080 -0.573869
O8    O     O_R   0.055300 0.479270 0.332400 -0.630352
Zn1   Zn    Zn3+2 0.813580 0.518530 0.512470 0.962110
Zn2   Zn    Zn3+2 0.186420 0.481470 0.487530 0.938213

loop_
_geom_bond_atom_site_label_1
_geom_bond_atom_site_label_2
_ccdc_geom_bond_type
O3    Zn1   S    
C2    C4    S    
O4    Zn2   S    
O1    Zn1   S    
C10   H9    S    
C9    C20   A    
C12   C15   A    
O6    Zn2   S    
C17   H7    S    
N1    N2    D    
C8    C16   A    
C12   C13   A    
C15   C19   A    
C13   H10   S    
O7    Zn1   S    
C3    H3    S    
C8    C20   A    
O8    Zn2   S    
C5    H4    S    
C8    H8    S    
C19   F1    S    
C12   C14   A    
C11   H11   S    
C17   C18   A    
C7    O7    A    
H6    N2    S    
C5    C6    S    
C2    C14   A    
C6    O6    A    
O2    Zn2   S    
C10   C11   A    
C15   C16   A    
C2    C10   A    
C11   C13   A    
C4    O3    A    
C1    O1    A    
C7    O8    A    
C7    C9    S    
C14   C18   A    
C6    O5    A    
O5    Zn1   S    
H5    N1    S    
C3    C5    D    
C4    O4    A    
N1    Zn2   S    
C9    C19   A    
N2    Zn1   S    
C18   H2    S    
C1    O2    A    
C20   H1    S    
C16   C17   A    
C1    C3    S    
