data_mof_unit_19091.cif
_audit_creation_date              2012-12-11T14:17:43-0500
_audit_creation_method            fapswitch 2.2
_symmetry_space_group_name_H-M    P1
_symmetry_Int_Tables_number       1
_space_group_crystal_system       triclinic
_cell_length_a                    11.006175
_cell_length_b                    11.006178
_cell_length_c                    18.874204
_cell_angle_alpha                 90.000021
_cell_angle_beta                  89.999932
_cell_angle_gamma                 120.000182
_cell_volume                      1980.02843027

loop_
_atom_site_label
_atom_site_type_symbol
_atom_type_description
_atom_site_fract_x
_atom_site_fract_y
_atom_site_fract_z
_atom_type_partial_charge
C1    C     C_R   0.520966 0.454194 0.145596 0.533184
C2    C     C_R   0.545806 0.066772 0.145596 0.533184
C3    C     C_R   0.933228 0.479034 0.145596 0.533183
C4    C     C_R   0.459863 0.519866 0.852485 0.544984
C5    C     C_R   0.060003 0.540137 0.852485 0.544984
C6    C     C_R   0.480134 0.939997 0.852485 0.544984
C7    C     C_R   0.391281 0.955112 0.458080 -0.152451
C8    C     C_R   0.044880 0.436162 0.458081 -0.152448
C9    C     C_R   0.563832 0.608718 0.458080 -0.152451
C10   C     C_R   0.064127 0.441735 0.530867 -0.140570
C11   C     C_R   0.377608 0.935865 0.530866 -0.140571
C12   C     C_R   0.558259 0.622392 0.530867 -0.140571
C13   C     C_R   0.753701 0.120022 0.586770 -0.083139
C14   C     C_R   0.879975 0.633676 0.586772 -0.083139
C15   C     C_R   0.366326 0.246299 0.586772 -0.083141
C16   C     C_R   0.948444 0.717445 0.447096 -0.087732
C17   C     C_R   0.768998 0.051548 0.447094 -0.087731
C18   C     C_R   0.282556 0.230998 0.447096 -0.087730
C19   C     C_R   0.878370 0.135598 0.560814 -0.116429
C20   C     C_R   0.864394 0.742766 0.560816 -0.116428
C21   C     C_R   0.257237 0.121628 0.560817 -0.116427
C22   C     C_R   0.898427 0.784158 0.490942 -0.146121
C23   C     C_R   0.885728 0.101563 0.490940 -0.146123
C24   C     C_R   0.215843 0.114267 0.490943 -0.146121
C25   C     C_R   0.516220 0.454246 0.354392 0.545461
C26   C     C_R   0.545753 0.061973 0.354392 0.545461
C27   C     C_R   0.938026 0.483780 0.354392 0.545461
C28   C     C_R   0.457575 0.519478 0.646320 0.528686
C29   C     C_R   0.061902 0.542424 0.646319 0.528685
C30   C     C_R   0.480522 0.938097 0.646319 0.528685
C31   C     C_R   0.497399 0.005129 0.922699 -0.004077
C32   C     C_R   0.994872 0.492270 0.922699 -0.004076
C33   C     C_R   0.507729 0.502602 0.922699 -0.004076
C34   C     C_R   0.972043 0.492328 0.070720 0.005392
C35   C     C_R   0.520285 0.027956 0.070720 0.005391
C36   C     C_R   0.507672 0.479715 0.070720 0.005392
C37   C     C_R   0.379078 0.981982 0.964259 0.029088
C38   C     C_R   0.018019 0.397096 0.964259 0.029088
C39   C     C_R   0.602904 0.620923 0.964259 0.029088
C40   C     C_R   0.020955 0.408702 0.039072 0.017292
C41   C     C_R   0.387748 0.979045 0.039072 0.017292
C42   C     C_R   0.591298 0.612253 0.039072 0.017291
C43   C     C_R   0.639589 0.073311 0.027678 -0.134326
C44   C     C_R   0.926688 0.566277 0.027678 -0.134327
C45   C     C_R   0.433722 0.360411 0.027678 -0.134326
C46   C     C_R   0.941283 0.569133 0.955062 -0.147339
C47   C     C_R   0.627851 0.058717 0.955062 -0.147340
C48   C     C_R   0.430866 0.372150 0.955062 -0.147340
C49   C     C_R   0.252106 0.960509 0.934187 -0.087114
C50   C     C_R   0.039493 0.291598 0.934187 -0.087114
C51   C     C_R   0.708403 0.747895 0.934186 -0.087114
C52   C     C_R   0.070273 0.334389 0.079872 -0.098532
C53   C     C_R   0.264116 0.929726 0.079872 -0.098532
C54   C     C_R   0.665612 0.735884 0.079872 -0.098533
C55   C     C_R   0.133144 0.917415 0.975656 -0.135921
C56   C     C_R   0.082587 0.215730 0.975656 -0.135921
C57   C     C_R   0.784271 0.866857 0.975656 -0.135922
C58   C     C_R   0.099568 0.237945 0.048199 -0.128711
C59   C     C_R   0.138376 0.900431 0.048199 -0.128710
C60   C     C_R   0.762057 0.861624 0.048199 -0.128711
C61   C     C_R   0.497150 0.992527 0.574722 -0.003834
C62   C     C_R   0.007468 0.504619 0.574723 -0.003836
C63   C     C_R   0.495379 0.502850 0.574723 -0.003834
C64   C     C_R   0.990688 0.513849 0.427432 0.002456
C65   C     C_R   0.523159 0.009308 0.427431 0.002456
C66   C     C_R   0.486150 0.476839 0.427432 0.002457
C67   C     C_R   0.631220 0.057290 0.544479 0.024343
C68   C     C_R   0.942707 0.573929 0.544481 0.024343
C69   C     C_R   0.426073 0.368779 0.544481 0.024344
C70   C     C_R   0.959967 0.601592 0.471611 0.040934
C71   C     C_R   0.641623 0.040029 0.471610 0.040937
C72   C     C_R   0.398408 0.358374 0.471612 0.040936
Cr1   Cr    Cr6+3 0.768550 0.541320 0.250660 0.998030
Cr2   Cr    Cr6+3 0.458680 0.227230 0.250660 0.998030
Cr3   Cr    Cr6+3 0.772770 0.231450 0.250660 0.998030
Cr4   Cr    Cr6+3 0.541320 0.768550 0.749340 0.994172
Cr5   Cr    Cr6+3 0.227230 0.458680 0.749340 0.994173
Cr6   Cr    Cr6+3 0.231450 0.772770 0.749340 0.994172
H1    H     H_    0.743976 0.120746 0.050138 0.151956
H2    H     H_    0.879252 0.623227 0.050138 0.151955
H3    H     H_    0.376771 0.256025 0.050138 0.151955
H4    H     H_    0.915358 0.636109 0.924247 0.129236
H5    H     H_    0.720751 0.084641 0.924247 0.129236
H6    H     H_    0.363890 0.279249 0.924247 0.129235
H7    H     H_    0.243437 0.982021 0.879223 0.131039
H8    H     H_    0.017982 0.261417 0.879224 0.131041
H9    H     H_    0.738583 0.756565 0.879223 0.131041
H10   H     H_    0.087942 0.350644 0.136264 0.129426
H11   H     H_    0.262701 0.912055 0.136263 0.129425
H12   H     H_    0.649357 0.737299 0.136263 0.129425
H13   H     H_    0.750909 0.148155 0.641501 0.118813
H14   H     H_    0.851843 0.602751 0.641503 0.118811
H15   H     H_    0.397251 0.249094 0.641503 0.118812
H16   H     H_    0.985764 0.765302 0.395889 0.133618
H17   H     H_    0.779532 0.014227 0.395888 0.133617
H18   H     H_    0.234698 0.220460 0.395890 0.133618
H19   H     H_    0.968802 0.172726 0.595153 0.120348
H20   H     H_    0.827265 0.796068 0.595155 0.120351
H21   H     H_    0.203935 0.031197 0.595156 0.120351
H22   H     H_    0.885715 0.867919 0.470048 0.101596
H23   H     H_    0.982200 0.114271 0.470046 0.101592
H24   H     H_    0.132083 0.017793 0.470049 0.101595
O1    O     O_R   0.910960 0.572410 0.171010 -0.529590
O2    O     O_R   0.427590 0.338550 0.171010 -0.529590
O3    O     O_R   0.661450 0.089040 0.171010 -0.529590
O4    O     O_R   0.572410 0.910960 0.828990 -0.520310
O5    O     O_R   0.338550 0.427590 0.828990 -0.520311
O6    O     O_R   0.089040 0.661450 0.828990 -0.520310
O7    O     O_R   0.639750 0.528530 0.175600 -0.513667
O8    O     O_R   0.471470 0.111220 0.175600 -0.513667
O9    O     O_R   0.888780 0.360250 0.175600 -0.513667
O10   O     O_R   0.528530 0.639750 0.824400 -0.512776
O11   O     O_R   0.111220 0.471470 0.824400 -0.512776
O12   O     O_R   0.360250 0.888780 0.824400 -0.512775
O13   O     O_R   0.909330 0.572400 0.331540 -0.536929
O14   O     O_R   0.427600 0.336930 0.331540 -0.536930
O15   O     O_R   0.663070 0.090670 0.331540 -0.536929
O16   O     O_R   0.572400 0.909330 0.668460 -0.528234
O17   O     O_R   0.336930 0.427600 0.668460 -0.528233
O18   O     O_R   0.090670 0.663070 0.668460 -0.528233
O19   O     O_R   0.638240 0.528520 0.324410 -0.494954
O20   O     O_R   0.471480 0.109720 0.324410 -0.494955
O21   O     O_R   0.890280 0.361760 0.324410 -0.494954
O22   O     O_R   0.528520 0.638240 0.675590 -0.512468
O23   O     O_R   0.109720 0.471480 0.675590 -0.512467
O24   O     O_R   0.361760 0.890280 0.675590 -0.512467
O25   O     O_3   0.666667 0.333333 0.250630 -0.237659
O26   O     O_3   0.333333 0.666667 0.749370 -0.231806
H25   H     H_    0.036458 0.896657 0.950879 0.101731
H26   H     H_    0.103345 0.139801 0.950879 0.101730
H27   H     H_    0.860200 0.963544 0.950878 0.101731
H28   H     H_    0.133828 0.179061 0.080182 0.119657
H29   H     H_    0.045233 0.866171 0.080182 0.119657
H30   H     H_    0.820941 0.954768 0.080181 0.119657
H31   H     H_    0.299100 0.923772 0.425624 0.119993
H32   H     H_    0.076218 0.375319 0.425625 0.119996
H33   H     H_    0.624670 0.700899 0.425624 0.119993
H34   H     H_    0.124691 0.397692 0.552722 0.150275
H35   H     H_    0.273001 0.875299 0.552722 0.150276
H36   H     H_    0.602297 0.726998 0.552722 0.150277

loop_
_geom_bond_atom_site_label_1
_geom_bond_atom_site_label_2
_ccdc_geom_bond_type
C2    C35   S    
C39   C51   A    
C30   O24   A    
C29   O23   A    
C8    H32   S    
C18   H18   S    
C36   C42   A    
Cr3   O15   S    
C26   O15   A    
Cr6   O26   S    
C53   C59   A    
C54   C60   A    
C7    C11   A    
C17   C23   A    
C34   C40   A    
C54   H12   S    
C55   C59   A    
C32   C38   A    
C21   H21   S    
C4    C33   S    
C43   H1    S    
Cr6   O6    S    
C11   H35   S    
C9    C66   A    
C6    O12   A    
C1    O7    A    
C46   H4    S    
C9    H33   S    
C66   C72   A    
C63   C69   A    
C58   H28   S    
C55   H25   S    
Cr1   O1    S    
C16   C22   A    
C12   H36   S    
C51   C57   A    
C64   C70   A    
C35   C43   A    
C24   H24   S    
C5    C32   S    
C6    C31   S    
C4    O10   A    
C31   C47   A    
C13   H13   S    
C18   C72   A    
Cr3   O9    S    
C10   C62   A    
Cr5   O11   S    
C29   O18   A    
C44   C46   A    
C39   C42   A    
C19   H19   S    
C15   C69   A    
C4    O5    A    
C22   H22   S    
C13   C19   A    
Cr4   O22   S    
C14   C20   A    
Cr5   O5    S    
C16   C70   A    
C18   C24   A    
C25   O14   A    
C51   H9    S    
C12   C63   A    
C27   O21   A    
C19   C23   A    
C57   C60   A    
C30   O16   A    
C3    C34   S    
Cr5   O17   S    
Cr1   O25   S    
C59   H29   S    
Cr4   O16   S    
C31   C37   A    
C69   C72   A    
Cr6   O18   S    
C7    H31   S    
C49   H7    S    
C7    C65   A    
C37   C49   A    
C61   C67   A    
Cr2   O25   S    
C44   H2    S    
Cr4   O10   S    
Cr2   O14   S    
C6    O4    A    
C34   C44   A    
C36   C45   A    
C33   C39   A    
C1    O2    A    
C14   H14   S    
Cr5   O26   S    
C52   C58   A    
C8    C64   A    
C17   H17   S    
C68   C70   A    
Cr2   O20   S    
C20   C22   A    
C17   C71   A    
Cr1   O19   S    
C53   H11   S    
Cr4   O26   S    
Cr3   O21   S    
C21   C24   A    
C15   H15   S    
Cr6   O24   S    
C60   H30   S    
Cr5   O23   S    
Cr2   O2    S    
C13   C67   A    
C45   C48   A    
C3    O1    A    
C29   C62   S    
Cr6   O12   S    
Cr4   O4    S    
C5    O11   A    
C26   C65   S    
C32   C46   A    
C57   H27   S    
C45   H3    S    
C25   C66   S    
C11   C61   A    
C28   O17   A    
Cr2   O8    S    
C28   O22   A    
Cr1   O7    S    
C38   C50   A    
C10   H34   S    
C2    O3    A    
C16   H16   S    
Cr1   O13   S    
C62   C68   A    
C40   C52   A    
C42   C54   A    
C38   C40   A    
Cr3   O25   S    
C23   H23   S    
C15   C21   A    
C43   C47   A    
C52   H10   S    
C56   C58   A    
C67   C71   A    
C49   C55   A    
C37   C41   A    
C35   C41   A    
C9    C12   A    
C50   C56   A    
C27   C64   S    
C50   H8    S    
C3    O9    A    
C47   H5    S    
C41   C53   A    
C28   C63   S    
C48   H6    S    
C65   C71   A    
C20   H20   S    
C8    C10   A    
C30   C61   S    
C33   C48   A    
C14   C68   A    
C26   O20   A    
Cr3   O3    S    
C25   O19   A    
C56   H26   S    
C1    C36   S    
C27   O13   A    
C5    O6    A    
C2    O8    A    
