data_mof_unit_41086.cif
_audit_creation_date              2012-12-11T21:14:49-0500
_audit_creation_method            fapswitch 2.2
_symmetry_space_group_name_H-M    P1
_symmetry_Int_Tables_number       1
_space_group_crystal_system       triclinic
_cell_length_a                    8.308901
_cell_length_b                    19.091251
_cell_length_c                    26.84221
_cell_angle_alpha                 101.101437
_cell_angle_beta                  92.821788
_cell_angle_gamma                 87.215231
_cell_volume                      4169.84378852

loop_
_atom_site_label
_atom_site_type_symbol
_atom_type_description
_atom_site_fract_x
_atom_site_fract_y
_atom_site_fract_z
_atom_type_partial_charge
Ba1   Ba    Ba6+2 0.160810 0.465630 0.521640 1.741672
Ba2   Ba    Ba6+2 0.649380 0.534380 0.478400 1.754105
C1    C     C_3   0.436447 0.299979 0.703879 0.185166
C2    C     C_R   0.092776 0.091309 0.456931 0.025091
C3    C     C_R   0.245946 0.065503 0.439381 -0.032086
C4    C     C_3   0.993654 0.280935 0.622822 0.431860
C5    C     C_R   0.303549 0.996749 0.442690 -0.140605
C6    C     C_R   0.208839 0.951059 0.462642 0.024599
C7    C     C_R   0.057759 0.975803 0.481704 0.050547
C8    C     C_R   0.262887 0.880674 0.462721 -0.029770
C9    C     C_R   0.165464 0.831851 0.479242 0.073838
C10   C     C_R   0.015628 0.856540 0.500842 -0.030525
C11   C     C_R   0.962720 0.929148 0.501794 0.022700
C12   C     C_3   0.452975 0.315361 0.650393 0.575035
C13   C     C_R   0.214361 0.759023 0.474321 0.045789
C14   C     C_R   0.115691 0.711891 0.491272 -0.333855
C15   C     C_R   0.975915 0.735143 0.517840 0.025754
C16   C     C_3   0.037783 0.209031 0.638336 0.586474
C17   C     C_R   0.923297 0.810138 0.523382 -0.112959
C18   C     C_R   0.852862 0.073054 0.500039 0.043368
C19   C     C_R   0.798201 0.145209 0.499939 -0.002466
C20   C     C_R   0.888669 0.190992 0.476356 -0.067400
C21   C     C_R   0.028105 0.159036 0.449958 0.380584
C22   C     C_R   0.785880 0.842309 0.550552 0.441338
C23   C     C_3   0.469345 0.312433 0.393176 0.548140
C24   C     C_R   0.719944 0.910285 0.543850 -0.051984
C25   C     C_R   0.813354 0.955008 0.521608 -0.081596
C26   C     C_R   0.759079 0.026818 0.520775 0.053392
C27   C     C_R   0.565241 0.937055 0.560725 0.443364
C28   C     C_3   0.876064 0.639020 0.642915 0.691079
C29   C     C_R   0.513582 0.007037 0.559641 -0.088628
C30   C     C_R   0.609949 0.052375 0.540715 -0.014108
C31   C     C_R   0.649065 0.170202 0.521996 -0.000875
C32   C     C_R   0.556035 0.122684 0.541091 -0.061003
C33   C     C_R   0.595554 0.241887 0.524367 0.065254
C34   C     C_3   0.520362 0.235412 0.369973 0.623064
C35   C     C_R   0.690582 0.288424 0.505739 -0.232442
C36   C     C_R   0.833039 0.265250 0.480824 0.067264
C37   C     C_R   0.290609 0.442145 0.169443 0.601985
C38   C     C_R   0.173523 0.560711 0.175892 0.699502
C39   C     C_2   0.030930 0.517234 0.267959 -0.067264
C40   C     C_3   0.008482 0.644138 0.685474 0.280923
C41   C     C_3   0.000436 0.516016 0.323071 -0.050791
C42   C     C_1   0.284915 0.490377 0.335269 0.074180
C43   C     C_2   0.316880 0.489182 0.287303 -0.033924
C44   C     C_2   0.182178 0.502961 0.250495 0.231358
C45   C     C_3   0.845393 0.717880 0.375666 0.373613
C46   C     C_R   0.299429 0.502774 0.097453 -0.138949
C47   C     C_R   0.333277 0.441751 0.119218 -0.018318
C48   C     C_R   0.405653 0.380785 0.089861 -0.028086
C49   C     C_R   0.216513 0.562721 0.125651 -0.051387
C50   C     C_2   0.155212 0.524915 0.355043 -0.201653
C51   C     C_2   0.656664 0.479498 0.638674 -0.184705
C52   C     C_3   0.929640 0.367712 0.360811 0.642115
C53   C     C_R   0.501268 0.447779 0.972518 -0.028389
C54   C     C_R   0.338789 0.559237 0.971989 0.055877
C55   C     C_R   0.440810 0.502815 0.946912 0.020249
C56   C     C_3   0.818453 0.790278 0.360172 -0.268463
C57   C     C_R   0.625262 0.400087 0.949322 0.344986
C58   C     C_R   0.663018 0.398960 0.899106 -0.027451
C59   C     C_R   0.591251 0.448389 0.871620 -0.085896
C60   C     C_R   0.484552 0.502049 0.896047 -0.082903
C61   C     C_R   0.422939 0.555380 0.869834 -0.029757
C62   C     C_R   0.468789 0.554348 0.819721 0.615145
C63   C     C_R   0.629894 0.446894 0.820788 0.592928
C64   C     C_3   0.821794 0.354753 0.312245 -0.311681
C65   C     C_2   0.764651 0.486065 0.727981 -0.019288
C66   C     C_3   0.805441 0.486190 0.673673 -0.037707
C67   C     C_3   0.308683 0.728199 0.353182 0.594395
C68   C     C_1   0.521167 0.511303 0.656181 0.078205
C69   C     C_2   0.481704 0.510586 0.703344 -0.097157
C70   C     C_2   0.609868 0.497943 0.742613 0.203075
C71   C     C_R   0.438143 0.444108 0.020387 0.053737
C72   C     C_R   0.347507 0.503230 0.047179 0.054637
C73   C     C_R   0.302918 0.562112 0.023800 -0.007117
C74   C     C_R   0.453486 0.381520 0.041065 -0.018687
C75   C     C_R   0.180583 0.623179 0.103190 0.451298
C76   C     C_3   0.312806 0.684549 0.595090 0.389076
C77   C     C_R   0.275420 0.610802 0.944097 -0.084077
C78   C     C_3   0.354767 0.727496 0.298180 0.667687
C79   C     C_R   0.317201 0.608984 0.894291 -0.037896
C80   C     C_R   0.223572 0.622048 0.053039 -0.150295
C81   C     C_3   0.249450 0.758601 0.620431 0.286555
C82   C     C_R   0.001867 0.047149 0.480202 -0.019668
Cl1   Cl    Cl    0.000076 0.726576 0.730608 -0.489430
Cl2   Cl    Cl    0.875315 0.177281 0.667833 -0.614303
Cl3   Cl    Cl    0.473348 0.649590 0.273969 -0.620789
Cl4   Cl    Cl    0.104724 0.190588 0.398598 -0.634067
Cl5   Cl    Cl    0.733641 0.815618 0.606637 -0.447454
Cl6   Cl    Cl    0.418039 0.884755 0.577411 -0.619066
Cl7   Cl    Cl    0.762977 0.351168 0.983116 -0.658697
Cl8   Cl    Cl    0.693323 0.660872 0.674411 -0.570564
H1    H     H_    0.391485 0.367767 0.648859 0.075645
H2    H     H_    0.143295 0.754752 0.642893 0.084186
H3    H     H_    0.207991 0.789281 0.590964 0.072063
H4    H     H_    0.528019 0.329253 0.730518 0.111581
H5    H     H_    0.575068 0.338439 0.414780 -0.228019
H6    H     H_    0.370442 0.312324 0.419473 0.076371
H7    H     H_    0.636141 0.236296 0.350736 -0.014398
H8    H     H_    0.460185 0.242086 0.703406 0.144921
H9    H     H_    0.749580 0.712835 0.401970 0.086760
H10   H     H_    0.964783 0.715711 0.395755 -0.002812
H11   H     H_    0.836379 0.833549 0.393873 0.052434
H12   H     H_    0.002301 0.599361 0.706117 -0.005230
H13   H     H_    0.903861 0.796019 0.330844 0.176353
H14   H     H_    0.693749 0.795667 0.344231 0.121505
H15   H     H_    0.255218 0.676213 0.354439 0.012508
H16   H     H_    0.098450 0.295586 0.603781 0.053589
H17   H     H_    0.428497 0.774395 0.297106 -0.025916
H18   H     H_    0.323885 0.098439 0.423435 0.171214
H19   H     H_    0.421599 0.978836 0.428649 0.070944
H20   H     H_    0.153984 0.656078 0.486199 0.063280
H21   H     H_    0.380614 0.864051 0.448235 0.085099
H22   H     H_    0.394921 0.025769 0.572901 0.121387
H23   H     H_    0.127228 0.641757 0.669527 0.034799
H24   H     H_    0.439669 0.139413 0.556504 0.118683
H25   H     H_    0.890700 0.274583 0.594675 -0.028747
H26   H     H_    0.648818 0.343628 0.508893 0.049461
H27   H     H_    0.439203 0.478559 0.274631 0.121035
H28   H     H_    0.424403 0.331707 0.104363 0.138637
H29   H     H_    0.862337 0.481057 0.755599 0.108922
H30   H     H_    0.755552 0.360956 0.882297 0.177753
H31   H     H_    0.495931 0.331273 0.019088 0.152762
H32   H     H_    0.929877 0.524984 0.242098 0.115614
H33   H     H_    0.189365 0.652554 0.959288 0.087436
H34   H     H_    0.893882 0.420494 0.383597 0.034312
H35   H     H_    0.265328 0.650008 0.874839 0.151380
H36   H     H_    0.357100 0.519532 0.713802 0.123076
H37   H     H_    0.197635 0.670124 0.038232 0.069535
H38   H     H_    0.158491 0.555701 0.393568 0.030054
H39   H     H_    0.662568 0.451798 0.599431 0.068952
H40   H     H_    0.142366 0.215455 0.665963 0.114281
H41   H     H_    0.875845 0.584349 0.619596 -0.161412
H42   H     H_    0.119822 0.319805 0.328905 0.359905
H43   H     H_    0.281480 0.371385 0.736170 0.314023
H44   H     H_    0.367264 0.781042 0.685488 0.376562
H45   H     H_    0.859868 0.304125 0.286944 0.128632
H46   H     H_    0.661748 0.270228 0.636695 0.328562
H47   H     H_    0.602342 0.150580 0.393827 0.286376
H48   H     H_    0.449257 0.160143 0.315366 0.306316
H49   H     H_    0.239330 0.828545 0.362656 0.272638
H50   H     H_    0.181657 0.779825 0.268115 0.300968
H51   H     H_    0.086963 0.720394 0.109529 0.307523
H52   H     H_    0.127392 0.116337 0.607277 0.329277
H53   H     H_    0.827812 0.399113 0.291264 0.069236
H54   H     H_    0.695211 0.350266 0.321475 0.101405
H55   H     H_    0.211091 0.654010 0.575254 -0.178724
H56   H     H_    0.404059 0.689860 0.567322 0.076759
N1    N     N_R   0.214736 0.501762 0.197566 -0.442980
N2    N     N_R   0.568892 0.499627 0.795136 -0.435776
O1    O     O_2   0.106080 0.324280 0.466820 -0.419041
O2    O     O_2   0.670252 0.553134 0.331228 -0.432710
O3    O     O_3   0.840048 0.663669 0.332100 -0.539371
O4    O     O_3   0.859130 0.413620 0.470620 -0.509970
O5    O     O_3   0.459240 0.537930 0.559910 -0.491332
O6    O     O_2   0.583120 0.462390 0.379940 -0.492987
O7    O     O_3   0.414944 0.347722 0.353842 -0.630462
O8    O     O_2   0.550168 0.755329 0.480187 -0.479910
O9    O     O_3   0.447225 0.739067 0.385913 -0.644741
O10   O     O_2   0.319992 0.389108 0.188104 -0.575326
O11   O     O_2   0.717123 0.398150 0.799279 -0.567990
O12   O     O_3   0.384154 0.651606 0.633129 -0.568457
O13   O     O_2   0.100326 0.611635 0.200606 -0.446653
O14   O     O_2   0.421540 0.602977 0.798311 -0.543355
O15   O     O_3   0.376230 0.370290 0.556910 -0.491829
O16   O     O_2   0.256740 0.243675 0.521403 -0.466907
O17   O     O_3   0.913518 0.311062 0.386218 -0.596285
O18   O     O_3   0.382270 0.260818 0.613944 -0.642347
O19   O     O_2   0.227190 0.537650 0.620070 -0.509768
O20   O     O_3   0.971110 0.406970 0.583250 -0.508652
O21   O     O_2   0.134633 0.443915 0.669624 -0.524713
O22   O     O_3   0.089424 0.368491 0.347487 -0.770727
O23   O     O_3   0.955249 0.334052 0.665398 -0.550768
O24   O     O_3   0.281258 0.319614 0.721184 -0.707559
O25   O     O_3   0.370312 0.795318 0.651886 -0.541369
O26   O     O_3   0.616563 0.319826 0.641824 -0.793373
O27   O     O_3   0.541516 0.195224 0.408478 -0.782944
O28   O     O_3   0.401268 0.205458 0.334414 -0.648139
O29   O     O_3   0.192806 0.783406 0.367317 -0.810463
O30   O     O_3   0.215465 0.728897 0.266636 -0.627241
O31   O     O_3   0.103847 0.683241 0.130687 -0.637190
O32   O     O_3   0.078910 0.158801 0.595048 -0.754989
O33   O     O_2   0.704230 0.675760 0.533200 -0.416073
O34   O     O_3   0.951180 0.586390 0.529420 -0.500377
O35   O     O_3   0.434080 0.629720 0.443130 -0.473953
O36   O     O_3   0.897693 0.691325 0.614098 -0.587377
O37   O     O_3   0.351080 0.462080 0.440130 -0.474716
O38   O     O_3   0.839200 0.593040 0.416790 -0.518446
P1    P     P_3+3 0.929380 0.335110 0.452880 1.071201
P2    P     P_3+3 0.398530 0.559060 0.613740 1.055933
P3    P     P_3+3 0.966044 0.418718 0.649070 0.998905
P4    P     P_3+3 0.880940 0.664900 0.547160 1.067206
P5    P     P_3+3 0.838218 0.580473 0.350610 1.016039
P6    P     P_3+3 0.402720 0.278618 0.552779 0.980530
P7    P     P_3+3 0.403240 0.440057 0.376341 1.018183
P8    P     P_3+3 0.408069 0.721602 0.446104 0.964991

loop_
_geom_bond_atom_site_label_1
_geom_bond_atom_site_label_2
_ccdc_geom_bond_type
Ba2   O5    S    
C45   H9    S    
C81   O25   S    
C37   O10   D    
C71   C72   A    
C16   H40   S    
C52   O17   S    
C62   O14   D    
O33   P4    D    
C67   H15   S    
C55   C60   A    
C43   C44   S    
C52   H34   S    
C68   P2    S    
C24   C25   A    
C16   Cl2   S    
C54   C77   A    
O2    P5    D    
C61   C79   A    
C48   H28   S    
H51   O31   S    
C39   H32   S    
C33   C35   A    
Ba2   P4    S    
C65   C70   D    
C78   Cl3   S    
C53   C57   A    
C41   C50   S    
C19   C31   A    
C3    H18   S    
C16   O32   S    
C32   H24   S    
C13   C14   A    
C20   C36   A    
Ba1   O20   S    
C54   C55   A    
Ba1   Ba2   S    
C63   N2    Am   
Ba1   O5    S    
C51   C66   S    
C7    C11   A    
Ba2   O37   S    
C64   H53   S    
C12   O26   S    
C33   P6    S    
C67   O9    S    
C9    C13   A    
C1    H8    S    
C46   C49   A    
H50   O30   S    
C35   H26   S    
C14   C15   A    
C78   H17   S    
C75   O31   S    
C39   C44   D    
O34   P4    S    
C1    H4    S    
C51   H39   S    
C12   H1    S    
C76   H56   S    
Ba1   P2    S    
C36   P1    S    
C77   H33   S    
H44   O25   S    
C57   C58   A    
Ba2   O4    S    
C45   H10   S    
O18   P6    S    
C19   C20   A    
C22   Cl5   S    
C45   O3    S    
C39   C41   S    
C59   C60   A    
O19   P2    D    
C4    C16   S    
C51   C68   D    
C65   H29   S    
C27   Cl6   S    
Ba1   O34   S    
Ba1   O37   S    
C15   P4    S    
O9    P8    S    
O17   P1    S    
H52   O32   S    
C72   C73   A    
C65   C66   S    
H43   O24   S    
C46   C72   A    
C26   C30   A    
O6    P7    D    
C34   O28   S    
C38   O13   D    
C28   Cl8   S    
C3    C5    A    
C2    C21   A    
C6    C7    A    
Ba2   O34   S    
C18   C26   A    
C66   P3    S    
C81   H2    S    
O20   P3    S    
O23   P3    S    
O8    P8    D    
C62   N2    Am   
C58   C59   A    
C56   H14   S    
C30   C32   A    
C49   C75   A    
C35   C36   A    
H47   O27   S    
O5    P2    S    
C52   O22   S    
C40   H23   S    
C1    O24   S    
H48   O28   S    
C29   C30   A    
C2    C82   A    
Ba1   O15   S    
C28   H41   S    
C81   H3    S    
C60   C61   A    
C31   C32   A    
O21   P3    D    
C40   Cl1   S    
C57   Cl7   S    
C18   C19   A    
C80   H37   S    
C58   H30   S    
C8    H21   S    
C68   C69   D    
C1    C12   S    
C76   H55   S    
C13   P8    S    
C23   H5    S    
C46   C47   A    
C37   C47   A    
O4    P1    S    
O38   P5    S    
C76   O12   S    
C70   N2    S    
C21   Cl4   S    
C18   C82   A    
H46   O26   S    
C71   C74   A    
C69   H36   S    
O35   P8    S    
C12   O18   S    
C28   O36   S    
O12   P2    S    
C42   C43   D    
C14   H20   S    
C77   C79   A    
C29   H22   S    
C42   P7    S    
Ba2   O6    S    
C4    H25   S    
O37   P7    S    
C23   C34   S    
H49   O29   S    
C74   H31   S    
C28   C40   S    
C34   O27   S    
O16   P6    D    
C22   C24   A    
C2    C3    A    
C40   H12   S    
C42   C50   D    
C76   C81   S    
C9    C10   A    
C73   C80   A    
C52   C64   S    
C4    O23   S    
C38   C49   A    
O7    P7    S    
C37   N1    Am   
C41   P5    S    
C56   H13   S    
C50   H38   S    
C53   C55   A    
C17   C22   A    
Ba2   O35   S    
C69   C70   S    
C27   C29   A    
C67   O29   S    
C45   C56   S    
C23   O7    S    
O15   P6    S    
C43   H27   S    
C78   O30   S    
C64   H45   S    
C75   C80   A    
C10   C17   A    
Ba1   O19   S    
C31   C33   A    
C5    H19   S    
C38   N1    Am   
Ba1   O1    S    
C34   H7    S    
Ba2   O33   S    
O36   P4    S    
Ba1   O4    S    
Ba2   O38   S    
C64   H54   S    
C5    C6    A    
C8    C9    A    
C7    C82   A    
C61   C62   A    
C53   C71   A    
C15   C17   A    
C59   C63   A    
C23   H6    S    
O1    P1    D    
C44   N1    S    
O3    P5    S    
C10   C11   A    
C24   C27   A    
C6    C8    A    
C47   C48   A    
C63   O11   D    
C25   C26   A    
C54   C73   A    
C4    H16   S    
C20   C21   A    
C11   C25   A    
C67   C78   S    
H42   O22   S    
C56   H11   S    
C79   H35   S    
Ba1   P1    S    
C48   C74   A    
