data_mof_unit_26962.cif
_audit_creation_date              2012-12-10T19:32:16-0500
_audit_creation_method            fapswitch 2.2
_symmetry_space_group_name_H-M    P1
_symmetry_Int_Tables_number       1
_space_group_crystal_system       triclinic
_cell_length_a                    22.401394
_cell_length_b                    15.773599
_cell_length_c                    14.912478
_cell_angle_alpha                 90.590269
_cell_angle_beta                  90.068217
_cell_angle_gamma                 89.844948
_cell_volume                      5269.03065722

loop_
_atom_site_label
_atom_site_type_symbol
_atom_type_description
_atom_site_fract_x
_atom_site_fract_y
_atom_site_fract_z
_atom_type_partial_charge
C1    C     C_R   0.498158 0.337554 0.499553 0.911586
C2    C     C_R   0.500699 0.662651 0.500520 0.922933
C3    C     C_R   0.246289 0.578526 0.402510 0.152683
C4    C     C_R   0.753698 0.387113 0.427590 0.106120
C5    C     C_R   0.302321 0.584634 0.444822 0.087004
C6    C     C_R   0.695148 0.396303 0.464197 0.103651
C7    C     C_R   0.322636 0.515483 0.495936 -0.156493
C8    C     C_R   0.676652 0.476990 0.496700 -0.151559
C9    C     C_R   0.281233 0.457741 0.532053 0.004988
C10   C     C_R   0.720130 0.535901 0.524147 -0.008005
C11   C     C_R   0.219817 0.467914 0.510675 0.172609
C12   C     C_R   0.780369 0.515957 0.506706 0.206315
C13   C     C_R   0.203733 0.522508 0.439147 0.219841
C14   C     C_R   0.792990 0.458613 0.434854 0.122324
C15   C     C_3   0.538135 0.975111 0.568383 0.154797
C16   C     C_3   0.466257 0.026265 0.433450 0.150481
C17   C     C_3   0.558613 0.027714 0.486936 0.068897
C18   C     C_3   0.445750 0.973769 0.514765 0.068356
C19   C     C_1   0.499372 0.248912 0.498377 -0.194269
C20   C     C_1   0.501485 0.751620 0.501992 -0.199546
C21   C     C_3   0.481671 0.030706 0.580231 0.075960
C22   C     C_3   0.522680 0.970449 0.421600 0.068926
C23   C     C_R   0.387607 0.501068 0.499735 0.897390
C24   C     C_R   0.612342 0.497246 0.499778 0.895278
C25   C     C_3   0.502116 0.083018 0.498913 -0.025399
C26   C     C_3   0.502208 0.918095 0.503047 -0.023674
C27   C     C_1   0.500895 0.173902 0.497963 -0.083123
C28   C     C_1   0.501968 0.826858 0.503344 -0.082316
C29   C     C_3   0.506148 0.419594 0.969358 0.150717
C30   C     C_3   0.493414 0.580246 0.030769 0.152362
C31   C     C_3   0.551969 0.467359 0.029420 0.145897
C32   C     C_3   0.447584 0.532471 0.970733 0.148873
C33   C     C_3   0.454009 0.452037 0.029162 0.148029
C34   C     C_3   0.545561 0.547794 0.970991 0.150963
C35   C     C_3   0.499826 0.499816 0.089303 -0.163130
C36   C     C_3   0.499735 0.500037 0.910783 -0.161951
C37   C     C_1   0.499927 0.499892 0.189750 0.040031
C38   C     C_1   0.499848 0.500041 0.810275 0.034973
C39   C     C_R   0.863406 0.559166 0.368625 0.574525
C40   C     C_R   0.124169 0.449472 0.360459 0.483660
C41   C     C_R   0.875230 0.419054 0.327207 0.518154
C42   C     C_R   0.107694 0.589531 0.416455 0.505928
C43   C     C_R   0.937828 0.423434 0.326562 -0.077197
C44   C     C_R   0.049360 0.589827 0.381454 -0.073094
C45   C     C_R   0.963058 0.503654 0.346058 -0.083139
C46   C     C_R   0.025096 0.511360 0.354456 -0.075514
C47   C     C_R   0.925411 0.575767 0.358476 -0.086855
C48   C     C_R   0.062966 0.440718 0.337651 -0.090993
C49   C     C_R   0.975005 0.352189 0.306947 0.087746
C50   C     C_R   0.014836 0.665182 0.373479 0.081157
C51   C     C_R   0.037912 0.363689 0.303378 0.138819
C52   C     C_R   0.951501 0.658645 0.364011 0.133036
N1    N     N_R   0.843906 0.477324 0.375773 -0.305029
N2    N     N_R   0.143875 0.520924 0.403672 -0.324592
N3    N     N_1   0.500020 0.500000 0.268010 -0.089843
N4    N     N_1   0.499980 0.500000 0.731990 -0.092736
O1    O     O_R   0.500000 0.376780 0.574460 -0.604325
O2    O     O_R   0.500000 0.623220 0.425540 -0.616700
O3    O     O_R   0.500010 0.376780 0.425520 -0.620469
O4    O     O_R   0.499990 0.623220 0.574480 -0.608527
O5    O     O_R   0.416150 0.499970 0.574490 -0.616287
O6    O     O_R   0.583850 0.500030 0.425510 -0.610507
O7    O     O_R   0.416160 0.499980 0.425550 -0.610772
O8    O     O_R   0.583840 0.500020 0.574450 -0.610574
O9    O     O_2   0.822843 0.621924 0.373513 -0.619268
O10   O     O_2   0.163630 0.386411 0.345274 -0.589743
O11   O     O_2   0.846869 0.371327 0.265884 -0.588995
O12   O     O_2   0.127426 0.655295 0.466720 -0.591838
Zn1   Zn    Zn3+2 0.499990 0.500000 0.599450 0.943073
Zn2   Zn    Zn3+2 0.500010 0.500000 0.400550 0.947295
C53   C     C_3   0.949909 0.262013 0.310363 -0.385113
C54   C     C_3   0.946888 0.231995 0.407907 -0.361034
C55   C     C_3   0.918238 0.144563 0.414242 -0.908942
H1    H     H_    0.871893 0.146136 0.387709 0.266259
H2    H     H_    0.944725 0.097139 0.375558 0.262965
H3    H     H_    0.916750 0.124850 0.485459 0.253575
H4    H     H_    0.992601 0.228998 0.436660 0.232176
H5    H     H_    0.920851 0.277784 0.449362 0.209939
H6    H     H_    0.905731 0.255999 0.278628 0.248209
H7    H     H_    0.976659 0.216114 0.271040 0.192888
C56   C     C_3   0.047308 0.749700 0.361089 -0.357876
C57   C     C_3   0.045011 0.807545 0.444760 -0.275649
C58   C     C_3   0.095401 0.872570 0.444352 -0.876088
H8    H     H_    0.139490 0.840220 0.446573 0.283488
H9    H     H_    0.092737 0.911929 0.383120 0.249865
H10   H     H_    0.091486 0.914760 0.504136 0.245190
H11   H     H_    0.002196 0.842784 0.446652 0.209653
H12   H     H_    0.048424 0.769461 0.506832 0.255467
H13   H     H_    0.094432 0.738091 0.341559 0.216344
H14   H     H_    0.030135 0.783570 0.301579 0.151402
C59   C     C_3   0.608772 0.432588 0.073762 -0.368785
C60   C     C_3   0.654823 0.399507 0.006614 -0.875093
H15   H     H_    0.638691 0.341205 0.972595 0.261812
H16   H     H_    0.665397 0.447806 0.955750 0.262210
H17   H     H_    0.696608 0.383392 0.042830 0.257157
H18   H     H_    0.629102 0.483486 0.115529 0.209481
H19   H     H_    0.596557 0.380734 0.119944 0.198688
C61   C     C_3   0.390590 0.567216 0.926970 -0.365621
C62   C     C_3   0.344723 0.599986 0.994657 -0.891788
H20   H     H_    0.334514 0.551692 0.045691 0.264409
H21   H     H_    0.360791 0.658410 0.028502 0.263758
H22   H     H_    0.302702 0.615804 0.958928 0.248799
H23   H     H_    0.402589 0.619227 0.880863 0.199113
H24   H     H_    0.370192 0.516362 0.885216 0.202065
C63   C     C_3   0.513537 0.332444 0.923706 -0.367693
C64   C     C_3   0.516363 0.259207 0.989672 -0.894378
H25   H     H_    0.550496 0.270608 0.042114 0.263815
H26   H     H_    0.472437 0.249276 0.021785 0.265334
H27   H     H_    0.528365 0.200047 0.952884 0.244953
H28   H     H_    0.475887 0.321715 0.876540 0.199219
H29   H     H_    0.554874 0.332835 0.882810 0.203707
C65   C     C_3   0.486062 0.667376 0.076485 -0.368495
C66   C     C_3   0.483071 0.740640 0.010571 -0.895511
H30   H     H_    0.526757 0.750094 0.977577 0.265448
H31   H     H_    0.448422 0.729602 0.958815 0.264146
H32   H     H_    0.471713 0.799932 0.047597 0.244890
H33   H     H_    0.444815 0.666946 0.117585 0.202336
H34   H     H_    0.523800 0.678114 0.123482 0.200751
C67   C     C_3   0.594985 0.600410 0.927253 -0.375768
C68   C     C_3   0.637990 0.640379 0.994825 -0.876348
H35   H     H_    0.613768 0.677628 0.046567 0.263264
H36   H     H_    0.665474 0.591237 0.027738 0.267399
H37   H     H_    0.668654 0.683722 0.959190 0.247506
H38   H     H_    0.620590 0.559485 0.880019 0.199290
H39   H     H_    0.574012 0.651049 0.886738 0.203326
C69   C     C_3   0.404667 0.399309 0.072980 -0.364909
C70   C     C_3   0.361490 0.359601 0.005483 -0.887201
H40   H     H_    0.333691 0.408833 0.973314 0.263592
H41   H     H_    0.385607 0.322957 0.953143 0.261997
H42   H     H_    0.331126 0.315766 0.041022 0.250769
H43   H     H_    0.425742 0.348509 0.113150 0.203734
H44   H     H_    0.379190 0.440039 0.120564 0.200404
C71   C     C_3   0.076637 0.296781 0.256695 -0.327597
C72   C     C_3   0.099402 0.228077 0.320468 -0.785540
H45   H     H_    0.109072 0.254381 0.388265 0.274102
H46   H     H_    0.066302 0.176509 0.327433 0.225281
H47   H     H_    0.140937 0.199491 0.292908 0.247813
H48   H     H_    0.052245 0.266869 0.199854 0.162248
H49   H     H_    0.114522 0.327284 0.221841 0.232488
C73   C     C_3   0.913390 0.739316 0.360134 -0.318274
C74   C     C_3   0.891650 0.768511 0.453035 -0.849387
H50   H     H_    0.925360 0.754695 0.505570 0.241936
H51   H     H_    0.883257 0.837937 0.452648 0.231528
H52   H     H_    0.849189 0.737825 0.471670 0.285864
H53   H     H_    0.937792 0.792539 0.330038 0.167913
H54   H     H_    0.875737 0.732329 0.312472 0.237323
C75   C     C_3   0.233612 0.626095 0.315663 -0.414952
C76   C     C_3   0.225869 0.565863 0.235442 -0.851117
H55   H     H_    0.261366 0.516496 0.235056 0.269413
H56   H     H_    0.181483 0.535360 0.235995 0.265276
H57   H     H_    0.229112 0.602163 0.172190 0.239161
H58   H     H_    0.193847 0.667478 0.322794 0.219524
H59   H     H_    0.270928 0.667801 0.296526 0.195756
C77   C     C_3   0.775504 0.299242 0.399706 -0.354050
C78   C     C_3   0.750134 0.269418 0.308758 -0.747825
H60   H     H_    0.708054 0.233615 0.316067 0.200976
H61   H     H_    0.741097 0.323770 0.263919 0.290084
H62   H     H_    0.782604 0.226059 0.275535 0.248888
H63   H     H_    0.824515 0.295945 0.399608 0.216906
H64   H     H_    0.764350 0.252470 0.452123 0.179846
C79   C     C_3   0.338845 0.665971 0.443319 -0.417194
C80   C     C_3   0.347572 0.700891 0.538527 -0.867292
H65   H     H_    0.303989 0.721015 0.567291 0.269226
H66   H     H_    0.368400 0.653779 0.583471 0.268517
H67   H     H_    0.377552 0.756116 0.536597 0.238725
H68   H     H_    0.382628 0.654567 0.410834 0.225107
H69   H     H_    0.316667 0.717714 0.406390 0.199632
C81   C     C_3   0.653162 0.321528 0.476773 -0.403479
C82   C     C_3   0.647102 0.300252 0.576247 -0.883784
H70   H     H_    0.690704 0.278090 0.602865 0.251481
H71   H     H_    0.632149 0.355984 0.616201 0.280314
H72   H     H_    0.613765 0.249286 0.585148 0.245198
H73   H     H_    0.609391 0.336435 0.447137 0.213235
H74   H     H_    0.667044 0.262833 0.442419 0.214229
C83   C     C_3   0.303298 0.382692 0.586223 -0.423297
C84   C     C_3   0.321371 0.309560 0.523443 -0.319471
C85   C     C_3   0.346498 0.235485 0.576164 -0.935429
H75   H     H_    0.385543 0.256522 0.616539 0.269979
H76   H     H_    0.311945 0.209247 0.621376 0.263223
H77   H     H_    0.361196 0.184971 0.528835 0.245306
H78   H     H_    0.281829 0.287700 0.484540 0.236033
H79   H     H_    0.355878 0.331002 0.475317 0.215706
H80   H     H_    0.341476 0.401541 0.629279 0.218767
H81   H     H_    0.269541 0.359706 0.634160 0.211737
C86   C     C_3   0.702213 0.622326 0.561057 -0.436036
C87   C     C_3   0.683434 0.680947 0.484463 -0.292743
C88   C     C_3   0.662454 0.766331 0.520735 -0.946164
H82   H     H_    0.624610 0.756888 0.567527 0.267274
H83   H     H_    0.699413 0.799158 0.556520 0.263657
H84   H     H_    0.647242 0.806594 0.464543 0.249100
H85   H     H_    0.721856 0.691149 0.438834 0.266772
H86   H     H_    0.646562 0.652358 0.444742 0.219567
H87   H     H_    0.665286 0.615360 0.610074 0.211385
H88   H     H_    0.739148 0.653749 0.597774 0.198946
C89   C     C_3   0.171807 0.420838 0.562530 -0.376247
C90   C     C_3   0.163891 0.459286 0.656259 -0.888415
H89   H     H_    0.206319 0.459071 0.694653 0.255787
H90   H     H_    0.147855 0.525773 0.651006 0.279050
H91   H     H_    0.130234 0.422292 0.693826 0.248418
H92   H     H_    0.127465 0.424196 0.530080 0.209963
H93   H     H_    0.182264 0.352160 0.566038 0.202934
C91   C     C_3   0.830120 0.549143 0.567563 -0.411812
C92   C     C_3   0.876371 0.480838 0.589710 -0.906599
H94   H     H_    0.854002 0.423736 0.616676 0.259432
H95   H     H_    0.902716 0.462647 0.529584 0.255488
H96   H     H_    0.907869 0.505640 0.641140 0.258766
H97   H     H_    0.852738 0.604502 0.538254 0.233085
H98   H     H_    0.811457 0.569837 0.633116 0.200275
C93   C     C_3   0.619250 0.070065 0.470485 -0.399780
C94   C     C_3   0.670910 0.006699 0.461096 -0.350077
C95   C     C_3   0.729218 0.052127 0.440120 -0.902263
H99   H     H_    0.725617 0.085511 0.375151 0.263144
H100  H     H_    0.740048 0.098668 0.494094 0.261238
H101  H     H_    0.766115 0.005151 0.435309 0.255803
H102  H     H_    0.676955 0.971570 0.524380 0.233953
H103  H     H_    0.661736 0.960430 0.406503 0.226837
H104  H     H_    0.615894 0.109085 0.409135 0.191392
H105  H     H_    0.628797 0.113950 0.527048 0.206146
C96   C     C_3   0.384752 0.932442 0.529826 -0.401547
C97   C     C_3   0.333422 0.996183 0.539902 -0.362923
C98   C     C_3   0.274162 0.950462 0.552989 -0.875771
H106  H     H_    0.264333 0.908909 0.494215 0.263751
H107  H     H_    0.275724 0.911377 0.614501 0.263126
H108  H     H_    0.237613 0.997743 0.560117 0.251225
H109  H     H_    0.341161 0.038266 0.598641 0.228716
H110  H     H_    0.329770 0.035805 0.479297 0.233420
H111  H     H_    0.375433 0.889471 0.472157 0.207567
H112  H     H_    0.387533 0.893331 0.591090 0.193341
C99   C     C_3   0.577161 0.936521 0.642228 -0.400093
C100  C     C_3   0.607226 0.002514 0.702571 -0.890933
H113  H     H_    0.633985 0.047440 0.662812 0.261030
H114  H     H_    0.574005 0.038161 0.742886 0.262740
H115  H     H_    0.637733 0.969849 0.749782 0.250078
H116  H     H_    0.549768 0.893508 0.683675 0.200330
H117  H     H_    0.612226 0.897432 0.610438 0.209331
C101  C     C_3   0.427963 0.067342 0.360077 -0.385448
C102  C     C_3   0.395446 0.003058 0.300648 -0.893641
H118  H     H_    0.427436 0.961745 0.264211 0.261042
H119  H     H_    0.364897 0.963395 0.340547 0.261019
H120  H     H_    0.368380 0.037411 0.250216 0.250984
H121  H     H_    0.394758 0.110344 0.391804 0.197834
H122  H     H_    0.456857 0.107462 0.317671 0.199740
C103  C     C_3   0.544320 0.923955 0.336510 -0.383685
C104  C     C_3   0.563994 0.983877 0.261950 -0.361928
C105  C     C_3   0.582701 0.933991 0.178334 -0.885658
H123  H     H_    0.620706 0.891206 0.193965 0.264380
H124  H     H_    0.544735 0.895715 0.152422 0.261872
H125  H     H_    0.596845 0.978593 0.125345 0.251599
H126  H     H_    0.527045 0.027114 0.243541 0.230854
H127  H     H_    0.602365 0.022730 0.284656 0.226535
H128  H     H_    0.582013 0.881644 0.354545 0.190989
H129  H     H_    0.507778 0.882514 0.311607 0.206443
C106  C     C_3   0.459963 0.075718 0.666072 -0.393946
C107  C     C_3   0.440791 0.014686 0.739960 -0.357390
C108  C     C_3   0.422592 0.063431 0.824568 -0.890871
H130  H     H_    0.460769 0.101164 0.850641 0.262261
H131  H     H_    0.384609 0.106623 0.810048 0.262935
H132  H     H_    0.408620 0.018125 0.876986 0.252200
H133  H     H_    0.402251 0.976218 0.717197 0.225670
H134  H     H_    0.477698 0.970988 0.757197 0.231984
H135  H     H_    0.496029 0.117893 0.691144 0.208007
H136  H     H_    0.421767 0.116908 0.648873 0.201080

loop_
_geom_bond_atom_site_label_1
_geom_bond_atom_site_label_2
_ccdc_geom_bond_type
C106  H136  S    
C4    C77   S    
C92   H94   S    
C108  H131  S    
C99   H116  S    
C3    C75   S    
C69   C70   S    
C78   H61   S    
C18   C21   S    
C82   H71   S    
C82   H70   S    
C75   C76   S    
C18   C26   S    
C76   H57   S    
C86   H88   S    
C63   H28   S    
C16   C22   S    
C72   H47   S    
C53   H6    S    
C79   C80   S    
C41   O11   S    
O5    Zn1   S    
C45   C46   A    
C104  C105  S    
C81   H74   S    
C92   H95   S    
C29   C36   S    
C99   C100  S    
C104  H127  S    
C30   C35   S    
C58   H8    S    
C93   H105  S    
C32   C36   S    
C39   C47   A    
C35   C37   S    
C11   C89   S    
C66   H30   S    
C98   H108  S    
C17   C93   S    
C1    O3    A    
C65   H33   S    
C61   C62   S    
C57   H12   S    
C11   C13   A    
C64   H25   S    
C16   C101  S    
C106  H135  S    
C61   H23   S    
C80   H67   S    
C29   C33   S    
C108  H130  S    
C34   C67   S    
C10   C86   S    
C69   H43   S    
C101  C102  S    
O6    Zn2   S    
C100  H115  S    
C40   C48   A    
C55   H1    S    
C101  H122  S    
C87   H85   S    
C65   C66   S    
C88   H84   S    
C54   H5    S    
C33   C35   S    
C59   H18   S    
C48   C51   A    
C96   H111  S    
C95   H99   S    
C33   C69   S    
C68   H36   S    
C85   H76   S    
C62   H22   S    
C50   C52   A    
C106  C107  S    
C12   C91   S    
C96   H112  S    
C19   C27   T    
C34   C36   S    
C79   H68   S    
C3    C13   A    
C68   H37   S    
C54   C55   S    
C66   H32   S    
C56   H13   S    
C23   O7    A    
C63   H29   S    
C108  H132  S    
C71   H48   S    
C24   O8    A    
C91   H98   S    
C105  H123  S    
C15   C99   S    
C78   H62   S    
C42   O12   S    
C41   C43   A    
C29   C63   S    
C84   H78   S    
C42   C44   A    
C90   H91   S    
C18   C96   S    
C97   C98   S    
C44   C46   A    
C56   C57   S    
C80   H66   S    
C45   C47   A    
C81   H73   S    
C92   H96   S    
C46   C48   A    
C1    C19   S    
C103  H128  S    
C104  H126  S    
C30   C34   S    
C2    C20   S    
C73   C74   S    
C90   H90   S    
C91   C92   S    
C74   H52   S    
C73   H54   S    
C96   C97   S    
C5    C7    A    
O2    Zn2   S    
C15   C26   S    
C6    C8    A    
C20   C28   T    
C49   C51   A    
C67   H38   S    
C60   H17   S    
C94   H103  S    
C40   N2    A    
C30   C65   S    
C80   H65   S    
C5    C79   S    
C101  H121  S    
C99   H117  S    
C84   H79   S    
C70   H41   S    
C77   H64   S    
C54   H4    S    
C1    O1    A    
C65   H34   S    
C98   H106  S    
C9    C11   A    
C74   H51   S    
C83   C84   S    
O7    Zn2   S    
C107  H134  S    
C52   C73   S    
C85   H77   S    
C76   H56   S    
C58   H10   S    
C60   H16   S    
C93   C94   S    
C31   C34   S    
C97   H110  S    
O8    Zn1   S    
C59   H19   S    
C100  H114  S    
C43   C45   A    
C41   N1    A    
C77   C78   S    
C79   H69   S    
C22   C26   S    
C10   C12   A    
C15   C17   S    
C85   H75   S    
C56   H14   S    
C67   H39   S    
C4    C6    A    
C84   C85   S    
C95   H100  S    
C12   C14   A    
C39   O9    S    
C57   C58   S    
C31   C59   S    
C91   H97   S    
C102  H119  S    
C100  H113  S    
C71   C72   S    
C82   H72   S    
C57   H11   S    
C15   C21   S    
C105  H125  S    
C55   H2    S    
C70   H40   S    
C59   C60   S    
C68   H35   S    
C83   H80   S    
C89   H92   S    
C23   O5    A    
C44   C50   A    
C16   C25   S    
C7    C9    A    
C6    C81   S    
C21   C25   S    
C81   C82   S    
C24   O6    A    
C103  H129  S    
C62   H21   S    
C29   C31   S    
C8    C10   A    
C43   C49   A    
C86   H87   S    
C90   H89   S    
C3    C5    A    
C73   H53   S    
C53   H7    S    
C67   C68   S    
C2    O2    A    
C71   H49   S    
C47   C52   A    
C89   H93   S    
C22   C103  S    
C25   C27   S    
C63   C64   S    
C13   N2    S    
C72   H45   S    
C26   C28   S    
C17   C22   S    
C62   H20   S    
C93   H104  S    
C32   C33   S    
C107  C108  S    
C105  H124  S    
C75   H58   S    
C87   C88   S    
C70   H42   S    
C17   C25   S    
C77   H63   S    
C98   H107  S    
C4    C14   A    
C74   H50   S    
C42   N2    A    
C30   C32   S    
C51   C71   S    
C86   C87   S    
C39   N1    A    
C7    C23   S    
C64   H26   S    
O4    Zn1   S    
C32   C61   S    
C61   H24   S    
C31   C35   S    
C36   C38   S    
C60   H15   S    
C8    C24   S    
C72   H46   S    
C97   H109  S    
C9    C83   S    
C2    O4    A    
C76   H55   S    
C94   C95   S    
C87   H86   S    
C58   H9    S    
C75   H59   S    
C88   H83   S    
N3    Zn2   S    
C69   H44   S    
C94   H102  S    
O3    Zn2   S    
C21   C106  S    
C89   C90   S    
C37   N3    T    
C53   C54   S    
C88   H82   S    
C95   H101  S    
C38   N4    T    
C55   H3    S    
C16   C18   S    
N4    Zn1   S    
C49   C53   S    
C102  H120  S    
C78   H60   S    
C40   O10   S    
O1    Zn1   S    
C107  H133  S    
C102  H118  S    
C14   N1    S    
C103  C104  S    
C50   C56   S    
C83   H81   S    
C66   H31   S    
C64   H27   S    
