data_mof_unit_16362.cif
_audit_creation_date              2012-12-10T16:59:19-0500
_audit_creation_method            fapswitch 2.2
_symmetry_space_group_name_H-M    P1
_symmetry_Int_Tables_number       1
_space_group_crystal_system       triclinic
_cell_length_a                    7.778729
_cell_length_b                    8.760781
_cell_length_c                    27.634644
_cell_angle_alpha                 92.186719
_cell_angle_beta                  84.981952
_cell_angle_gamma                 93.777845
_cell_volume                      1870.9496557

loop_
_atom_site_label
_atom_site_type_symbol
_atom_type_description
_atom_site_fract_x
_atom_site_fract_y
_atom_site_fract_z
_atom_type_partial_charge
C1    C     C_R   0.545140 0.793968 0.499365 0.922141
C2    C     C_R   0.618377 0.603966 0.126669 -0.037275
C3    C     C_R   0.503592 0.494427 0.645700 -0.198122
C4    C     C_R   0.496957 0.510758 0.354409 -0.198597
C5    C     C_R   0.638539 0.586192 0.024039 0.002656
C6    C     C_R   0.349783 0.448020 0.976959 0.002486
C7    C     C_R   0.337149 0.475215 0.028244 0.044100
C8    C     C_R   0.651435 0.558835 0.972781 0.044416
C9    C     C_R   0.483871 0.534192 0.051599 0.074217
C10   C     C_R   0.505079 0.498910 0.949396 0.074031
C11   C     C_R   0.769527 0.669631 0.049398 -0.037636
C12   C     C_R   0.454992 0.206049 0.501146 0.918974
C13   C     C_R   0.218500 0.364730 0.951640 -0.037391
C14   C     C_R   0.761620 0.670124 0.099740 -0.189361
C15   C     C_R   0.227839 0.361794 0.901271 -0.188334
C16   C     C_R   0.500972 0.499442 0.593542 0.929098
C17   C     C_R   0.499026 0.500694 0.406456 0.930157
C18   C     C_R   0.809499 0.580857 0.944148 -0.247488
C19   C     C_R   0.179483 0.452971 0.057043 -0.248528
C20   C     C_2   0.568962 0.954960 0.496200 -0.229778
C21   C     C_2   0.431923 0.045302 0.505406 -0.227465
C22   C     C_R   0.669690 0.528474 0.818526 0.525408
C23   C     C_R   0.516030 0.486029 0.897818 -0.056746
C24   C     C_R   0.323603 0.495088 0.182414 0.525265
C25   C     C_R   0.377625 0.425105 0.823726 0.547172
C26   C     C_R   0.615031 0.600184 0.177128 0.546669
C27   C     C_R   0.506796 0.344248 0.717342 -0.068333
C28   C     C_R   0.490519 0.668767 0.284650 -0.068784
C29   C     C_R   0.488498 0.351390 0.667548 0.433754
C30   C     C_R   0.510800 0.656227 0.334144 0.435240
C31   C     C_R   0.528317 0.630288 0.673529 -0.126432
C32   C     C_R   0.471879 0.377857 0.325235 -0.125154
C33   C     C_R   0.534070 0.622780 0.723505 -0.123802
C34   C     C_R   0.474198 0.544406 0.103181 -0.056985
C35   C     C_R   0.464324 0.390781 0.275488 -0.122782
C36   C     C_R   0.523402 0.480774 0.745494 0.179426
C37   C     C_R   0.473337 0.535277 0.255117 0.178507
C38   C     C_1   0.551792 0.777439 0.651218 0.168151
C39   C     C_1   0.449304 0.228353 0.345986 0.168290
C40   C     C_3   0.967888 0.347022 0.413018 -0.094707
C41   C     C_3   0.029193 0.649007 0.587493 -0.090834
C42   C     C_1   0.979367 0.638599 0.868987 0.314983
C43   C     C_1   0.011484 0.390633 0.132129 0.317535
C44   C     C_3   0.712046 0.829923 0.361241 -0.274207
C45   C     C_R   0.669661 0.534705 0.869692 -0.067712
C46   C     C_3   0.287373 0.175497 0.641575 -0.273867
C47   C     C_1   0.485215 0.818170 0.264497 0.291789
C48   C     C_1   0.510381 0.197212 0.739198 0.288834
C49   C     C_1   0.904309 0.771782 0.026920 0.163909
C50   C     C_1   0.081613 0.264854 0.974207 0.163516
C51   C     C_1   0.744946 0.007238 0.479592 0.267111
C52   C     C_1   0.257173 0.993302 0.523227 0.266965
C53   C     C_R   0.321548 0.493563 0.131329 -0.067586
C54   C     C_R   0.817525 0.582212 0.893809 -0.010403
C55   C     C_R   0.172749 0.448361 0.107322 -0.010104
C56   C     C_R   0.372388 0.425386 0.874287 -0.036994
H1    H     H_    0.548503 0.727084 0.745583 0.177559
H2    H     H_    0.156985 0.713206 0.586236 0.165545
H3    H     H_    0.034114 0.532231 0.601661 0.143934
H4    H     H_    0.940604 0.712164 0.613491 0.147269
H5    H     H_    0.770173 0.842542 0.323207 0.177286
H6    H     H_    0.782816 0.747148 0.380227 0.175144
H7    H     H_    0.729317 0.943314 0.379904 0.186785
H8    H     H_    0.228154 0.165743 0.679595 0.177668
H9    H     H_    0.217742 0.257053 0.621763 0.173428
H10   H     H_    0.269909 0.060979 0.623643 0.188929
H11   H     H_    0.449392 0.288833 0.252358 0.177270
H12   H     H_    0.866678 0.727685 0.118124 0.197077
H13   H     H_    0.122869 0.303936 0.882918 0.197290
H14   H     H_    0.931154 0.593576 0.960143 0.153095
H15   H     H_    0.057409 0.442015 0.041256 0.153482
H16   H     H_    0.962823 0.462524 0.397945 0.146144
H17   H     H_    0.839726 0.283309 0.415387 0.166002
H18   H     H_    0.054628 0.281487 0.387169 0.146855
N1    N     N_R   0.524136 0.477129 0.797148 -0.340124
N2    N     N_1   0.513220 0.079535 0.756668 -0.195470
N3    N     N_1   0.013191 0.853272 0.009283 -0.174690
N4    N     N_1   0.971027 0.185163 0.991889 -0.175008
N5    N     N_1   0.885896 0.044733 0.466312 -0.157369
N6    N     N_1   0.117176 0.956087 0.537518 -0.161133
N7    N     N_R   0.470020 0.544660 0.203676 -0.339930
N8    N     N_2   0.950320 0.457960 0.486880 0.183956
N9    N     N_2   0.049680 0.542040 0.513120 0.184421
N10   N     N_1   0.571733 0.894833 0.633081 -0.152661
N11   N     N_1   0.430091 0.109057 0.362902 -0.151834
N12   N     N_1   0.108444 0.685642 0.849361 -0.155755
N13   N     N_1   0.882892 0.342402 0.151723 -0.156423
N14   N     N_1   0.481010 0.937657 0.248328 -0.196296
O1    O     O_R   0.389250 0.738570 0.503220 -0.623507
O2    O     O_2   0.181654 0.448635 0.210940 -0.537842
O3    O     O_2   0.756854 0.649213 0.199630 -0.551660
O4    O     O_2   0.236321 0.375234 0.801118 -0.550244
O5    O     O_3   0.037091 0.355916 0.458262 -0.520284
O6    O     O_3   0.963082 0.643940 0.541831 -0.520521
O7    O     O_3   0.533688 0.786331 0.363425 -0.609802
O8    O     O_3   0.465879 0.218367 0.639594 -0.609680
O9    O     O_R   0.610750 0.261430 0.496780 -0.626340
O10   O     O_R   0.678390 0.711630 0.494810 -0.585184
O11   O     O_R   0.321610 0.288370 0.505190 -0.584155
O12   O     O_R   0.355440 0.513440 0.575450 -0.680774
O13   O     O_R   0.644560 0.486560 0.424550 -0.680134
O14   O     O_R   0.644590 0.486500 0.567040 -0.577403
O15   O     O_R   0.355410 0.513500 0.432960 -0.575587
O16   O     O_2   0.812919 0.571874 0.790037 -0.536833
Zn1   Zn    Zn3+2 0.306940 0.517990 0.505620 1.049985
Zn2   Zn    Zn3+2 0.693060 0.482010 0.494380 1.048126

loop_
_geom_bond_atom_site_label_1
_geom_bond_atom_site_label_2
_ccdc_geom_bond_type
C27   C48   S    
C18   H14   S    
C28   C47   S    
C23   C45   A    
C27   C29   A    
C48   N2    T    
C19   H15   S    
C25   C56   A    
C40   O5    S    
C23   C56   A    
O12   Zn1   S    
C35   C37   A    
C41   H2    S    
C5    C11   A    
C20   C51   S    
C11   C14   A    
C19   C55   A    
C33   C36   A    
C22   O16   S    
C40   H17   S    
C32   C39   S    
C3    C29   A    
C17   O13   A    
C12   O11   A    
C49   N3    T    
C25   O4    S    
C1    O1    A    
C31   C33   A    
C42   N12   T    
C2    C34   A    
N8    O5    S    
C37   N7    S    
C22   N1    A    
C15   H13   S    
C50   N4    T    
C53   C55   A    
C44   H7    S    
O11   Zn1   S    
C32   C35   A    
C41   H3    S    
C46   H9    S    
C2    C26   A    
C16   O12   A    
C44   H6    S    
C26   O3    S    
N9    O6    S    
C12   C21   S    
C8    C18   A    
N9    Zn1   S    
C46   H8    S    
C25   N1    A    
C24   N7    A    
C5    C9    A    
C30   O7    S    
C11   C49   S    
C36   N1    S    
C29   O8    S    
C41   O6    S    
C35   H11   S    
O15   Zn1   S    
C3    C31   A    
C12   O9    A    
C4    C32   A    
C4    C17   S    
C16   O14   A    
C45   C54   A    
C26   N7    A    
C7    C19   A    
C13   C15   A    
C9    C34   A    
C44   H5    S    
C39   N11   T    
C43   C55   S    
O13   Zn2   S    
C7    C9    A    
C1    C20   S    
C33   H1    S    
C40   H16   S    
C38   N10   T    
C41   H4    S    
C24   O2    S    
C1    O10   A    
C6    C10   A    
C5    C8    A    
C46   H10   S    
C6    C7    A    
C10   C23   A    
O10   Zn2   S    
C31   C38   S    
C27   C36   A    
C43   N13   T    
C47   N14   T    
C28   C30   A    
C24   C53   A    
C44   O7    S    
C42   C54   S    
C6    C13   A    
C28   C37   A    
C40   H18   S    
O14   Zn2   S    
N8    Zn2   S    
C17   O15   A    
C2    C14   A    
C15   C56   A    
C51   N5    T    
C18   C54   A    
C13   C50   S    
C22   C45   A    
C46   O8    S    
C20   C21   D    
C34   C53   A    
C8    C10   A    
N8    N9    D    
O1    Zn1   S    
C14   H12   S    
C52   N6    T    
C21   C52   S    
C4    C30   A    
C3    C16   S    
O9    Zn2   S    
