data_mof_unit_52357.cif
_audit_creation_date              2012-12-11T14:19:37-0500
_audit_creation_method            fapswitch 2.2
_symmetry_space_group_name_H-M    P1
_symmetry_Int_Tables_number       1
_space_group_crystal_system       triclinic
_cell_length_a                    19.420607
_cell_length_b                    7.238107
_cell_length_c                    17.681302
_cell_angle_alpha                 89.999765
_cell_angle_beta                  107.707849
_cell_angle_gamma                 90.00045
_cell_volume                      2367.67263714

loop_
_atom_site_label
_atom_site_type_symbol
_atom_type_description
_atom_site_fract_x
_atom_site_fract_y
_atom_site_fract_z
_atom_type_partial_charge
O1    O     O_R   0.414820 0.494320 0.416790 -0.543989
O2    O     O_R   0.585180 0.994320 0.583210 -0.544213
O3    O     O_R   0.560270 0.819500 0.430140 -0.546763
O4    O     O_R   0.439730 0.319500 0.569860 -0.546718
C1    C     C_R   0.581256 0.655478 0.414814 0.707596
C2    C     C_R   0.418743 0.155477 0.585185 0.707684
O5    O     O_R   0.413840 0.823740 0.407440 -0.501135
O6    O     O_R   0.586160 0.323740 0.592560 -0.500930
O7    O     O_R   0.437710 0.998590 0.560350 -0.541366
O8    O     O_R   0.562290 0.498590 0.439650 -0.541408
C3    C     C_R   0.387325 0.655569 0.385272 0.757576
C4    C     C_R   0.612683 0.155575 0.614722 0.757471
O9    O     O_3   0.508000 0.662290 0.550200 -0.378601
O10   O     O_3   0.492000 0.162290 0.449800 -0.378883
V1    V     V_3+5 0.498520 0.935380 0.490690 1.441102
V2    V     V_3+5 0.501480 0.435380 0.509310 1.441493
C5    C     C_2   0.784780 0.271672 0.790393 -0.242380
C6    C     C_2   0.215326 0.771630 0.209476 -0.241693
C7    C     C_2   0.817600 0.112318 0.820926 -0.369800
C8    C     C_2   0.182381 0.612300 0.179099 -0.370152
H1    H     H_    0.811199 0.401280 0.813034 0.159650
H2    H     H_    0.189058 0.901299 0.186658 0.160010
H3    H     H_    0.792145 0.980439 0.800927 0.139614
H4    H     H_    0.207718 0.480378 0.199253 0.139893
C9    C     C_2   0.712155 0.286689 0.728762 0.447943
C10   C     C_2   0.287921 0.786556 0.271141 0.447418
C11   C     C_2   0.681784 0.143643 0.680487 -0.386397
C12   C     C_2   0.318239 0.643604 0.319499 -0.386884
H5    H     H_    0.708520 0.010563 0.687979 0.107742
H6    H     H_    0.291474 0.510568 0.312062 0.107930
C13   C     C_R   0.318590 0.002966 0.623882 -0.205090
C14   C     C_R   0.681408 0.502970 0.376117 -0.205114
C15   C     C_R   0.368879 0.147729 0.634054 -0.081217
C16   C     C_R   0.631118 0.647730 0.365944 -0.081210
C17   C     C_R   0.369750 0.288141 0.689338 -0.219819
C18   C     C_R   0.630245 0.788137 0.310656 -0.219925
C19   C     C_R   0.321760 0.283276 0.734784 0.094378
C20   C     C_R   0.678235 0.783270 0.265210 0.094389
C21   C     C_R   0.271040 0.137993 0.723829 0.042908
C22   C     C_R   0.728956 0.637990 0.276167 0.042914
C23   C     C_R   0.269071 0.998824 0.667557 0.078626
C24   C     C_R   0.730926 0.498825 0.332441 0.078630
C25   C     C_R   0.323337 0.422007 0.790648 -0.196798
C26   C     C_R   0.676657 0.921997 0.209343 -0.196822
C27   C     C_R   0.275565 0.416416 0.835850 -0.195069
C28   C     C_R   0.724430 0.916406 0.164141 -0.195070
C29   C     C_R   0.225081 0.272546 0.825700 0.102091
C30   C     C_R   0.774915 0.772540 0.174294 0.102104
C31   C     C_R   0.222166 0.132718 0.768920 0.028590
C32   C     C_R   0.777830 0.632715 0.231076 0.028586
C33   C     C_R   0.170199 0.989320 0.756819 0.042402
C34   C     C_R   0.829797 0.489319 0.243179 0.042396
C35   C     C_R   0.165596 0.856116 0.696237 -0.003504
C36   C     C_R   0.834400 0.356116 0.303762 -0.003501
C37   C     C_R   0.216405 0.860344 0.654025 -0.229627
C38   C     C_R   0.783591 0.360347 0.345974 -0.229631
C39   C     C_R   0.177412 0.267226 0.871299 -0.199749
C40   C     C_R   0.822585 0.767220 0.128695 -0.199776
C41   C     C_R   0.128178 0.121104 0.863110 -0.077086
C42   C     C_R   0.871820 0.621101 0.136888 -0.077057
C43   C     C_R   0.125236 0.982534 0.806337 -0.222972
C44   C     C_R   0.874761 0.482532 0.193661 -0.222953
H7    H     H_    0.316744 0.895944 0.580390 0.124446
H8    H     H_    0.683255 0.395951 0.419611 0.124436
H9    H     H_    0.408327 0.400375 0.697579 0.123315
H10   H     H_    0.591667 0.900368 0.302413 0.123363
H11   H     H_    0.361562 0.535018 0.799401 0.130935
H12   H     H_    0.638431 0.035006 0.200587 0.130917
H13   H     H_    0.277926 0.525268 0.878645 0.128328
H14   H     H_    0.722068 0.025255 0.121345 0.128330
H15   H     H_    0.180015 0.374602 0.914850 0.121375
H16   H     H_    0.819981 0.874594 0.085144 0.121346
H17   H     H_    0.087656 0.869540 0.801265 0.144192
H18   H     H_    0.912342 0.369541 0.198736 0.144195
H19   H     H_    0.213305 0.758163 0.608231 0.126636
H20   H     H_    0.786691 0.258168 0.391769 0.126635
O11   O     O_R   0.937810 0.773680 0.060480 -0.536128
O12   O     O_R   0.062190 0.273680 0.939520 -0.536122
O13   O     O_R   0.086190 0.439740 0.092580 -0.543845
O14   O     O_R   0.913810 0.939740 0.907420 -0.543935
C45   C     C_R   0.112912 0.608005 0.114185 0.761594
C46   C     C_R   0.887087 0.108005 0.885815 0.761480
O15   O     O_R   0.939760 0.444210 0.069890 -0.543169
O16   O     O_R   0.060240 0.944210 0.930110 -0.543170
O17   O     O_R   0.914790 0.269640 0.916760 -0.535212
O18   O     O_R   0.085210 0.769640 0.083240 -0.535202
C47   C     C_R   0.919715 0.612563 0.085630 0.693781
C48   C     C_R   0.080284 0.112564 0.914369 0.693844
O19   O     O_3   0.992050 0.601530 0.949880 -0.377884
O20   O     O_3   0.007950 0.101530 0.050120 -0.377824
V3    V     V_3+5 0.001480 0.328340 0.009300 1.400735
V4    V     V_3+5 0.998520 0.828340 0.990700 1.400594
C49   C     C_R   0.106326 0.717618 0.671653 0.098654
C50   C     C_R   0.033562 0.773924 0.649764 -0.145835
C51   C     C_R   0.978004 0.644155 0.623633 -0.112868
C52   C     C_R   0.994464 0.457679 0.618032 -0.093596
C53   C     C_R   0.066506 0.400878 0.637952 -0.111492
C54   C     C_R   0.122159 0.530258 0.664026 -0.124589
H21   H     H_    0.019865 0.918391 0.652286 0.106847
H22   H     H_    0.922160 0.688408 0.607206 0.113221
H23   H     H_    0.951414 0.357502 0.597554 0.107504
H24   H     H_    0.079245 0.256833 0.632577 0.117207
H25   H     H_    0.177583 0.484716 0.677671 0.126481
C55   C     C_R   0.893668 0.217616 0.328347 0.098650
C56   C     C_R   0.966433 0.273920 0.350237 -0.145839
C57   C     C_R   0.021989 0.144149 0.376370 -0.112833
C58   C     C_R   0.005527 0.957674 0.381970 -0.093577
C59   C     C_R   0.933485 0.900874 0.362048 -0.111497
C60   C     C_R   0.877833 0.030256 0.335972 -0.124587
H26   H     H_    0.980132 0.418387 0.347715 0.106850
H27   H     H_    0.077835 0.188400 0.392798 0.113234
H28   H     H_    0.048576 0.857495 0.402450 0.107511
H29   H     H_    0.920745 0.756830 0.367423 0.117210
H30   H     H_    0.822409 0.984717 0.322326 0.126484
O21   O     O_3   0.678311 0.457968 0.715969 -0.537466
C61   C     C_3   0.663899 0.518042 0.785687 0.093075
H31   H     H_    0.713638 0.576190 0.828379 0.109868
H32   H     H_    0.642662 0.403980 0.814818 0.102895
C62   C     C_3   0.606911 0.669444 0.764203 -0.676844
H33   H     H_    0.555990 0.614626 0.722599 0.221718
H34   H     H_    0.595849 0.720058 0.818653 0.158192
H35   H     H_    0.626254 0.786701 0.735643 0.219081
O22   O     O_3   0.321784 0.957783 0.283792 -0.537459
C63   C     C_3   0.337257 0.015716 0.214381 0.093723
H36   H     H_    0.287722 0.071104 0.170353 0.109704
H37   H     H_    0.359788 0.901059 0.186881 0.102633
C64   C     C_3   0.393369 0.169218 0.235784 -0.677223
H38   H     H_    0.444115 0.117120 0.278672 0.222560
H39   H     H_    0.405236 0.218106 0.181528 0.158160
H40   H     H_    0.372745 0.287030 0.262789 0.218420

loop_
_geom_bond_atom_site_label_1
_geom_bond_atom_site_label_2
_ccdc_geom_bond_type
O15   C47   A    
C56   H26   S    
O11   V4    S    
O4    V2    S    
C49   C50   A    
C38   H20   S    
C11   H5    S    
C58   H28   S    
C51   C52   A    
O1    C3    A    
O2    C4    A    
C2    O7    A    
C53   C54   A    
O17   V3    S    
O22   C63   S    
C29   C31   A    
C61   H31   S    
O5    C3    A    
C50   H21   S    
C36   C55   S    
C17   C19   A    
C9    O21   S    
C55   C60   A    
C18   H10   S    
C39   C41   A    
C57   C58   A    
C17   H9    S    
C40   C42   A    
C54   H25   S    
C59   C60   A    
C42   C44   A    
C27   C29   A    
C41   C48   S    
C23   C37   A    
C24   C38   A    
C6    C10   S    
C8    H4    S    
C34   C36   A    
C31   C33   A    
C33   C43   A    
C32   C34   A    
C58   C59   A    
C13   C15   A    
C7    C46   S    
O13   V3    S    
C53   H24   S    
C37   H19   S    
C30   C32   A    
O6    V2    S    
C52   H23   S    
C1    C16   S    
C55   C56   A    
C42   C47   S    
C26   C28   A    
C28   C30   A    
C57   H27   S    
C35   C37   A    
C36   C38   A    
C41   C43   A    
C4    C11   S    
C27   H13   S    
C13   H7    S    
C14   H8    S    
C21   C23   A    
O13   C45   A    
C51   H22   S    
C5    C7    D    
O5    V1    S    
C43   H17   S    
C35   C49   S    
C5    H1    S    
C33   C35   A    
C14   C16   A    
C59   H29   S    
C19   C25   A    
C7    H3    S    
C64   H39   S    
C25   H11   S    
C20   C26   A    
C29   C39   A    
O6    C4    A    
C52   C53   A    
O1    V2    S    
C39   H15   S    
O19   V4    S    
O2    V1    S    
C25   C27   A    
O11   C47   A    
C62   H34   S    
C60   H30   S    
C63   C64   S    
O4    C2    A    
C21   C31   A    
C26   H12   S    
C10   O22   S    
C64   H38   S    
O18   V4    S    
O3    V1    S    
C63   H37   S    
C62   H35   S    
O12   C48   A    
C13   C23   A    
C6    H2    S    
C45   O18   A    
O3    C1    A    
C62   H33   S    
C61   C62   S    
C30   C40   A    
O12   V3    S    
C9    C11   D    
C46   O17   A    
O15   V3    S    
C56   C57   A    
C10   C12   D    
C2    C15   S    
C5    C9    S    
C12   H6    S    
O7    V1    S    
C64   H40   S    
C1    O8    A    
O14   V4    S    
C34   C44   A    
C18   C20   A    
C20   C22   A    
C40   H16   S    
O20   V3    S    
O16   C48   A    
C3    C12   S    
C22   C32   A    
C22   C24   A    
C15   C17   A    
O14   C46   A    
C61   H32   S    
C6    C8    D    
C50   C51   A    
C28   H14   S    
C16   C18   A    
C19   C21   A    
O9    V2    S    
C14   C24   A    
O10   V1    S    
C44   H18   S    
O8    V2    S    
O16   V4    S    
C8    C45   S    
C49   C54   A    
O21   C61   S    
C63   H36   S    
