data_mof_unit_37419.cif
_audit_creation_date              2013-03-05T16:19:19-0500
_audit_creation_method            fapswitch 2.2
_symmetry_space_group_name_H-M    P1
_symmetry_Int_Tables_number       1
_space_group_crystal_system       triclinic
_cell_length_a                    10.784695
_cell_length_b                    9.881666
_cell_length_c                    22.66669
_cell_angle_alpha                 91.096565
_cell_angle_beta                  88.54823
_cell_angle_gamma                 89.560193
_cell_volume                      2414.30811595

loop_
_atom_site_label
_atom_site_type_symbol
_atom_site_description
_atom_site_fract_x
_atom_site_fract_y
_atom_site_fract_z
_atom_type_partial_charge
O1    O     O_R   0.314910 0.616040 0.499990 -0.634340
O2    O     O_R   0.314910 0.383960 0.499990 -0.634434
C1    C     C_R   0.259383 0.500864 0.504812 0.961770
O3    O     O_R   0.500080 0.616070 0.416130 -0.624957
O4    O     O_R   0.500080 0.383930 0.416130 -0.627219
C2    C     C_R   0.494675 0.499330 0.388636 0.889022
Zn1   Zn    Zn3+2 0.500150 0.654960 0.499970 1.014683
Zn2   Zn    Zn3+2 0.500150 0.345040 0.499970 1.017765
O5    O     O_R   0.685320 0.616040 0.499970 -0.585238
O6    O     O_R   0.685320 0.383960 0.499970 -0.565710
O7    O     O_R   0.500150 0.616010 0.583820 -0.592645
O8    O     O_R   0.500150 0.383990 0.583820 -0.602187
C3    C     C_R   0.742105 0.499101 0.504191 1.038987
C4    C     C_R   0.493492 0.501749 0.611515 1.007289
C5    C     C_R   0.417404 0.640368 0.889437 0.557450
N1    N     N_R   0.358853 0.542903 0.856839 -0.355054
C6    C     C_R   0.272777 0.459585 0.882382 0.547605
C7    C     C_R   0.247940 0.467782 0.943515 -0.049015
C8    C     C_R   0.309393 0.565399 0.977653 -0.002756
C9    C     C_R   0.391238 0.655783 0.949953 -0.070924
C10   C     C_R   0.163062 0.381037 0.970868 -0.081461
C11   C     C_R   0.144000 0.383770 0.032355 -0.056248
C12   C     C_R   0.216170 0.472449 0.067665 -0.073528
C13   C     C_R   0.292903 0.569453 0.039617 -0.015092
C14   C     C_R   0.357551 0.666949 0.073473 -0.119238
C15   C     C_R   0.432935 0.763662 0.044439 0.314501
C16   C     C_R   0.448653 0.756803 0.983287 -0.173327
C17   C     C_R   0.224762 0.460728 0.129482 0.552629
N2    N     N_R   0.294328 0.550273 0.160759 -0.366492
C18   C     C_R   0.349506 0.658889 0.135165 0.565002
O9    O     O_2   0.503340 0.720120 0.863631 -0.509267
O10   O     O_2   0.211627 0.369138 0.848814 -0.496792
H1    H     H_    0.110542 0.310953 0.944145 0.229075
O11   O     O_2   0.172406 0.356211 0.157896 -0.521133
O12   O     O_2   0.401346 0.754120 0.169869 -0.463565
H2    H     H_    0.510320 0.828429 0.962243 0.226075
C19   C     C_R   0.446205 0.446164 0.223911 0.375549
C20   C     C_R   0.503375 0.439197 0.279053 -0.225308
C21   C     C_R   0.444654 0.501419 0.328879 -0.178832
C22   C     C_R   0.330584 0.568455 0.323162 -0.174267
H3    H     H_    0.287158 0.617056 0.361649 0.170422
C23   C     C_R   0.273589 0.576652 0.268694 -0.029762
C24   C     C_R   0.332877 0.516795 0.218786 0.088359
C25   C     C_R   0.379942 0.641628 0.758783 -0.037159
H4    H     H_    0.343917 0.737059 0.776476 0.178597
C26   C     C_R   0.418786 0.632694 0.700087 -0.037008
H5    H     H_    0.408998 0.721869 0.673688 0.203903
C27   C     C_R   0.463368 0.509588 0.675292 -0.046265
C28   C     C_R   0.466954 0.395063 0.710823 -0.111759
H6    H     H_    0.495350 0.297996 0.692661 0.215466
C29   C     C_R   0.432410 0.405259 0.770572 -0.054702
H7    H     H_    0.439685 0.317076 0.797936 0.180972
C30   C     C_R   0.388948 0.529051 0.794878 0.246145
C31   C     C_3   0.068612 0.638656 0.535828 0.093688
C32   C     C_3   0.075354 0.371291 0.540733 0.066144
H8    H     H_    0.082515 0.715386 0.500895 0.141537
H9    H     H_    0.104976 0.283904 0.511600 0.153203
C33   C     C_3   0.925670 0.625394 0.544584 0.045359
C34   C     C_3   0.930364 0.366501 0.542057 0.043480
H10   H     H_    0.885885 0.716931 0.524903 0.204716
H11   H     H_    0.904790 0.276077 0.515509 0.192214
H12   H     H_    0.114784 0.585400 0.420853 0.220791
H13   H     H_    0.129611 0.410892 0.420115 0.230936
C35   C     C_3   0.081286 0.494925 0.444736 -0.601139
C36   C     C_3   0.123971 0.501946 0.509141 -0.211431
C37   C     C_3   0.880079 0.495779 0.509017 -0.394980
C38   C     C_3   0.937615 0.486898 0.442757 0.418808
C39   C     C_3   0.376036 0.080378 0.483524 -0.365153
C40   C     C_3   0.378759 0.919457 0.479646 -0.366103
H14   H     H_    0.340519 0.122698 0.442326 0.183732
H15   H     H_    0.357319 0.884521 0.434292 0.175665
H16   H     H_    0.304653 0.112502 0.517147 0.226419
H17   H     H_    0.301551 0.879904 0.507653 0.219137
C41   C     C_3   0.591268 0.078251 0.454286 -0.157398
C42   C     C_3   0.597841 0.917595 0.457649 -0.194388
C43   C     C_3   0.523387 0.083187 0.558683 0.158700
C44   C     C_3   0.516024 0.922834 0.559377 0.155094
N3    N     N_3   0.499750 0.138610 0.498760 -0.151490
N4    N     N_3   0.499750 0.861390 0.498760 -0.151720
H18   H     H_    0.446970 0.121122 0.588898 0.123466
H19   H     H_    0.431018 0.898471 0.586199 0.104466
H20   H     H_    0.684383 0.118063 0.462815 0.242077
H21   H     H_    0.690517 0.891867 0.473817 0.234334
N5    N     N_R   0.131466 0.699926 0.586493 0.258720
O13   O     O_R   0.221151 0.638893 0.612625 -0.388089
O14   O     O_R   0.105783 0.824995 0.601585 -0.307209
N6    N     N_R   0.133742 0.348284 0.597893 0.259265
O15   O     O_R   0.106925 0.422534 0.644396 -0.228541
O16   O     O_R   0.205886 0.243528 0.603779 -0.382982
N7    N     N_R   0.880189 0.627590 0.606988 0.287886
O17   O     O_R   0.762083 0.637941 0.618660 -0.281263
O18   O     O_R   0.953012 0.622605 0.651686 -0.201065
N8    N     N_R   0.877351 0.341203 0.601619 0.300608
O19   O     O_R   0.766132 0.382821 0.616162 -0.312952
O20   O     O_R   0.919826 0.238899 0.630588 -0.191614
N9    N     N_R   0.894027 0.599869 0.406347 0.229226
O21   O     O_R   0.916301 0.724716 0.421650 -0.357991
O22   O     O_R   0.860117 0.576361 0.352444 -0.292702
N10   N     N_R   0.902057 0.356600 0.413998 0.213600
O23   O     O_R   0.788928 0.338601 0.397732 -0.372953
O24   O     O_R   0.978534 0.254249 0.407975 -0.367458
C45   C     C_2   0.043671 0.298258 0.057396 0.570496
H22   H     H_    0.995440 0.327811 0.098209 0.134580
O25   O     O_2   0.011169 0.195186 0.031727 -0.504833
C46   C     C_2   0.570761 0.125476 0.391694 0.476389
H23   H     H_    0.479893 0.150228 0.375775 0.070157
O26   O     O_2   0.657567 0.124883 0.356073 -0.449315
C47   C     C_2   0.596630 0.851545 0.396710 0.604864
H24   H     H_    0.514331 0.855655 0.370262 0.041434
O27   O     O_2   0.689654 0.797423 0.375256 -0.438501
N11   N     N_R   0.637596 0.134074 0.584861 0.272519
O28   O     O_R   0.743116 0.125426 0.556281 -0.342250
O29   O     O_R   0.640166 0.147127 0.642006 -0.297907
N12   N     N_R   0.619149 0.863833 0.591378 0.273145
O30   O     O_R   0.731967 0.868998 0.570345 -0.315506
O31   O     O_R   0.603824 0.845637 0.647791 -0.312265
N13   N     N_R   0.502459 0.863122 0.075988 0.257621
O32   O     O_R   0.484716 0.990797 0.065731 -0.281939
O33   O     O_R   0.601789 0.826194 0.103064 -0.253952
N14   N     N_R   0.509244 0.395590 0.171400 0.226128
O34   O     O_R   0.461311 0.298054 0.140356 -0.275807
O35   O     O_R   0.610734 0.452699 0.152614 -0.313614
C48   C     C_2   0.628620 0.379655 0.283343 0.611976
H25   H     H_    0.691504 0.422668 0.314402 0.140936
O36   O     O_2   0.662922 0.284121 0.251918 -0.416177
C49   C     C_2   0.155286 0.652541 0.263419 0.561135
H26   H     H_    0.109349 0.655922 0.221436 0.084121
O37   O     O_2   0.107518 0.712485 0.305885 -0.493669

loop_
_geom_bond_atom_site_label_1
_geom_bond_atom_site_label_2
_geom_bond_distance
_ccdc_geom_bond_type
N6    O15   1.297988 A    
C49   H26   1.084890 S    
C32   C34   1.564307 S    
C7    C10   1.400269 A    
C8    C9    1.405886 A    
C15   N13   1.432167 S    
C31   N5    1.471068 S    
N12   O30   1.297218 A    
C48   H25   1.073961 S    
C31   C36   1.576505 S    
C25   H4    1.083085 S    
Zn1   O7    1.946386 S    
C46   O26   1.220578 D    
C15   C16   1.392468 A    
N8    O19   1.297584 A    
C18   O12   1.348676 S    
C17   N2    1.364400 A    
C19   C20   1.410241 A    
C43   N3    1.501225 S    
N13   O33   1.301252 A    
C34   C37   1.591698 S    
C20   C21   1.409203 A    
O7    C4    1.303899 A    
C48   O36   1.221051 D    
C10   H1    1.083826 S    
C33   H10   1.104753 S    
C5    N1    1.370410 A    
C47   H24   1.084504 S    
C7    C8    1.405598 A    
C40   H15   1.108683 S    
O5    C3    1.309898 A    
N1    C30   1.437161 S    
H12   C35   1.111962 S    
C25   C30   1.397699 A    
C33   C37   1.588205 S    
N11   O28   1.296536 A    
C25   C26   1.385677 A    
N1    C6    1.370235 A    
C28   C29   1.397056 A    
N9    O22   1.301387 A    
C12   C13   1.420103 A    
C40   H17   1.112124 S    
C20   C48   1.475382 S    
Zn2   O8    1.931947 S    
C22   C23   1.396489 A    
C37   C38   1.610994 S    
C17   O11   1.347699 S    
C42   C47   1.516801 S    
N8    O20   1.302515 A    
C10   C11   1.403343 A    
N2    C24   1.433338 S    
Zn2   N3    2.039572 S    
C1    C36   1.461121 S    
C41   H20   1.101631 S    
O3    Zn1   1.931641 S    
C32   C36   1.575240 S    
N14   O35   1.301103 A    
C26   C27   1.406436 A    
C3    C37   1.494945 S    
C44   N4    1.506391 S    
C39   N3    1.502685 S    
C5    C9    1.398611 A    
C31   H8    1.114922 S    
C34   H11   1.108248 S    
C41   C42   1.591960 S    
C29   H7    1.082715 S    
C35   C38   1.553827 S    
N5    O13   1.297635 A    
C13   C14   1.418568 A    
O3    C2    1.303037 A    
C21   C22   1.402807 A    
C39   C40   1.590916 S    
C4    C27   1.474070 S    
C14   C15   1.419960 A    
O1    C1    1.295303 A    
C19   C24   1.411249 A    
N2    C18   1.363387 A    
N7    O18   1.298985 A    
N10   O23   1.296054 A    
C44   H19   1.117488 S    
C39   H16   1.109741 S    
N9    O21   1.300925 A    
C6    C7    1.405353 A    
N11   O29   1.300270 A    
C12   C17   1.413487 A    
C43   C44   1.587514 S    
C45   O25   1.221444 D    
C33   N7    1.485051 S    
Zn2   O6    2.036596 S    
C22   H3    1.082050 S    
N10   O24   1.303085 A    
O8    C4    1.312175 A    
C32   H9    1.116717 S    
C38   N9    1.481616 S    
C40   N4    1.498754 S    
C23   C24   1.403695 A    
C44   N12   1.466323 S    
N14   O34   1.300555 A    
Zn1   N4    2.040555 S    
C31   C33   1.556167 S    
C14   C18   1.402670 A    
Zn1   O5    2.030798 S    
C26   H5    1.080580 S    
C27   C28   1.402369 A    
C49   O37   1.221146 D    
O1    Zn1   2.037326 S    
C11   C12   1.424588 A    
O2    Zn2   2.031525 S    
C43   H18   1.116067 S    
N5    O14   1.301894 A    
O6    C3    1.299329 A    
O4    Zn2   1.946056 S    
N12   O31   1.301239 A    
C5    O9    1.350391 S    
C9    C16   1.398261 A    
C38   N10   1.489269 S    
C16   H2    1.083904 S    
C46   H23   1.080744 S    
C11   C45   1.486008 S    
C35   C36   1.542251 S    
N6    O16   1.301118 A    
C8    C13   1.411011 A    
N13   O32   1.300850 A    
C41   C46   1.522882 S    
C42   H21   1.102779 S    
N7    O17   1.297211 A    
O4    C2    1.311560 A    
C19   N14   1.435155 S    
C43   N11   1.468730 S    
C47   O27   1.219048 D    
O2    C1    1.298576 A    
C32   N6    1.475543 S    
C45   H22   1.083792 S    
C23   C49   1.483563 S    
H13   C35   1.110636 S    
C39   H14   1.106449 S    
C28   H6    1.075769 S    
C41   N3    1.504551 S    
C6    O10   1.349478 S    
C2    C21   1.471047 S    
C34   N8    1.479188 S    
C29   C30   1.404260 A    
C42   N4    1.508243 S    
