data_mof_unit_16384.cif
_audit_creation_date              2012-12-11T15:34:24-0500
_audit_creation_method            fapswitch 2.2
_symmetry_space_group_name_H-M    P1
_symmetry_Int_Tables_number       1
_space_group_crystal_system       triclinic
_cell_length_a                    15.066823
_cell_length_b                    15.078294
_cell_length_c                    34.923013
_cell_angle_alpha                 90.513358
_cell_angle_beta                  89.9796
_cell_angle_gamma                 60.068103
_cell_volume                      6875.26889118

loop_
_atom_site_label
_atom_site_type_symbol
_atom_type_description
_atom_site_fract_x
_atom_site_fract_y
_atom_site_fract_z
_atom_type_partial_charge
C1    C     C_R   0.302520 0.608228 0.555741 0.543341
C2    C     C_R   0.657708 0.661712 0.668665 0.033546
C3    C     C_R   0.263090 0.655459 0.266203 -0.115004
C4    C     C_R   0.199201 0.633892 0.288790 0.026427
C5    C     C_R   0.130884 0.608988 0.271184 -0.116101
C6    C     C_R   0.123122 0.610317 0.231453 -0.112416
C7    C     C_R   0.184148 0.635866 0.208839 0.026025
C8    C     C_R   0.214388 0.555373 0.352544 -0.122008
C9    C     C_R   0.236286 0.550979 0.391448 -0.126392
C10   C     C_R   0.229430 0.714854 0.387619 -0.124590
C11   C     C_R   0.208081 0.718882 0.348733 -0.121591
C12   C     C_R   0.204818 0.637151 0.330685 0.030070
C13   C     C_R   0.565966 0.726653 0.649632 -0.124229
C14   C     C_R   0.248802 0.628425 0.408873 0.022510
C15   C     C_R   0.736005 0.025423 0.943314 0.542395
C16   C     C_R   0.745944 0.722875 0.945069 0.545621
C17   C     C_R   0.038245 0.734030 0.948336 0.542815
C18   C     C_R   0.723040 0.038685 0.052845 0.543938
C19   C     C_R   0.733533 0.734555 0.054794 0.545672
C20   C     C_R   0.027811 0.744593 0.057764 0.545401
C21   C     C_R   0.553168 0.707686 0.611457 -0.133281
C22   C     C_R   0.673445 0.674704 0.788051 0.345208
C23   C     C_R   0.665216 0.669454 0.710507 0.344904
C24   C     C_R   0.762408 0.599143 0.849512 -0.122832
C25   C     C_R   0.778841 0.609863 0.888094 -0.130637
C26   C     C_R   0.628007 0.778676 0.889152 -0.131504
C27   C     C_R   0.611439 0.767833 0.850553 -0.124503
C28   C     C_R   0.680964 0.679695 0.830002 0.034231
C29   C     C_R   0.610743 0.588467 0.555194 0.545894
C30   C     C_R   0.714315 0.701497 0.907829 0.023317
C31   C     C_R   0.723305 0.072323 0.905391 0.021834
C32   C     C_R   0.633216 0.101569 0.884585 -0.124150
C33   C     C_R   0.629599 0.121710 0.845635 -0.119882
C34   C     C_R   0.715534 0.113905 0.826871 0.031022
C35   C     C_R   0.802670 0.093059 0.848133 -0.120572
C36   C     C_R   0.806666 0.072167 0.887165 -0.126047
C37   C     C_R   0.747478 0.183687 0.767109 -0.114190
C38   C     C_R   0.741056 0.194849 0.727418 -0.111309
C39   C     C_R   0.703842 0.142691 0.704910 0.026895
C40   C     C_R   0.590403 0.300274 0.553489 0.544322
C41   C     C_R   0.676955 0.076228 0.722685 -0.115267
C42   C     C_R   0.682546 0.065823 0.762325 -0.113369
C43   C     C_R   0.715812 0.121079 0.784868 0.024958
C44   C     C_R   0.591948 0.180308 0.647679 -0.118140
C45   C     C_R   0.564662 0.217617 0.610650 -0.125227
C46   C     C_R   0.723711 0.219692 0.604064 -0.125342
C47   C     C_R   0.751166 0.181976 0.641088 -0.119994
C48   C     C_R   0.683887 0.165374 0.663706 0.032570
C49   C     C_R   0.628522 0.241304 0.589031 0.021497
C50   C     C_R   0.091725 0.697426 0.911245 0.021615
C51   C     C_R   0.300376 0.610164 0.446047 0.543624
C52   C     C_R   0.121926 0.758349 0.891089 -0.124493
C53   C     C_R   0.145468 0.740860 0.852225 -0.120734
C54   C     C_R   0.140355 0.661574 0.832956 0.030932
C55   C     C_R   0.119932 0.594519 0.853731 -0.117455
C56   C     C_R   0.095560 0.612410 0.892656 -0.125578
C57   C     C_R   0.210329 0.561700 0.772130 -0.109892
C58   C     C_R   0.218602 0.557702 0.732264 -0.106938
C59   C     C_R   0.162861 0.646919 0.710558 0.032613
C60   C     C_R   0.096519 0.739443 0.729411 -0.110356
C61   C     C_R   0.089084 0.743554 0.769201 -0.107798
C62   C     C_R   0.607768 0.589476 0.445159 0.542282
C63   C     C_R   0.147170 0.655117 0.790870 0.031159
C64   C     C_R   0.190779 0.723924 0.652038 -0.117164
C65   C     C_R   0.223199 0.715409 0.614148 -0.124922
C66   C     C_R   0.230065 0.551858 0.608340 -0.127176
C67   C     C_R   0.197210 0.560610 0.646250 -0.119916
C68   C     C_R   0.180812 0.645008 0.668850 0.033424
C69   C     C_R   0.246963 0.627472 0.592393 0.021332
C70   C     C_R   0.691666 0.718740 0.090678 -0.011429
C71   C     C_R   0.599243 0.797162 0.106218 -0.094233
C72   C     C_R   0.569331 0.790068 0.143482 0.162650
C73   C     C_R   0.587736 0.303152 0.443690 0.542857
C74   C     C_R   0.632715 0.703714 0.165741 0.038028
C75   C     C_R   0.720920 0.622378 0.149088 -0.154830
C76   C     C_R   0.750039 0.629637 0.111951 -0.136468
C77   C     C_R   0.618785 0.613073 0.222819 -0.116270
C78   C     C_R   0.619228 0.601993 0.262422 -0.120524
C79   C     C_R   0.616066 0.677831 0.286970 0.023205
C80   C     C_R   0.608885 0.766530 0.271392 -0.113516
C81   C     C_R   0.609750 0.777013 0.231741 -0.072860
C82   C     C_R   0.615476 0.700007 0.207160 0.059158
C83   C     C_R   0.551038 0.737644 0.353462 -0.120037
C84   C     C_R   0.631954 0.623513 0.591749 0.022532
C85   C     C_R   0.550647 0.717143 0.392377 -0.126863
C86   C     C_R   0.699977 0.549480 0.382647 -0.124135
C87   C     C_R   0.699427 0.569512 0.343758 -0.122581
C88   C     C_R   0.623107 0.662374 0.328700 0.029171
C89   C     C_R   0.623135 0.621480 0.407087 0.022461
C90   C     C_R   0.699258 0.101498 0.087912 0.018714
C91   C     C_R   0.772971 0.121768 0.103889 -0.126102
C92   C     C_R   0.760293 0.161095 0.140999 -0.122461
C93   C     C_R   0.673825 0.180658 0.162666 0.028189
C94   C     C_R   0.596032 0.168899 0.145473 -0.112412
C95   C     C_R   0.726679 0.564252 0.609800 -0.130576
C96   C     C_R   0.608531 0.129844 0.108346 -0.119046
C97   C     C_R   0.578104 0.268680 0.222481 -0.116204
C98   C     C_R   0.572273 0.275227 0.262296 -0.115070
C99   C     C_R   0.658835 0.213154 0.284474 0.027151
C100  C     C_R   0.752290 0.147447 0.266313 -0.115835
C101  C     C_R   0.758056 0.140529 0.226499 -0.111296
C102  C     C_R   0.670560 0.199760 0.204259 0.028852
C103  C     C_R   0.723299 0.227138 0.348676 -0.122867
C104  C     C_R   0.707638 0.245855 0.387944 -0.127502
C105  C     C_R   0.551872 0.236469 0.383750 -0.125299
C106  C     C_R   0.739419 0.583146 0.647917 -0.123200
C107  C     C_R   0.567357 0.218267 0.344507 -0.121597
C108  C     C_R   0.650938 0.217527 0.326502 0.030683
C109  C     C_R   0.619358 0.255146 0.405519 0.022547
C110  C     C_R   0.086631 0.706633 0.093271 0.020492
C111  C     C_R   0.104035 0.613798 0.108909 -0.126606
C112  C     C_R   0.142677 0.586846 0.145797 -0.122336
C113  C     C_R   0.164424 0.652290 0.167529 0.028415
C114  C     C_R   0.154749 0.740947 0.150766 -0.112774
C115  C     C_R   0.116295 0.767850 0.113875 -0.119988
C116  C     C_R   0.255725 0.656308 0.226485 -0.116883
Cr1   Cr    Cr6+3 0.421670 0.426920 0.499620 1.010189
Cr2   Cr    Cr6+3 0.427030 0.651190 0.500980 1.011287
Cr3   Cr    Cr6+3 0.651280 0.421870 0.499380 1.010409
Cr4   Cr    Cr6+3 0.910810 0.908010 0.001130 1.014979
Cr5   Cr    Cr6+3 0.682800 0.909890 0.998370 1.019251
Cr6   Cr    Cr6+3 0.908370 0.682300 0.002180 1.013494
H1    H     H_    0.789218 0.499538 0.595202 0.129265
H2    H     H_    0.877207 0.049752 0.902423 0.126411
H3    H     H_    0.823354 0.169261 0.652523 0.102748
H4    H     H_    0.760907 0.247778 0.714565 0.112846
H5    H     H_    0.773376 0.226882 0.784047 0.111259
H6    H     H_    0.560840 0.139844 0.829815 0.106907
H7    H     H_    0.649764 0.033773 0.705989 0.112142
H8    H     H_    0.659997 0.015207 0.775478 0.118408
H9    H     H_    0.538031 0.169153 0.664533 0.104101
H10   H     H_    0.490823 0.233466 0.599875 0.127375
H11   H     H_    0.869662 0.087027 0.834136 0.103196
H12   H     H_    0.479418 0.755085 0.598216 0.127719
H13   H     H_    0.774953 0.236399 0.587940 0.124740
H14   H     H_    0.120556 0.823933 0.904623 0.128533
H15   H     H_    0.072770 0.564014 0.907421 0.126353
H16   H     H_    0.188130 0.499655 0.658293 0.104130
H17   H     H_    0.271569 0.485594 0.718567 0.105766
H18   H     H_    0.255568 0.492666 0.788386 0.105808
H19   H     H_    0.163142 0.792176 0.836775 0.108646
H20   H     H_    0.051322 0.808938 0.713407 0.106396
H21   H     H_    0.037911 0.815998 0.783129 0.110533
H22   H     H_    0.179599 0.789517 0.668795 0.105273
H23   H     H_    0.845639 0.548721 0.901764 0.129114
H24   H     H_    0.235459 0.774991 0.602702 0.126971
H25   H     H_    0.115991 0.532640 0.839349 0.108633
H26   H     H_    0.247076 0.483468 0.592189 0.123906
H27   H     H_    0.552043 0.865837 0.090042 0.156409
H28   H     H_    0.821344 0.567577 0.100744 0.138397
H29   H     H_    0.756753 0.511122 0.325154 0.105454
H30   H     H_    0.623412 0.533538 0.273946 0.113366
H31   H     H_    0.623984 0.552520 0.204353 0.111288
H32   H     H_    0.606962 0.825536 0.289880 0.108597
H33   H     H_    0.811761 0.532916 0.661587 0.131366
H34   H     H_    0.610273 0.843250 0.220272 0.145292
H35   H     H_    0.491749 0.809955 0.342350 0.109462
H36   H     H_    0.490383 0.774005 0.410497 0.121387
H37   H     H_    0.770689 0.555257 0.165637 0.112201
H38   H     H_    0.756668 0.474924 0.392990 0.126710
H39   H     H_    0.843141 0.101869 0.088600 0.127728
H40   H     H_    0.550156 0.115547 0.096713 0.142093
H41   H     H_    0.511893 0.208667 0.327941 0.107507
H42   H     H_    0.499941 0.328335 0.275813 0.111653
H43   H     H_    0.509972 0.315981 0.205944 0.108591
H44   H     H_    0.501976 0.788603 0.664738 0.130791
H45   H     H_    0.820381 0.171458 0.153443 0.106587
H46   H     H_    0.819852 0.098904 0.282930 0.106463
H47   H     H_    0.829871 0.085398 0.213197 0.109205
H48   H     H_    0.788523 0.226461 0.335313 0.102100
H49   H     H_    0.761078 0.259799 0.403974 0.123019
H50   H     H_    0.528833 0.182791 0.161618 0.120392
H51   H     H_    0.483428 0.242621 0.396475 0.127310
H52   H     H_    0.083073 0.564427 0.093449 0.127158
H53   H     H_    0.104317 0.839517 0.102438 0.137190
H54   H     H_    0.198538 0.783753 0.332370 0.108835
H55   H     H_    0.816322 0.529466 0.834614 0.130604
H56   H     H_    0.318204 0.672343 0.279338 0.117086
H57   H     H_    0.304389 0.674958 0.209587 0.123510
H58   H     H_    0.151270 0.517191 0.157981 0.106882
H59   H     H_    0.081119 0.592074 0.288194 0.105762
H60   H     H_    0.066084 0.595968 0.218539 0.107076
H61   H     H_    0.211622 0.491802 0.339083 0.103455
H62   H     H_    0.250371 0.483619 0.407170 0.124411
H63   H     H_    0.170311 0.793106 0.167048 0.122682
H64   H     H_    0.237791 0.776070 0.400309 0.128958
H65   H     H_    0.576568 0.850026 0.903673 0.128218
H66   H     H_    0.547237 0.830760 0.836417 0.129877
H67   H     H_    0.567461 0.103065 0.897824 0.128563
N1    N     N_R   0.750375 0.597843 0.767611 -0.237846
N2    N     N_R   0.746185 0.595099 0.729639 -0.238030
N3    N     N_R   0.588249 0.746536 0.730921 -0.240033
N4    N     N_R   0.592569 0.749426 0.768942 -0.240036
O1    O     O_R   0.502070 0.323090 0.541280 -0.520216
O2    O     O_R   0.520720 0.641670 0.461580 -0.501165
O3    O     O_R   0.674120 0.502090 0.457500 -0.521271
O4    O     O_R   0.640110 0.338380 0.459630 -0.504004
O5    O     O_3   0.499990 0.499990 0.499990 -0.235361
O6    O     O_R   0.017640 0.822070 0.960410 -0.520142
O7    O     O_R   0.822000 0.989470 0.960340 -0.503124
O8    O     O_R   0.666920 0.007430 0.955290 -0.519939
O9    O     O_R   0.694410 0.812480 0.959650 -0.502105
O10   O     O_R   0.831550 0.656950 0.958960 -0.520597
O11   O     O_R   0.998590 0.685540 0.963930 -0.502715
O12   O     O_R   0.338340 0.520690 0.539540 -0.502465
O13   O     O_R   0.008220 0.831200 0.045060 -0.518051
O14   O     O_R   0.813270 0.997930 0.038810 -0.502151
O15   O     O_R   0.657500 0.016560 0.039940 -0.517099
O16   O     O_R   0.685680 0.820940 0.038120 -0.500924
O17   O     O_R   0.822130 0.666070 0.043610 -0.517074
O18   O     O_R   0.989860 0.694000 0.042400 -0.503029
O19   O     O_3   0.833990 0.833400 0.000560 -0.237322
O20   O     O_R   0.324760 0.674070 0.543580 -0.520890
O21   O     O_R   0.522400 0.640310 0.540110 -0.502950
O22   O     O_R   0.675940 0.500630 0.542210 -0.519109
O23   O     O_R   0.641790 0.337020 0.538150 -0.501779
O24   O     O_R   0.500260 0.324550 0.456580 -0.520464
O25   O     O_R   0.336660 0.522040 0.461020 -0.503372
O26   O     O_R   0.322940 0.675540 0.458880 -0.519992
Br1   Br    Br    0.441746 0.899954 0.162547 -0.570862

loop_
_geom_bond_atom_site_label_1
_geom_bond_atom_site_label_2
_ccdc_geom_bond_type
C58   H17   S    
Cr6   O10   S    
C41   H7    S    
C55   C56   A    
Cr3   O22   S    
N1    N2    A    
C56   H15   S    
C111  H52   S    
C41   C42   A    
Cr3   O23   S    
C35   C36   A    
C20   O13   A    
C87   C88   A    
C35   H11   S    
C23   N2    A    
C97   C98   A    
C90   C91   A    
C78   H30   S    
C104  C109  A    
C39   C41   A    
C40   O1    A    
C77   C78   A    
C44   C45   A    
C44   H9    S    
C99   C108  S    
C105  C107  A    
C46   C49   A    
C11   H54   S    
C93   C94   A    
C114  H63   S    
C6    H60   S    
C64   C68   A    
C92   C93   A    
C36   H2    S    
C3    H56   S    
Cr5   O9    S    
C34   C35   A    
Cr1   O12   S    
C3    C116  A    
C31   C36   A    
C5    C6    A    
C65   C69   A    
Cr5   O19   S    
C66   C69   A    
C54   C63   S    
C16   C30   S    
C40   C49   S    
Cr3   O5    S    
C62   C89   S    
Cr4   O6    S    
C18   O15   A    
Cr3   O3    S    
C20   O18   A    
Cr6   O11   S    
C61   C63   A    
C2    C13   A    
C110  C111  A    
C112  C113  A    
C115  H53   S    
Cr1   O1    S    
C105  H51   S    
C77   H31   S    
C46   H13   S    
C46   C47   A    
C61   H21   S    
C47   C48   A    
C8    C9    A    
C67   H16   S    
C73   O4    A    
C103  H48   S    
C50   C52   A    
C107  C108  A    
Cr6   O17   S    
C22   N4    A    
Cr1   O24   S    
C103  C108  A    
Cr5   O16   S    
C22   N1    A    
C16   O10   A    
C1    O12   A    
C66   H26   S    
C97   C102  A    
C112  H58   S    
C60   H20   S    
C1    C69   S    
C83   C88   A    
C59   C60   A    
C87   H29   S    
C62   O2    A    
C74   C82   S    
C16   O9    A    
C5    H59   S    
C79   C88   S    
C38   H4    S    
C103  C104  A    
C114  C115  A    
C57   C58   A    
C2    C23   S    
C51   O25   A    
C38   C39   A    
C72   Br1   S    
C47   H3    S    
C74   C75   A    
C13   C21   A    
C67   C68   A    
C18   C90   S    
C101  C102  A    
C24   C25   A    
C29   C84   S    
C72   C74   A    
C10   C14   A    
C91   C92   A    
C9    C14   A    
C85   C89   A    
C78   C79   A    
C4    C5    A    
C64   H22   S    
C51   O26   A    
C58   C59   A    
C53   C54   A    
C15   C31   S    
C2    C106  A    
C33   H6    S    
C81   C82   A    
C57   H18   S    
C60   C61   A    
C84   C95   A    
C7    C116  A    
C37   C43   A    
C17   O11   A    
C75   C76   A    
C37   C38   A    
C10   H64   S    
C95   C106  A    
C59   C68   S    
C26   H65   S    
C55   H25   S    
C14   C51   S    
C83   H35   S    
C21   C84   A    
C45   C49   A    
C8    C12   A    
C40   O23   A    
C33   C34   A    
C26   C27   A    
C73   O24   A    
Cr1   O25   S    
Cr2   O21   S    
C94   C96   A    
Cr2   O2    S    
C81   H34   S    
C70   C71   A    
C104  H49   S    
C20   C110  S    
C62   O3    A    
C8    H61   S    
C83   C85   A    
C107  H41   S    
C106  H33   S    
C1    O20   A    
C52   H14   S    
Cr6   O19   S    
C4    C12   S    
C42   C43   A    
C3    C4    A    
Cr2   O5    S    
C21   H12   S    
Cr2   O26   S    
C52   C53   A    
C86   C87   A    
C113  C114  A    
C75   H37   S    
C25   C30   A    
C105  C109  A    
C54   C55   A    
C25   H23   S    
C15   O8    A    
C111  C112  A    
C19   O16   A    
Cr3   O4    S    
Cr4   O14   S    
C31   C32   A    
C91   H39   S    
C34   C43   S    
C24   C28   A    
C57   C63   A    
C80   C81   A    
C86   C89   A    
C93   C102  S    
C98   H42   S    
C11   C12   A    
C90   C96   A    
C6    C7    A    
C17   C50   S    
C86   H38   S    
C94   H50   S    
C42   H8    S    
C99   C100  A    
C100  H46   S    
Cr4   O13   S    
N3    N4    A    
C7    C113  S    
Cr5   O8    S    
C71   C72   A    
C9    H62   S    
C64   C65   A    
C70   C76   A    
C15   O7    A    
C92   H45   S    
C29   O21   A    
C71   H27   S    
C13   H44   S    
C77   C82   A    
C97   H43   S    
C80   H32   S    
C100  C101  A    
Cr4   O7    S    
C96   H40   S    
C32   H67   S    
C66   C67   A    
Cr2   O20   S    
C53   H19   S    
C73   C109  S    
C101  H47   S    
C32   C33   A    
C23   N3    A    
C50   C56   A    
C29   O22   A    
C10   C11   A    
C79   C80   A    
Cr4   O19   S    
C76   H28   S    
C45   H10   S    
C98   C99   A    
C85   H36   S    
C116  H57   S    
C24   H55   S    
Cr6   O18   S    
C18   O14   A    
C19   C70   S    
C22   C28   S    
Cr5   O15   S    
C37   H5    S    
C65   H24   S    
C17   O6    A    
C27   H66   S    
C110  C115  A    
Cr1   O5    S    
C44   C48   A    
C19   O17   A    
C95   H1    S    
C39   C48   S    
C27   C28   A    
C26   C30   A    
