data_mof_unit_34941.cif
_audit_creation_date              2012-12-10T18:18:17-0500
_audit_creation_method            fapswitch 2.2
_symmetry_space_group_name_H-M    P1
_symmetry_Int_Tables_number       1
_space_group_crystal_system       triclinic
_cell_length_a                    14.007516
_cell_length_b                    15.013933
_cell_length_c                    15.385898
_cell_angle_alpha                 89.914062
_cell_angle_beta                  68.054755
_cell_angle_gamma                 90.047394
_cell_volume                      3001.30955077

loop_
_atom_site_label
_atom_site_type_symbol
_atom_type_description
_atom_site_fract_x
_atom_site_fract_y
_atom_site_fract_z
_atom_type_partial_charge
C1    C     C_R   0.500043 0.673548 0.499906 0.895147
C2    C     C_R   0.500038 0.769413 0.499951 -0.077856
C3    C     C_R   0.585130 0.184844 0.504222 -0.264057
C4    C     C_R   0.414416 0.815124 0.496796 -0.267949
C5    C     C_R   0.585763 0.092714 0.504271 0.119955
C6    C     C_R   0.413600 0.907249 0.497155 0.120769
C7    C     C_R   0.499584 0.046319 0.500923 0.060669
C8    C     C_R   0.499723 0.953643 0.500626 0.060762
C9    C     C_R   0.413318 0.092585 0.497760 0.118941
C10   C     C_R   0.586025 0.907378 0.503710 0.118118
C11   C     C_R   0.671086 0.046380 0.507438 -0.220173
C12   C     C_R   0.499885 0.326445 0.500259 0.898164
C13   C     C_R   0.328221 0.953579 0.494110 -0.221747
C14   C     C_R   0.671222 0.953840 0.507147 -0.219459
C15   C     C_R   0.328069 0.046120 0.494437 -0.220219
C16   C     C_R   0.436093 0.500131 0.676464 0.866951
C17   C     C_R   0.563930 0.503336 0.323399 0.874660
C18   C     C_R   0.180740 0.437535 0.551335 -0.066813
C19   C     C_R   0.819297 0.562376 0.448576 -0.067154
C20   C     C_R   0.222644 0.562823 0.449337 -0.071411
C21   C     C_R   0.776837 0.437920 0.551753 -0.065786
C22   C     C_R   0.122609 0.564208 0.447910 0.018489
C23   C     C_R   0.452068 0.651727 0.055386 -0.191910
C24   C     C_R   0.876896 0.436503 0.553166 0.016400
C25   C     C_R   0.050432 0.500223 0.500379 0.085610
C26   C     C_R   0.949211 0.500264 0.500391 0.086274
C27   C     C_R   0.079401 0.436267 0.552920 0.018163
C28   C     C_R   0.920369 0.564048 0.447590 0.016808
C29   C     C_R   0.093160 0.627771 0.395570 -0.207441
C30   C     C_R   0.906266 0.373126 0.605744 -0.216953
C31   C     C_R   0.992936 0.627632 0.395335 -0.208426
C32   C     C_R   0.006683 0.372945 0.605534 -0.210890
C33   C     C_R   0.398855 0.522101 0.775685 -0.102146
C34   C     C_R   0.636571 0.502198 0.886801 -0.182759
C35   C     C_R   0.605489 0.512089 0.220885 -0.098473
C36   C     C_R   0.317232 0.635808 0.890627 -0.205712
C37   C     C_R   0.739335 0.474225 0.072533 -0.202659
C38   C     C_R   0.325312 0.589593 0.809806 -0.218692
C39   C     C_R   0.703440 0.477842 0.169651 -0.225855
C40   C     C_R   0.458941 0.496383 0.826691 0.039818
C41   C     C_R   0.547276 0.552628 0.173563 0.028262
C42   C     C_R   0.464001 0.552644 0.897886 0.095374
C43   C     C_R   0.584694 0.551232 0.074486 0.089014
C44   C     C_R   0.387931 0.619571 0.933493 0.135142
C45   C     C_R   0.385099 0.670575 0.010118 -0.241682
C46   C     C_R   0.677976 0.505371 0.025270 0.136000
C47   C     C_R   0.541217 0.543636 0.935875 0.068827
C48   C     C_R   0.525306 0.582666 0.023471 0.066449
C49   C     C_R   0.706032 0.486719 0.930111 -0.241230
C50   C     C_R   0.413952 0.184720 0.497783 -0.261111
C51   C     C_R   0.585556 0.815248 0.503322 -0.258104
C52   C     C_R   0.499637 0.230563 0.500783 -0.080072
H1    H     H_    0.329813 0.724042 0.036189 0.146741
H2    H     H_    0.027449 0.323297 0.646503 0.139418
H3    H     H_    0.749894 0.448819 0.205018 0.166716
H4    H     H_    0.278557 0.610203 0.770979 0.165393
H5    H     H_    0.260120 0.687967 0.916102 0.143790
H6    H     H_    0.812365 0.442022 0.034815 0.143252
H7    H     H_    0.448886 0.694687 0.112656 0.172517
H8    H     H_    0.660108 0.484522 0.813733 0.167147
H9    H     H_    0.347838 0.220539 0.495202 0.160964
H10   H     H_    0.651721 0.779425 0.505786 0.161047
H11   H     H_    0.651244 0.220757 0.506811 0.159415
H12   H     H_    0.778362 0.454071 0.890935 0.150065
H13   H     H_    0.348391 0.779210 0.494011 0.158630
H14   H     H_    0.737499 0.081667 0.510038 0.145359
H15   H     H_    0.261831 0.918291 0.491462 0.144895
H16   H     H_    0.737727 0.918654 0.509547 0.145901
H17   H     H_    0.261572 0.081304 0.492017 0.145814
H18   H     H_    0.449103 0.631856 0.276152 0.184916
H19   H     H_    0.395069 0.534781 0.254221 0.224155
H20   H     H_    0.561226 0.404005 0.745390 0.188298
H21   H     H_    0.448485 0.361999 0.820399 0.181717
H22   H     H_    0.204597 0.388950 0.591198 0.129774
H23   H     H_    0.795594 0.610696 0.408349 0.130618
H24   H     H_    0.278844 0.611987 0.410245 0.126340
H25   H     H_    0.720165 0.389419 0.591746 0.123090
H26   H     H_    0.147659 0.677479 0.354720 0.140121
H27   H     H_    0.851653 0.323644 0.646902 0.139563
H28   H     H_    0.972188 0.677258 0.354331 0.139969
N1    N     N_R   0.249980 0.499930 0.499960 -0.098536
N2    N     N_R   0.750020 0.500070 0.500040 -0.098234
N3    N     N_3   0.446299 0.587144 0.225109 -0.485478
N4    N     N_3   0.505637 0.409533 0.812886 -0.474333
O1    O     O_R   0.419720 0.632140 0.499980 -0.631916
O2    O     O_R   0.580280 0.367860 0.500020 -0.628461
O3    O     O_R   0.580270 0.632160 0.499970 -0.623031
O4    O     O_R   0.419730 0.367840 0.500030 -0.623096
O5    O     O_R   0.373870 0.499980 0.632250 -0.611663
O6    O     O_R   0.626130 0.500020 0.367750 -0.611310
O7    O     O_R   0.534420 0.500000 0.632240 -0.612428
O8    O     O_R   0.465580 0.500000 0.367760 -0.619066
Zn1   Zn    Zn3+2 0.392800 0.499980 0.500010 0.934269
Zn2   Zn    Zn3+2 0.607200 0.500020 0.499990 0.939634

loop_
_geom_bond_atom_site_label_1
_geom_bond_atom_site_label_2
_ccdc_geom_bond_type
C1    O3    A    
C23   C45   A    
C22   C29   A    
C40   N4    S    
C2    C4    A    
C7    C8    A    
C23   H7    S    
C51   H10   S    
C46   C49   A    
N2    Zn2   S    
C24   C26   A    
C5    C11   A    
C4    H13   S    
C11   C14   A    
C41   N3    S    
O3    Zn2   S    
C18   N1    A    
C20   H24   S    
C1    C2    S    
O2    Zn2   S    
O1    Zn1   S    
C39   H3    S    
C29   H26   S    
C22   C25   A    
C50   C52   A    
C19   N2    A    
C43   C48   A    
H21   N4    S    
C37   H6    S    
C11   H14   S    
C40   C42   A    
C45   H1    S    
C16   O5    A    
C18   H22   S    
C49   H12   S    
C20   N1    A    
C34   H8    S    
C41   C43   A    
C17   O8    A    
C42   C44   A    
C10   C51   A    
C32   H2    S    
C12   C52   S    
O6    Zn2   S    
H19   N3    S    
C1    O1    A    
C15   H17   S    
C33   C40   A    
C18   C27   A    
C31   H28   S    
C4    C6    A    
C36   H5    S    
C10   C14   A    
C5    C7    A    
C12   O4    A    
C6    C8    A    
C25   C26   A    
C35   C39   A    
C19   C28   A    
C16   C33   S    
N1    Zn1   S    
C9    C50   A    
C47   C48   A    
H18   N3    S    
H20   N4    S    
C30   H27   S    
C8    C10   A    
C20   C22   A    
C13   C15   A    
C36   C44   A    
C44   C45   A    
C13   H15   S    
C7    C9    A    
O4    Zn1   S    
C34   C49   A    
C23   C48   A    
C27   C32   A    
C28   C31   A    
C17   O6    A    
C3    C5    A    
C3    C52   A    
C3    H11   S    
C25   C27   A    
C26   C28   A    
C33   C38   A    
C12   O2    A    
C19   H23   S    
C9    C15   A    
C29   C31   A    
O7    Zn2   S    
C30   C32   A    
C36   C38   A    
O8    Zn1   S    
C42   C47   A    
O5    Zn1   S    
C35   C41   A    
C43   C46   A    
C24   C30   A    
C2    C51   A    
C38   H4    S    
C21   N2    A    
C16   O7    A    
C37   C39   A    
C21   C24   A    
C21   H25   S    
C50   H9    S    
C14   H16   S    
C34   C47   A    
C17   C35   S    
C37   C46   A    
C6    C13   A    
