data_mof_unit_25675.cif
_audit_creation_date              2012-12-10T20:49:47-0500
_audit_creation_method            fapswitch 2.2
_symmetry_space_group_name_H-M    P1
_symmetry_Int_Tables_number       1
_space_group_crystal_system       triclinic
_cell_length_a                    8.114368
_cell_length_b                    8.926131
_cell_length_c                    16.965941
_cell_angle_alpha                 90.000486
_cell_angle_beta                  83.138463
_cell_angle_gamma                 90.000014
_cell_volume                      1220.04035918

loop_
_atom_site_label
_atom_site_type_symbol
_atom_type_description
_atom_site_fract_x
_atom_site_fract_y
_atom_site_fract_z
_atom_type_partial_charge
C1    C     C_R   0.500001 0.781968 0.499996 1.072430
C2    C     C_R   0.522583 0.650374 0.226164 -0.113948
C3    C     C_R   0.462849 0.661676 0.856190 0.324652
C4    C     C_R   0.537112 0.661763 0.143835 0.324888
C5    C     C_R   0.414762 0.536077 0.902859 -0.110848
C6    C     C_R   0.584973 0.536119 0.097151 -0.111075
C7    C     C_R   0.375457 0.399313 0.868673 0.426394
C8    C     C_R   0.624135 0.399291 0.131314 0.426341
C9    C     C_R   0.395010 0.384462 0.785359 -0.177346
C10   C     C_R   0.604716 0.384448 0.214626 -0.177321
C11   C     C_2   0.425088 0.542678 0.987525 -0.010159
C12   C     C_R   0.500000 0.218047 0.499998 0.890040
C13   C     C_2   0.574623 0.542784 0.012492 -0.010140
C14   C     C_2   0.520101 0.786299 0.725583 0.532013
C15   C     C_2   0.480325 0.786424 0.274459 0.531929
C16   C     C_2   0.635821 0.239059 0.254153 0.521918
C17   C     C_2   0.363813 0.239105 0.745811 0.521973
C18   C     C_1   0.500000 0.934891 0.499995 -0.075174
C19   C     C_1   0.500000 0.065284 0.499996 -0.156725
C20   C     C_R   0.474019 0.499000 0.652990 0.919931
C21   C     C_R   0.525980 0.499005 0.347011 0.919773
C22   C     C_R   0.448792 0.510829 0.738758 -0.237055
C23   C     C_R   0.551194 0.510863 0.261246 -0.236966
C24   C     C_R   0.477534 0.650288 0.773859 -0.113885
Cl1   Cl    Cl    0.303727 0.249128 0.932200 -0.381789
Cl2   Cl    Cl    0.695556 0.249022 0.067770 -0.381641
Cl3   Cl    Cl    0.501834 0.836112 0.098726 -0.403043
Cl4   Cl    Cl    0.498159 0.835994 0.901321 -0.403302
H1    H     H_    0.687414 0.537278 0.970957 0.185542
H2    H     H_    0.312317 0.536872 0.029060 0.185547
H3    H     H_    0.618007 0.860605 0.739981 0.115535
H4    H     H_    0.382452 0.860856 0.260131 0.115677
H5    H     H_    0.655970 0.236381 0.316145 0.037051
H6    H     H_    0.344064 0.236415 0.683765 0.036987
N1    N     N_1   0.926360 0.500000 0.499990 -0.024094
N2    N     N_1   0.073640 0.500000 0.500010 -0.024100
O1    O     O_R   0.363150 0.714660 0.500000 -0.609426
O2    O     O_2   0.561081 0.820704 0.327827 -0.591167
O3    O     O_2   0.635079 0.119680 0.219228 -0.449607
O4    O     O_2   0.364020 0.119747 0.780782 -0.449360
O5    O     O_R   0.636850 0.285340 0.500000 -0.622253
O6    O     O_R   0.636850 0.714660 0.500000 -0.609226
O7    O     O_R   0.363150 0.285340 0.500000 -0.622274
O8    O     O_R   0.346950 0.500000 0.615800 -0.603360
O9    O     O_R   0.653050 0.500000 0.384200 -0.603277
O10   O     O_R   0.620700 0.500000 0.615800 -0.620091
O11   O     O_R   0.379300 0.500000 0.384200 -0.620131
O12   O     O_2   0.439569 0.820695 0.672153 -0.591256
Zn1   Zn    Zn3+2 0.317220 0.500000 0.500010 1.025661
Zn2   Zn    Zn3+2 0.682780 0.500000 0.499990 1.025756

loop_
_geom_bond_atom_site_label_1
_geom_bond_atom_site_label_2
_ccdc_geom_bond_type
O8    Zn1   S    
C2    C4    A    
C1    O6    A    
C15   O2    D    
C12   O5    A    
C10   C23   A    
C8    Cl2   S    
O10   Zn2   S    
N1    N2    T    
C7    Cl1   S    
C1    O1    A    
C14   H3    S    
N1    Zn2   S    
C1    C18   S    
C15   H4    S    
O11   Zn1   S    
C10   C16   S    
C6    C13   S    
C2    C15   S    
C11   C13   D    
C3    C24   A    
O9    Zn2   S    
O6    Zn2   S    
C12   C19   S    
C9    C17   S    
C3    Cl4   S    
C20   O8    A    
C20   C22   S    
C5    C11   S    
C12   O7    A    
C21   O9    A    
C21   C23   S    
C16   H5    S    
C22   C24   A    
C9    C22   A    
C4    C6    A    
C17   H6    S    
C16   O3    D    
C14   C24   S    
C7    C9    A    
O5    Zn2   S    
C4    Cl3   S    
O1    Zn1   S    
C8    C10   A    
C18   C19   T    
C13   H1    S    
C2    C23   A    
C5    C7    A    
C14   O12   D    
O7    Zn1   S    
C6    C8    A    
C3    C5    A    
C20   O10   A    
N2    Zn1   S    
C11   H2    S    
C21   O11   A    
C17   O4    D    
