data_mof_unit_24726.cif
_audit_creation_date              2013-03-05T16:00:37-0500
_audit_creation_method            fapswitch 2.2
_symmetry_space_group_name_H-M    P1
_symmetry_Int_Tables_number       1
_space_group_crystal_system       triclinic
_cell_length_a                    10.843438
_cell_length_b                    14.771985
_cell_length_c                    14.836673
_cell_angle_alpha                 65.019652
_cell_angle_beta                  104.720465
_cell_angle_gamma                 102.576531
_cell_volume                      2066.90423467

loop_
_atom_site_label
_atom_site_type_symbol
_atom_site_description
_atom_site_fract_x
_atom_site_fract_y
_atom_site_fract_z
_atom_type_partial_charge
O1    O     O_R   0.455060 0.022100 0.338110 -0.532897
O2    O     O_R   0.512640 0.160150 0.379180 -0.503943
C1    C     C_R   0.477080 0.119722 0.312177 0.954615
O3    O     O_R   0.288900 0.930980 0.479450 -0.551816
O4    O     O_R   0.346480 0.069030 0.520520 -0.481077
C2    C     C_R   0.259990 0.001763 0.497442 0.982748
Cu1   Cu    Cu3+1 0.465900 0.918260 0.475680 1.202873
Cu2   Cu    Cu3+1 0.534100 0.081740 0.524320 1.214671
O5    O     O_R   0.487360 0.839850 0.620820 -0.503735
O6    O     O_R   0.544940 0.977900 0.661890 -0.534017
O7    O     O_R   0.653520 0.930970 0.479480 -0.485666
O8    O     O_R   0.711100 0.069020 0.520550 -0.550312
C3    C     C_R   0.518737 0.880446 0.687418 0.991961
C4    C     C_R   0.738513 0.003436 0.493722 1.022010
C5    C     C_3   0.032902 0.929819 0.446843 0.267391
H1    H     H_    0.057869 0.945494 0.374500 0.226111
C6    C     C_3   0.887532 0.935545 0.434825 0.642309
C7    C     C_3   0.098828 0.969763 0.603352 1.055981
C8    C     C_3   0.086929 0.115198 0.429113 0.594855
C9    C     C_3   0.121464 0.004531 0.493435 -0.630944
C10   C     C_3   0.876013 0.006559 0.487697 -0.671280
C11   C     C_3   0.951724 0.960964 0.601857 0.604088
C12   C     C_3   0.940055 0.120366 0.427233 0.264349
C13   C     C_R   0.473259 0.187651 0.204599 -0.286573
C14   C     C_R   0.516522 0.812474 0.793906 -0.363184
C15   C     C_R   0.509973 0.220422 0.037734 0.257945
C16   C     C_R   0.486200 0.152479 0.133569 0.565909
C17   C     C_R   0.469416 0.290857 0.175179 0.582398
C18   C     C_R   0.482220 0.359957 0.076417 -0.128825
C19   C     C_R   0.518252 0.325210 0.012170 -0.253108
C20   C     C_R   0.471257 0.464241 0.043052 0.069342
C21   C     C_R   0.519721 0.534891 0.955690 0.047022
C22   C     C_R   0.581727 0.498467 0.907011 -0.124935
C23   C     C_R   0.573537 0.396270 0.929823 0.703637
C24   C     C_R   0.409042 0.499042 0.092614 -0.098136
C25   C     C_R   0.409235 0.601015 0.067281 0.378475
C26   C     C_R   0.460752 0.672697 0.982696 -0.287042
C27   C     C_R   0.506874 0.639241 0.921592 -0.109336
C28   C     C_R   0.461196 0.776832 0.954532 0.643945
C29   C     C_R   0.486868 0.845528 0.860554 0.553146
C30   C     C_R   0.528941 0.710324 0.825153 0.568092
H2    H     H_    0.641465 0.546948 0.852701 0.258079
H3    H     H_    0.352971 0.447830 0.148938 0.245979
N1    N     N_R   0.585360 0.204570 0.560800 -0.327359
N2    N     N_R   0.414550 0.795430 0.439160 -0.334063
C31   C     C_R   0.737066 0.300338 0.647493 0.247294
C32   C     C_R   0.688939 0.209173 0.635079 0.310536
C33   C     C_R   0.512873 0.283030 0.511933 0.910661
C34   C     C_R   0.547265 0.372200 0.532908 -0.205867
C35   C     C_R   0.670250 0.384372 0.590616 -0.259713
C36   C     C_R   0.468531 0.451814 0.496014 -0.080086
C37   C     C_R   0.525621 0.548489 0.496949 -0.100106
C38   C     C_R   0.661147 0.564772 0.522379 0.279287
C39   C     C_R   0.727348 0.481513 0.584106 0.679275
C40   C     C_R   0.334393 0.436880 0.464284 0.683966
C41   C     C_R   0.261668 0.517728 0.417769 0.309773
C42   C     C_R   0.320158 0.614390 0.413499 -0.286222
C43   C     C_R   0.446587 0.626639 0.465895 -0.190889
C44   C     C_R   0.258354 0.700575 0.354902 0.633065
C45   C     C_R   0.312976 0.792531 0.362806 0.298236
C46   C     C_R   0.485524 0.715782 0.487087 0.838352
F1    F     F_    0.059680 0.831900 0.506303 -0.483410
N3    N     N_R   0.931837 0.189475 0.475016 0.232057
O9    O     O_R   0.849272 0.254537 0.431313 -0.250675
O10   O     O_R   0.009885 0.192615 0.556609 -0.089310
F2    F     F_    0.166756 0.038284 0.645246 -0.471936
F3    F     F_    0.939373 0.015985 0.653323 -0.525398
F4    F     F_    0.632933 0.368075 0.877245 -0.569280
F5    F     F_    0.547767 0.680019 0.755785 -0.591889
F6    F     F_    0.469606 0.942891 0.831390 -0.489666
N4    N     N_R   0.345457 0.629007 0.123519 0.194793
O11   O     O_R   0.241151 0.671819 0.079350 -0.175621
O12   O     O_R   0.375508 0.593182 0.221686 -0.319123
N5    N     N_R   0.523841 0.181995 0.967009 0.236873
O13   O     O_R   0.456165 0.212036 0.875894 -0.201888
O14   O     O_R   0.592160 0.108798 0.996559 -0.119509
F7    F     F_    0.483780 0.052514 0.158987 -0.509678
F8    F     F_    0.470323 0.325050 0.247083 -0.586873
F9    F     F_    0.433586 0.813299 0.016221 -0.486579
F10   F     F_    0.852991 0.497276 0.625554 -0.524016
F11   F     F_    0.592036 0.721933 0.556757 -0.534723
N6    N     N_R   0.274935 0.882813 0.280452 0.206850
O15   O     O_R   0.213482 0.941637 0.292587 -0.302023
O16   O     O_R   0.277480 0.894878 0.188818 -0.132629
N7    N     N_R   0.125806 0.498144 0.384062 0.219983
O17   O     O_R   0.082463 0.438156 0.336104 -0.163759
O18   O     O_R   0.044861 0.528523 0.413486 -0.207420
N8    N     N_R   0.848354 0.304570 0.723053 0.219799
O19   O     O_R   0.836601 0.313367 0.803996 -0.165505
O20   O     O_R   0.962423 0.311548 0.705565 -0.168424
N9    N     N_R   0.742808 0.120219 0.706934 0.173940
O21   O     O_R   0.686023 0.064513 0.783322 -0.202830
O22   O     O_R   0.865443 0.118942 0.719990 -0.147706
F12   F     F_    0.414411 0.277869 0.436556 -0.505785
N10   N     N_R   0.818624 0.964061 0.328276 0.173825
O23   O     O_R   0.693631 0.950454 0.309812 -0.176213
O24   O     O_R   0.875267 0.975362 0.256061 -0.208069
N11   N     N_R   0.732523 0.658865 0.467851 0.221481
O25   O     O_R   0.676989 0.720464 0.381440 -0.243881
O26   O     O_R   0.857610 0.670127 0.488122 -0.099270
F13   F     F_    0.270155 0.342857 0.488384 -0.495585
F14   F     F_    0.152511 0.698728 0.282902 -0.510559
F15   F     F_    0.831002 0.839943 0.485799 -0.492748
F16   F     F_    0.149433 0.880163 0.664334 -0.572776
N12   N     N_R   0.895231 0.856976 0.658531 0.208077
O27   O     O_R   0.941288 0.777359 0.670706 -0.115590
O28   O     O_R   0.798838 0.843855 0.701947 -0.263327
F17   F     F_    0.165686 0.176075 0.475970 -0.453722
N13   N     N_R   0.121012 0.154386 0.327476 0.125553
O29   O     O_R   0.205698 0.233516 0.300440 -0.165313
O30   O     O_R   0.065533 0.115006 0.261601 -0.302211
N14   N     N_R   0.871979 0.164237 0.320813 0.154015
O31   O     O_R   0.920123 0.251522 0.261012 -0.178520
O32   O     O_R   0.748874 0.140727 0.298223 -0.371053

loop_
_geom_bond_atom_site_label_1
_geom_bond_atom_site_label_2
_geom_bond_distance
_ccdc_geom_bond_type
C40   C41   1.400683 A    
N3    O10   1.301350 A    
N2    C45   1.372803 A    
N10   O23   1.300616 A    
C13   C16   1.403440 A    
N14   O32   1.297660 A    
C42   C43   1.409131 A    
Cu1   Cu2   2.706018 S    
C38   C39   1.402039 A    
Cu1   O7    1.990403 S    
C12   N14   1.486484 S    
N12   O28   1.301337 A    
C15   C16   1.401343 A    
C18   C19   1.419341 A    
N5    O14   1.301346 A    
C22   H2    1.075914 S    
Cu1   N2    2.032952 S    
C4    C10   1.505797 S    
C17   C18   1.409501 A    
N13   O30   1.297900 A    
C14   C29   1.399052 A    
O4    C2    1.304801 A    
O7    C4    1.304750 A    
C42   C44   1.402292 A    
C5    H1    1.090599 S    
C41   C42   1.412353 A    
C7    C9    1.557128 S    
C5    C6    1.557615 S    
C34   C35   1.410382 A    
O5    C3    1.300953 A    
C45   N6    1.431368 S    
C8    C9    1.578207 S    
C34   C36   1.437933 A    
C6    N10   1.486312 S    
C21   C27   1.431946 A    
N1    C32   1.371713 A    
C24   H3    1.079005 S    
C39   F10   1.358507 S    
C25   N4    1.433403 S    
C8    F17   1.383168 S    
C43   C46   1.432215 A    
C12   N3    1.495239 S    
C44   C45   1.399499 A    
O1    Cu1   1.960858 S    
C10   C11   1.602192 S    
C3    C14   1.474390 S    
C1    C13   1.479155 S    
O3    Cu1   1.985596 S    
N14   O31   1.303162 A    
C31   N8    1.433789 S    
C8    N13   1.482700 S    
C5    C9    1.569575 S    
C37   C43   1.435401 A    
N5    O13   1.301501 A    
C19   C23   1.403177 A    
N7    O18   1.301573 A    
C36   C37   1.431866 A    
Cu2   N1    2.032601 S    
C27   C30   1.415177 A    
O3    C2    1.297631 A    
C23   F4    1.357726 S    
C28   C29   1.389449 A    
N4    O12   1.300171 A    
C7    F16   1.387108 S    
N7    O17   1.301409 A    
N6    O15   1.294921 A    
C6    C10   1.591624 S    
O1    C1    1.308709 A    
C24   C25   1.389662 A    
C28   F9    1.357743 S    
C8    C12   1.603630 S    
C26   C27   1.425730 A    
N9    O22   1.297345 A    
C20   C21   1.417804 A    
Cu2   O8    1.985597 S    
C22   C23   1.388104 A    
C35   C39   1.406484 A    
C33   F12   1.351354 S    
Cu2   O6    1.960858 S    
C33   C34   1.429793 A    
N8    O20   1.301106 A    
C15   C19   1.417357 A    
N6    O16   1.301206 A    
C10   C12   1.627169 S    
C20   C24   1.408028 A    
C14   C30   1.405682 A    
N9    O21   1.298862 A    
C17   F8    1.356809 S    
C37   C38   1.414483 A    
C30   F5    1.355363 S    
Cu1   O5    1.946514 S    
C31   C35   1.405052 A    
C31   C32   1.405139 A    
C25   C26   1.408730 A    
C7    C11   1.567138 S    
C44   F14   1.359048 S    
C32   N9    1.427950 S    
O2    Cu2   1.946514 S    
C13   C17   1.404599 A    
O8    C4    1.302540 A    
C16   F7    1.356936 S    
O6    C3    1.308682 A    
O4    Cu2   1.990403 S    
N10   O24   1.300688 A    
C38   N11   1.444104 S    
C7    F2    1.388335 S    
C11   N12   1.484238 S    
C2    C9    1.496940 S    
N12   O27   1.302225 A    
C40   F13   1.352004 S    
C29   F6    1.356928 S    
N11   O26   1.301753 A    
C21   C22   1.412711 A    
O2    C1    1.303811 A    
C6    F15   1.377916 S    
N4    O11   1.301314 A    
C26   C28   1.412740 A    
C46   F11   1.355568 S    
N13   O29   1.301623 A    
C41   N7    1.437475 S    
N2    C46   1.375429 A    
C15   N5    1.437499 S    
C5    F1    1.389167 S    
C36   C40   1.409216 A    
C11   F3    1.373018 S    
N3    O9    1.303470 A    
N8    O19   1.300828 A    
C18   C20   1.427601 A    
N11   O25   1.302012 A    
N1    C33   1.372644 A    
