data_mof_unit_56294.cif
_audit_creation_date              2012-12-11T17:37:52-0500
_audit_creation_method            fapswitch 2.2
_symmetry_space_group_name_H-M    P1
_symmetry_Int_Tables_number       1
_space_group_crystal_system       triclinic
_cell_length_a                    13.032211
_cell_length_b                    13.060655
_cell_length_c                    15.445022
_cell_angle_alpha                 117.701942
_cell_angle_beta                  63.509002
_cell_angle_gamma                 97.881241
_cell_volume                      2074.97373781

loop_
_atom_site_label
_atom_site_type_symbol
_atom_type_description
_atom_site_fract_x
_atom_site_fract_y
_atom_site_fract_z
_atom_type_partial_charge
C1    C     C_R   0.997266 0.832521 0.060633 -0.101012
C2    C     C_R   0.672437 0.556697 0.320602 0.044003
C3    C     C_R   0.662815 0.458168 0.925449 0.156975
C4    C     C_R   0.091685 0.788504 0.294632 0.070705
C5    C     C_R   0.338393 0.516161 0.950652 -0.114780
C6    C     C_R   0.965104 0.178123 0.780511 -0.090617
C7    C     C_R   0.207049 0.492049 0.689974 -0.133001
C8    C     C_R   0.051140 0.255223 0.086998 -0.114200
C9    C     C_R   0.947709 0.172586 0.995455 -0.078752
C10   C     C_R   0.302123 0.589156 0.789455 -0.136095
C11   C     C_R   0.259136 0.417227 0.047528 -0.136923
C12   C     C_R   0.679050 0.476967 0.219531 -0.141134
C13   C     C_R   0.048531 0.275384 0.683505 -0.127880
C14   C     C_R   0.361851 0.435291 0.974942 0.154693
C15   C     C_R   0.035185 0.163745 0.675459 0.071511
C16   C     C_R   0.302792 0.551342 0.689688 0.058690
C17   C     C_R   0.004198 0.152145 0.044604 0.071387
C18   C     C_R   0.439730 0.887129 0.099564 -0.131516
C19   C     C_R   0.359926 0.880783 0.194125 -0.133939
C20   C     C_R   0.272499 0.971189 0.275261 0.121096
C21   C     C_R   0.266945 0.068052 0.259993 -0.179450
C22   C     C_R   0.347019 0.074044 0.165324 -0.104519
C23   C     C_R   0.755945 0.518329 0.893004 -0.175015
C24   C     C_R   0.433351 0.983711 0.085217 -0.089851
C25   C     C_R   0.162445 0.060551 0.477129 -0.222556
C26   C     C_R   0.087227 0.054036 0.573882 0.090297
C27   C     C_R   0.063441 0.942162 0.567780 0.099809
C28   C     C_R   0.096810 0.846341 0.466970 -0.205447
C29   C     C_R   0.137402 0.861404 0.373991 0.027052
C30   C     C_R   0.188686 0.964191 0.375843 0.030686
C31   C     C_R   0.032490 0.919689 0.730161 0.324131
C32   C     C_R   0.959055 0.898140 0.817843 -0.232186
C33   C     C_R   0.844530 0.877240 0.836635 -0.176622
C34   C     C_R   0.025845 0.696416 0.297370 -0.147031
C35   C     C_R   0.803817 0.873699 0.765940 -0.101296
C36   C     C_R   0.876575 0.893812 0.677649 -0.224163
C37   C     C_R   0.990328 0.919241 0.660536 0.008265
C38   C     C_R   0.862133 0.364557 0.358040 -0.113620
C39   C     C_R   0.746312 0.399547 0.401097 -0.108152
C40   C     C_R   0.703934 0.514770 0.479386 0.118036
C41   C     C_R   0.774324 0.590597 0.523107 -0.195536
C42   C     C_R   0.890934 0.556407 0.476817 -0.132455
C43   C     C_R   0.935471 0.444698 0.391816 -0.111126
C44   C     C_R   0.500914 0.568097 0.592940 -0.238566
C45   C     C_R   0.676537 0.421141 0.989907 -0.124715
C46   C     C_R   0.390247 0.573524 0.603015 0.073679
C47   C     C_R   0.370515 0.584727 0.524441 0.041841
C48   C     C_R   0.464780 0.589832 0.436436 -0.219720
C49   C     C_R   0.576000 0.575409 0.423063 0.066860
C50   C     C_R   0.593464 0.560439 0.500844 0.014999
C51   C     C_R   0.242101 0.463668 0.445219 -0.180992
C52   C     C_R   0.132372 0.425064 0.465219 -0.153752
C53   C     C_R   0.036954 0.493982 0.559687 -0.121797
C54   C     C_R   0.049949 0.604866 0.630549 -0.147782
C55   C     C_R   0.159927 0.643069 0.612154 -0.104545
C56   C     C_R   0.103064 0.796927 0.204930 -0.151139
C57   C     C_R   0.257111 0.569673 0.522471 0.114167
C58   C     C_2   0.474954 0.393992 0.947148 -0.183380
C59   C     C_2   0.567999 0.437704 0.896536 -0.203223
C60   C     C_2   0.822289 0.955795 0.111738 -0.195645
C61   C     C_2   0.823280 0.046107 0.200636 -0.166392
C62   C     C_R   0.783111 0.576234 0.309534 -0.085312
C63   C     C_R   0.894268 0.747317 0.966694 -0.159408
C64   C     C_R   0.905189 0.851786 0.045927 0.120321
H1    H     H_    0.026161 0.893513 0.119993 0.095208
H2    H     H_    0.927742 0.115213 0.808632 0.115351
H3    H     H_    0.179524 0.452028 0.627156 0.132661
H4    H     H_    0.089700 0.274700 0.141383 0.077278
H5    H     H_    0.888018 0.117526 0.967902 0.101175
H6    H     H_    0.357050 0.649474 0.821052 0.095934
H7    H     H_    0.248585 0.363532 0.086428 0.092061
H8    H     H_    0.090833 0.298117 0.617946 0.093126
H9    H     H_    0.495286 0.988514 0.012006 0.100641
H10   H     H_    0.506659 0.817220 0.037477 0.105083
H11   H     H_    0.366359 0.805518 0.204170 0.119746
H12   H     H_    0.608707 0.440213 0.199053 0.098032
H13   H     H_    0.199855 0.138086 0.320546 0.100848
H14   H     H_    0.341970 0.148699 0.154003 0.100291
H15   H     H_    0.198265 0.140917 0.479378 0.125102
H16   H     H_    0.073684 0.762637 0.464321 0.121554
H17   H     H_    0.990279 0.901137 0.872958 0.165070
H18   H     H_    0.786307 0.864663 0.906237 0.114342
H19   H     H_    0.715559 0.856409 0.780161 0.111192
H20   H     H_    0.843917 0.891578 0.623462 0.133128
H21   H     H_    0.026789 0.420281 0.351308 0.108900
H22   H     H_    0.778645 0.546481 0.831429 0.094728
H23   H     H_    0.896014 0.277247 0.294879 0.111333
H24   H     H_    0.691835 0.339881 0.368046 0.116407
H25   H     H_    0.742067 0.679380 0.583940 0.120219
H26   H     H_    0.947419 0.618300 0.503902 0.134115
H27   H     H_    0.516474 0.553383 0.649916 0.127160
H28   H     H_    0.451922 0.595382 0.373968 0.131832
H29   H     H_    0.315941 0.405258 0.376250 0.115670
H30   H     H_    0.121903 0.339522 0.410079 0.106771
H31   H     H_    0.952744 0.461529 0.577969 0.130489
H32   H     H_    0.975658 0.657241 0.703453 0.138162
H33   H     H_    0.012256 0.654199 0.346481 0.101104
H34   H     H_    0.170327 0.722294 0.674370 0.159089
H35   H     H_    0.477672 0.347705 0.988995 0.120728
H36   H     H_    0.566404 0.480426 0.851429 0.125425
H37   H     H_    0.754747 0.957946 0.089679 0.136704
H38   H     H_    0.886461 0.050093 0.229582 0.127101
H39   H     H_    0.629319 0.358854 0.017067 0.082044
H40   H     H_    0.157995 0.850602 0.170277 0.116540
H41   H     H_    0.808917 0.638626 0.370501 0.117100
H42   H     H_    0.826223 0.729437 0.941511 0.103130
H43   H     H_    0.397533 0.554116 0.900402 0.086897
N1    N     N_R   0.037320 0.720000 0.995830 -0.046243
N2    N     N_R   0.946240 0.290870 0.848020 -0.046984
N3    N     N_R   0.146160 0.501170 0.788610 -0.037437
N4    N     N_R   0.025750 0.332680 0.063570 -0.036679
N5    N     N_R   0.962680 0.280000 0.004170 -0.043907
N6    N     N_R   0.209230 0.553860 0.848010 -0.037510
N7    N     N_R   0.175100 0.482030 0.063570 -0.041608
N8    N     N_R   0.996810 0.351820 0.788610 -0.039271
N9    N     N_R   0.790770 0.446140 0.151990 -0.045590
N10   N     N_R   0.824900 0.517970 0.936430 -0.038385
N11   N     N_R   0.003190 0.648180 0.211390 -0.041575
N12   N     N_R   0.774330 0.457010 0.995830 -0.043501
N13   N     N_R   0.053760 0.709130 0.151980 -0.042022
N14   N     N_R   0.853840 0.498830 0.211390 -0.043051
N15   N     N_R   0.974250 0.667320 0.936430 -0.040126
N16   N     N_R   0.225670 0.542990 0.004170 -0.045572
Ni1   Ni    Ni4+2 0.130310 0.630310 0.000000 0.218854
Ni2   Ni    Ni4+2 0.869690 0.369690 0.000000 0.215020
Ni3   Ni    Ni4+2 0.985660 0.509480 0.863750 0.220066
Ni4   Ni    Ni4+2 0.014340 0.490520 0.136250 0.220767
Br1   Br    Br    0.185089 0.960171 0.713863 -0.598677

loop_
_geom_bond_atom_site_label_1
_geom_bond_atom_site_label_2
_ccdc_geom_bond_type
C34   N11   A    
C41   H25   S    
C53   H31   S    
C41   C42   A    
C3    C23   A    
N4    N5    A    
C2    C12   A    
N16   Ni1   S    
C62   H41   S    
C20   C30   S    
C53   C54   A    
C32   H17   S    
C26   C27   A    
N8    Ni3   S    
C18   C24   A    
C31   Br1   S    
C28   C29   A    
C9    H5    S    
N14   Ni4   S    
N10   N12   A    
C38   C39   A    
C11   C14   A    
C11   H7    S    
C24   H9    S    
C44   C50   A    
C34   H33   S    
C18   C19   A    
C11   N7    A    
C45   H39   S    
C6    C15   A    
C54   C55   A    
C35   C36   A    
C23   H22   S    
C1    H1    S    
C52   H30   S    
C51   C57   A    
N10   Ni3   S    
C54   H32   S    
C4    C29   S    
C45   N12   A    
C9    N5    A    
C18   H10   S    
C21   C22   A    
C4    C56   A    
C59   H36   S    
C56   N13   A    
C39   H24   S    
N1    Ni1   S    
C44   C46   A    
C14   C58   S    
C4    C34   A    
N9    N14   A    
C51   C52   A    
C43   H21   S    
C56   H40   S    
C8    N4    A    
C16   C46   S    
C39   C40   A    
C35   H19   S    
C15   C26   S    
C58   C59   D    
C3    C45   A    
C31   C37   A    
C60   C61   D    
C42   H26   S    
N15   Ni3   S    
C29   C30   A    
C2    C49   S    
C47   C57   S    
C47   C48   A    
N5    Ni2   S    
C40   C50   S    
C63   H42   S    
C10   N6    A    
N3    N6    A    
C22   H14   S    
C5    C14   A    
C13   N8    A    
C44   H27   S    
C51   H29   S    
N7    N16   A    
N12   Ni2   S    
N2    Ni2   S    
C40   C41   A    
N3    Ni3   S    
C8    H4    S    
N9    Ni2   S    
C55   C57   A    
C12   H12   S    
N4    Ni4   S    
C6    N2    A    
C22   C24   A    
C42   C43   A    
C60   H37   S    
C1    C64   A    
C10   H6    S    
C63   N15   A    
C52   C53   A    
C5    H43   S    
C9    C17   A    
C25   C30   A    
C46   C47   A    
C36   C37   A    
C25   H15   S    
C31   C32   A    
C7    C16   A    
C58   H35   S    
C36   H20   S    
N1    N15   A    
C23   N10   A    
C13   H8    S    
C5    N16   A    
C8    C17   A    
C7    N3    A    
C38   H23   S    
C60   C64   S    
C32   C33   A    
C19   C20   A    
C13   C15   A    
C61   H38   S    
C25   C26   A    
C38   C43   A    
C10   C16   A    
N7    Ni4   S    
N6    Ni1   S    
C27   C37   S    
C48   C49   A    
C55   H34   S    
C19   H11   S    
C33   C35   A    
C28   H16   S    
C33   H18   S    
N11   N13   A    
C48   H28   S    
N2    N8    A    
C1    N1    A    
C7    H3    S    
C63   C64   A    
N13   Ni1   S    
C6    H2    S    
C20   C21   A    
C49   C50   A    
N11   Ni4   S    
C21   H13   S    
C27   C28   A    
C62   N14   A    
C2    C62   A    
C12   N9    A    
C3    C59   S    
