data_mof_unit_29576.cif
_audit_creation_date              2012-12-10T16:52:39-0500
_audit_creation_method            fapswitch 2.2
_symmetry_space_group_name_H-M    P1
_symmetry_Int_Tables_number       1
_space_group_crystal_system       triclinic
_cell_length_a                    7.943396
_cell_length_b                    8.614641
_cell_length_c                    13.517598
_cell_angle_alpha                 96.769036
_cell_angle_beta                  92.653446
_cell_angle_gamma                 91.981512
_cell_volume                      916.822257656

loop_
_atom_site_label
_atom_site_type_symbol
_atom_type_description
_atom_site_fract_x
_atom_site_fract_y
_atom_site_fract_z
_atom_type_partial_charge
C1    C     C_R   0.041305 0.793169 0.497008 0.956234
C2    C     C_R   0.938643 0.486814 0.316664 0.879995
C3    C     C_R   0.087510 0.529984 0.792186 -0.104727
C4    C     C_R   0.912488 0.470008 0.207814 -0.104725
C5    C     C_R   0.058531 0.672572 0.955771 -0.193656
C6    C     C_R   0.941464 0.327411 0.044231 -0.193655
C7    C     C_R   0.000488 0.638791 0.856071 0.149671
C8    C     C_R   0.999507 0.361196 0.143932 0.149672
C9    C     C_R   0.216927 0.446171 0.831916 0.089520
C10   C     C_R   0.783071 0.553819 0.168082 0.089517
C11   C     C_R   0.299028 0.508426 0.923293 0.069184
C12   C     C_R   0.958695 0.206830 0.502991 0.956234
C13   C     C_R   0.700970 0.491560 0.076706 0.069184
C14   C     C_R   0.209919 0.613051 0.988555 0.089663
C15   C     C_R   0.790077 0.386932 0.011447 0.089663
C16   C     C_R   0.466941 0.473802 0.951001 0.080013
C17   C     C_R   0.533057 0.526182 0.048999 0.080013
C18   C     C_3   0.764306 0.722224 0.212467 -0.931850
C19   C     C_3   0.235691 0.277767 0.787528 -0.931845
C20   C     C_3   0.153689 0.282148 0.178908 -0.876417
C21   C     C_3   0.846302 0.717836 0.821097 -0.876409
C22   C     C_3   0.128010 0.973311 0.377542 -0.973323
C23   C     C_R   0.426069 0.603364 0.117757 -0.242045
C24   C     C_3   0.871976 0.026685 0.622452 -0.973285
C25   C     C_3   0.486946 0.307740 0.425685 -0.514441
C26   C     C_3   0.513055 0.692260 0.574314 -0.514444
C27   C     C_R   0.573928 0.396618 0.882244 -0.242046
C28   C     C_R   0.270851 0.653745 0.086615 -0.200289
C29   C     C_R   0.729145 0.346236 0.913386 -0.200288
C30   C     C_2   0.047971 0.947804 0.474147 0.009224
C31   C     C_2   0.952027 0.052195 0.525850 0.009212
C32   C     C_R   0.061356 0.513184 0.683336 0.879993
H1    H     H_    0.197026 0.722442 0.139905 0.147215
H2    H     H_    0.302043 0.271129 0.716817 0.264509
H3    H     H_    0.302456 0.209125 0.840593 0.246238
H4    H     H_    0.108902 0.219604 0.771555 0.232212
H5    H     H_    0.122567 0.215121 0.240729 0.233915
H6    H     H_    0.203016 0.199860 0.118549 0.230542
H7    H     H_    0.255465 0.370707 0.205063 0.261026
H8    H     H_    0.877422 0.784873 0.759281 0.233909
H9    H     H_    0.744531 0.629274 0.794937 0.261027
H10   H     H_    0.796968 0.800113 0.881460 0.230541
H11   H     H_    0.160054 0.861067 0.334509 0.240493
H12   H     H_    0.802970 0.277538 0.860097 0.147214
H13   H     H_    0.037887 0.029884 0.329559 0.226363
H14   H     H_    0.246898 0.043518 0.393531 0.264312
H15   H     H_    0.839959 0.138931 0.665494 0.240483
H16   H     H_    0.753070 0.956506 0.606455 0.264304
H17   H     H_    0.962080 0.970081 0.670430 0.226360
H18   H     H_    0.383073 0.263402 0.371414 0.170443
H19   H     H_    0.598487 0.317235 0.381380 0.214574
H20   H     H_    0.504774 0.223483 0.481050 0.191498
H21   H     H_    0.616930 0.736601 0.628584 0.170451
H22   H     H_    0.495221 0.776516 0.518949 0.191498
H23   H     H_    0.990490 0.751476 0.006657 0.153060
H24   H     H_    0.401516 0.682764 0.618622 0.214572
H25   H     H_    0.009504 0.248503 0.993348 0.153059
H26   H     H_    0.459924 0.625864 0.196378 0.178654
H27   H     H_    0.540075 0.374119 0.803622 0.178653
H28   H     H_    0.697539 0.790863 0.159401 0.246239
H29   H     H_    0.697957 0.728865 0.283179 0.264511
H30   H     H_    0.891095 0.780389 0.228438 0.232213
N1    N     N_2   0.440860 0.456490 0.474790 0.004731
N2    N     N_2   0.559140 0.543510 0.525210 0.004731
O1    O     O_R   0.891570 0.738930 0.506190 -0.612627
O2    O     O_R   0.108430 0.261070 0.493810 -0.612633
O3    O     O_R   0.174650 0.711050 0.490030 -0.631598
O4    O     O_R   0.825350 0.288950 0.509970 -0.631596
O5    O     O_R   0.909850 0.521900 0.644940 -0.607651
O6    O     O_R   0.090150 0.478100 0.355060 -0.607651
O7    O     O_R   0.192930 0.494020 0.628780 -0.617781
O8    O     O_R   0.807070 0.505980 0.371220 -0.617782
Zn1   Zn    Zn3+2 0.810990 0.518620 0.510790 0.923112
Zn2   Zn    Zn3+2 0.189010 0.481380 0.489210 0.923110

loop_
_geom_bond_atom_site_label_1
_geom_bond_atom_site_label_2
_ccdc_geom_bond_type
C10   C13   A    
O6    Zn2   S    
O7    Zn2   S    
C2    C4    S    
N2    Zn1   S    
C25   H19   S    
C18   H29   S    
O5    Zn1   S    
C32   O5    A    
C3    C9    A    
N1    Zn2   S    
C23   H26   S    
C20   H6    S    
C11   C16   A    
C1    O1    A    
C22   H11   S    
C13   C17   A    
C4    C8    A    
C16   C27   A    
C13   C15   A    
O4    Zn1   S    
C25   H20   S    
C3    C32   S    
C29   H12   S    
O3    Zn2   S    
C27   H27   S    
C23   C28   A    
C20   H5    S    
C12   O4    A    
C6    H25   S    
C5    C14   A    
C17   C23   A    
C21   H8    S    
C2    O6    A    
C8    C20   S    
C21   H9    S    
C26   H22   S    
C18   H28   S    
C1    C30   S    
C22   H14   S    
C10   C18   S    
C28   H1    S    
C15   C29   A    
C32   O7    A    
C3    C7    A    
C19   H4    S    
C9    C11   A    
C12   C31   S    
C30   C31   D    
C11   C14   A    
C2    O8    A    
C24   C31   S    
C27   C29   A    
C4    C10   A    
N1    N2    D    
C24   H16   S    
C26   H21   S    
C22   H13   S    
O1    Zn1   S    
C6    C8    A    
C9    C19   S    
C25   N1    S    
C24   H17   S    
C5    C7    A    
C20   H7    S    
C26   N2    S    
C25   H18   S    
C18   H30   S    
C19   H3    S    
C22   C30   S    
C14   C28   A    
C6    C15   A    
C7    C21   S    
C24   H15   S    
C12   O2    A    
C5    H23   S    
C1    O3    A    
C21   H10   S    
C16   C17   A    
C26   H24   S    
O8    Zn1   S    
C19   H2    S    
O2    Zn2   S    
