data_mof_unit_19120.cif
_audit_creation_date              2012-12-10T17:43:36-0500
_audit_creation_method            fapswitch 2.2
_symmetry_space_group_name_H-M    P1
_symmetry_Int_Tables_number       1
_space_group_crystal_system       triclinic
_cell_length_a                    14.91745
_cell_length_b                    10.703787
_cell_length_c                    9.916513
_cell_angle_alpha                 91.223209
_cell_angle_beta                  90.102241
_cell_angle_gamma                 91.570228
_cell_volume                      1582.44171147

loop_
_atom_site_label
_atom_site_type_symbol
_atom_type_description
_atom_site_fract_x
_atom_site_fract_y
_atom_site_fract_z
_atom_type_partial_charge
C1    C     C_R   0.510377 0.261084 0.498356 0.895269
C2    C     C_R   0.907495 0.613143 0.491402 0.130597
C3    C     C_R   0.947081 0.272268 0.518326 -0.230344
C4    C     C_R   0.040035 0.271464 0.516826 -0.172983
C5    C     C_R   0.090633 0.383855 0.507649 0.094398
C6    C     C_R   0.046142 0.498974 0.500178 0.007767
C7    C     C_R   0.094832 0.614037 0.491720 0.076501
C8    C     C_R   0.048574 0.726752 0.483307 -0.186715
C9    C     C_R   0.955724 0.725999 0.482861 -0.220721
C10   C     C_R   0.184349 0.384251 0.505648 0.032941
C11   C     C_R   0.231569 0.499019 0.499330 -0.132641
C12   C     C_R   0.327243 0.499056 0.499841 0.938035
C13   C     C_R   0.188421 0.613496 0.491943 -0.087248
C14   C     C_R   0.584497 0.121619 0.726518 -0.156798
C15   C     C_R   0.584985 0.064185 0.850965 -0.135592
C16   C     C_R   0.530420 0.958609 0.871154 -0.186835
C17   C     C_R   0.484725 0.901196 0.762023 0.019826
C18   C     C_R   0.500676 0.944842 0.629154 0.060618
C19   C     C_R   0.536597 0.066033 0.616951 0.070396
C20   C     C_R   0.523678 0.127591 0.494695 -0.168803
C21   C     C_R   0.506459 0.057899 0.375119 0.001036
C22   C     C_R   0.488594 0.932239 0.382640 -0.226637
C23   C     C_R   0.493087 0.739920 0.502283 0.885945
C24   C     C_R   0.486901 0.874174 0.507402 -0.121085
C25   C     C_R   0.379093 0.341616 0.136457 -0.116253
C26   C     C_R   0.319631 0.262996 0.064615 -0.176453
C27   C     C_R   0.320332 0.261626 0.925032 -0.173190
C28   C     C_R   0.380181 0.339285 0.856583 -0.115120
C29   C     C_R   0.440668 0.421346 0.925941 0.163843
C30   C     C_R   0.440323 0.422043 0.070473 0.166901
C31   C     C_R   0.556584 0.575454 0.073367 -0.111469
C32   C     C_R   0.556458 0.575576 0.930282 -0.117455
C33   C     C_R   0.672610 0.499683 0.500110 0.871668
C34   C     C_R   0.814673 0.612279 0.490775 -0.264695
C35   C     C_R   0.767466 0.499257 0.500475 -0.033647
C36   C     C_R   0.810170 0.386059 0.510617 -0.265117
C37   C     C_R   0.903062 0.385055 0.510018 0.133254
C38   C     C_R   0.952372 0.499053 0.500620 0.077121
H1    H     H_    0.778930 0.698881 0.483337 0.131028
H2    H     H_    0.623312 0.207756 0.715318 0.150947
H3    H     H_    0.623686 0.105960 0.933296 0.161507
H4    H     H_    0.522486 0.923032 0.972069 0.142660
H5    H     H_    0.478545 0.879033 0.289130 0.171532
H6    H     H_    0.602812 0.637197 0.128569 0.146058
H7    H     H_    0.377510 0.333280 0.243139 0.219618
H8    H     H_    0.273776 0.201342 0.117751 0.173955
H9    H     H_    0.274644 0.199388 0.869237 0.177349
H10   H     H_    0.377273 0.331767 0.749687 0.225031
H11   H     H_    0.770941 0.299538 0.518045 0.122591
H12   H     H_    0.602467 0.637548 0.878051 0.148502
H13   H     H_    0.909575 0.184485 0.525626 0.147159
H14   H     H_    0.071017 0.181838 0.523471 0.183839
H15   H     H_    0.083559 0.816344 0.476708 0.166164
H16   H     H_    0.921619 0.813792 0.475964 0.146403
N1    N     N_R   0.499150 0.498800 0.142780 -0.122732
N2    N     N_R   0.499120 0.498720 0.857170 -0.123568
O1    O     O_R   0.500000 0.316780 0.614690 -0.637157
O2    O     O_R   0.499990 0.316750 0.385360 -0.628044
O3    O     O_R   0.367850 0.499980 0.614680 -0.622605
O4    O     O_R   0.367840 0.499960 0.385350 -0.633613
O5    O     O_R   0.500010 0.683250 0.614640 -0.624237
O6    O     O_R   0.500000 0.683220 0.385310 -0.624020
O7    O     O_R   0.632160 0.500040 0.614650 -0.624436
O8    O     O_R   0.632150 0.500020 0.385320 -0.615081
Zn1   Zn    Zn3+2 0.500010 0.500020 0.653130 0.949436
Zn2   Zn    Zn3+2 0.499990 0.499980 0.346870 0.952223
C39   C     C_1   0.411208 0.815572 0.792505 0.215616
N3    N     N_1   0.352268 0.747345 0.817261 -0.182402
I1    I     I_    0.257047 0.213234 0.508053 -0.465079
C40   C     C_1   0.240513 0.729850 0.484187 0.163229
N4    N     N_1   0.281151 0.823127 0.477852 -0.188414
C41   C     C_1   0.514067 0.109051 0.242181 0.192292
N5    N     N_1   0.520906 0.149861 0.135700 -0.222064

loop_
_geom_bond_atom_site_label_1
_geom_bond_atom_site_label_2
_ccdc_geom_bond_type
C8    C9    A    
O7    Zn1   S    
C16   H4    S    
C19   C20   A    
C7    C8    A    
C26   C27   A    
C29   C30   A    
C4    H14   S    
C18   C24   A    
C28   C29   A    
C34   C35   A    
C5    C6    A    
C13   C40   S    
N2    Zn1   S    
C18   C19   A    
C12   O3    A    
O2    Zn2   S    
C23   O6    A    
C28   H10   S    
C22   H5    S    
C16   C17   A    
C23   C24   S    
C6    C38   A    
C40   N4    T    
C2    C34   A    
O4    Zn2   S    
C21   C22   A    
C17   C39   S    
C31   H6    S    
O6    Zn2   S    
C21   C41   S    
C39   N3    T    
C15   H3    S    
C3    H13   S    
C41   N5    T    
C25   C26   A    
C34   H1    S    
C35   C36   A    
O8    Zn2   S    
C37   C38   A    
C1    O1    A    
C2    C38   A    
C31   C32   A    
C23   O5    A    
C33   O7    A    
C17   C18   A    
C32   H12   S    
C22   C24   A    
C3    C4    A    
C25   H7    S    
N1    Zn2   S    
C27   H9    S    
C25   C30   A    
C36   C37   A    
C1    C20   S    
C14   C19   A    
O1    Zn1   S    
C4    C5    A    
C8    H15   S    
C11   C12   S    
C6    C7    A    
C29   N2    A    
C30   N1    A    
C5    C10   A    
C1    O2    A    
O3    Zn1   S    
C11   C13   A    
C33   O8    A    
C33   C35   S    
C10   C11   A    
C26   H8    S    
C14   H2    S    
C12   O4    A    
C10   I1    S    
O5    Zn1   S    
C7    C13   A    
C20   C21   A    
C3    C37   A    
C27   C28   A    
C14   C15   A    
C9    H16   S    
C31   N1    A    
C2    C9    A    
C32   N2    A    
C36   H11   S    
C15   C16   A    
