data_mof_unit_62061.cif
_audit_creation_date              2012-12-10T19:01:54-0500
_audit_creation_method            fapswitch 2.2
_symmetry_space_group_name_H-M    P1
_symmetry_Int_Tables_number       1
_space_group_crystal_system       triclinic
_cell_length_a                    15.893934
_cell_length_b                    14.259229
_cell_length_c                    13.383796
_cell_angle_alpha                 89.999787
_cell_angle_beta                  90.003507
_cell_angle_gamma                 90.000341
_cell_volume                      3033.23987461

loop_
_atom_site_label
_atom_site_type_symbol
_atom_type_description
_atom_site_fract_x
_atom_site_fract_y
_atom_site_fract_z
_atom_type_partial_charge
C1    C     C_1   0.500000 0.225916 0.500000 -0.220839
C2    C     C_R   0.500000 0.673426 0.500000 0.924508
C3    C     C_R   0.335790 0.500000 0.499986 0.939044
C4    C     C_R   0.664210 0.499983 0.500015 0.938915
C5    C     C_1   0.500000 0.141346 0.500000 -0.004455
C6    C     C_1   0.500000 0.858654 0.500000 -0.005971
C7    C     C_1   0.499986 0.500000 0.169453 0.074136
C8    C     C_1   0.500014 0.500000 0.830547 0.074010
C9    C     C_1   0.500000 0.042282 0.500000 0.010691
C10   C     C_1   0.500000 0.957718 0.500000 0.010140
C11   C     C_3   0.972238 0.422550 0.544801 0.085952
C12   C     C_1   0.500000 0.774084 0.499999 -0.222694
C13   C     C_3   0.027821 0.577740 0.455214 0.052026
C14   C     C_3   0.027687 0.424841 0.450744 0.051760
C15   C     C_3   0.972254 0.575445 0.549270 0.015961
C16   C     C_1   0.499996 0.500000 0.049521 -0.046701
C17   C     C_1   0.500004 0.500000 0.950479 -0.046712
C18   C     C_1   0.247956 0.499954 0.499987 -0.202241
C19   C     C_1   0.752044 0.500084 0.500014 -0.202325
C20   C     C_3   0.027766 0.497734 0.594052 0.051495
C21   C     C_3   0.972234 0.502572 0.405958 0.051214
C22   C     C_3   0.083803 0.499950 0.499995 0.077586
C23   C     C_3   0.916197 0.500234 0.500014 0.077610
C24   C     C_1   0.173562 0.499924 0.499989 -0.000872
C25   C     C_1   0.826438 0.500170 0.500014 -0.001216
C26   C     C_R   0.500000 0.326574 0.500000 0.926227
H1    H     H_    0.005994 0.306573 0.370536 0.190760
H2    H     H_    0.907493 0.444370 0.290946 0.183060
H3    H     H_    0.006246 0.497334 0.743430 0.194505
H4    H     H_    0.093099 0.555730 0.708680 0.189837
H5    H     H_    0.092244 0.366166 0.335873 0.184137
H6    H     H_    0.993823 0.696307 0.625034 0.179963
H7    H     H_    0.907482 0.698010 0.552885 0.190165
H8    H     H_    0.993757 0.300754 0.618786 0.206799
H9    H     H_    0.907216 0.358445 0.655938 0.186308
H10   H     H_    0.006461 0.702152 0.386218 0.195088
H11   H     H_    0.092662 0.700262 0.458618 0.178796
H12   H     H_    0.993739 0.504114 0.256564 0.193056
N1    N     N_1   0.499980 0.500000 0.261870 -0.064016
N2    N     N_1   0.500020 0.500000 0.738130 -0.064047
N3    N     N_3   0.058471 0.342462 0.397912 -0.444599
N4    N     N_3   0.941396 0.656982 0.603510 -0.453257
N5    N     N_3   0.941336 0.337739 0.592954 -0.447402
N6    N     N_3   0.058832 0.661801 0.405679 -0.445112
N7    N     N_3   0.941323 0.506065 0.303633 -0.444203
N8    N     N_3   0.058646 0.494391 0.696393 -0.450577
O1    O     O_R   0.500010 0.373720 0.576470 -0.596776
O2    O     O_R   0.499990 0.626280 0.423530 -0.596683
O3    O     O_R   0.499990 0.373720 0.423530 -0.597516
O4    O     O_R   0.500010 0.626280 0.576470 -0.597580
O5    O     O_R   0.376780 0.500000 0.576440 -0.608194
O6    O     O_R   0.623220 0.500000 0.423560 -0.607980
O7    O     O_R   0.376770 0.500000 0.423530 -0.607842
O8    O     O_R   0.623230 0.500000 0.576470 -0.607960
Zn1   Zn    Zn3+2 0.500010 0.500000 0.602090 0.976890
Zn2   Zn    Zn3+2 0.499990 0.500000 0.397910 0.977128

loop_
_geom_bond_atom_site_label_1
_geom_bond_atom_site_label_2
_ccdc_geom_bond_type
C6    C10   S    
C22   C24   S    
C11   N5    S    
O3    Zn2   S    
H9    N5    S    
C9    C10   T    
H1    N3    S    
O5    Zn1   S    
O4    Zn1   S    
H3    N8    S    
N2    Zn1   S    
C2    C12   S    
C14   C22   S    
H11   N6    S    
C15   C23   S    
C13   C21   S    
N1    Zn2   S    
H5    N3    S    
O7    Zn2   S    
C5    C9    S    
C3    O7    A    
C2    O2    A    
C1    C26   S    
C26   O1    A    
C4    O6    A    
C14   N3    S    
C18   C24   T    
H7    N4    S    
C14   C21   S    
C11   C23   S    
C7    C16   S    
C20   C22   S    
C13   C22   S    
C21   N7    S    
C13   C15   S    
C21   C23   S    
C6    C12   T    
C15   C20   S    
H2    N7    S    
C11   C14   S    
C1    C5    T    
C11   C20   S    
H10   N6    S    
C3    O5    A    
C19   C25   T    
O6    Zn2   S    
C23   C25   S    
C8    N2    T    
C3    C18   S    
O1    Zn1   S    
C26   O3    A    
O2    Zn2   S    
H6    N4    S    
O8    Zn1   S    
H12   N7    S    
C7    N1    T    
C2    O4    A    
C4    O8    A    
C4    C19   S    
H4    N8    S    
C13   N6    S    
C20   N8    S    
H8    N5    S    
C8    C17   S    
C15   N4    S    
C16   C17   T    
