data_mof_unit_16959.cif
_audit_creation_date              2012-12-11T16:44:20-0500
_audit_creation_method            fapswitch 2.2
_symmetry_space_group_name_H-M    P1
_symmetry_Int_Tables_number       1
_space_group_crystal_system       triclinic
_cell_length_a                    26.967105
_cell_length_b                    7.19933
_cell_length_c                    22.785399
_cell_angle_alpha                 89.991176
_cell_angle_beta                  101.771107
_cell_angle_gamma                 89.996316
_cell_volume                      4330.64508606

loop_
_atom_site_label
_atom_site_type_symbol
_atom_type_description
_atom_site_fract_x
_atom_site_fract_y
_atom_site_fract_z
_atom_type_partial_charge
O1    O     O_R   0.707300 0.594030 0.176840 -0.532178
O2    O     O_R   0.292700 0.405970 0.823160 -0.529278
O3    O     O_R   0.792700 0.094030 0.323160 -0.532191
O4    O     O_R   0.207300 0.905970 0.676840 -0.529268
O5    O     O_R   0.697330 0.262360 0.295660 -0.538393
O6    O     O_R   0.302670 0.737640 0.704340 -0.540840
O7    O     O_R   0.802670 0.762360 0.204340 -0.538367
O8    O     O_R   0.197330 0.237640 0.795660 -0.540858
C1    C     C_R   0.684677 0.432175 0.311726 0.686656
C2    C     C_R   0.315196 0.567884 0.688156 0.684481
C3    C     C_R   0.815324 0.932182 0.188275 0.686752
C4    C     C_R   0.184804 0.067877 0.811845 0.684415
O9    O     O_R   0.701410 0.264250 0.175600 -0.530554
O10   O     O_R   0.298590 0.735750 0.824400 -0.528581
O11   O     O_R   0.798590 0.764250 0.324400 -0.530594
O12   O     O_R   0.201410 0.235750 0.675600 -0.528537
O13   O     O_R   0.796800 0.094950 0.202240 -0.538573
O14   O     O_R   0.203200 0.905050 0.797760 -0.537818
O15   O     O_R   0.703200 0.594950 0.297760 -0.538560
O16   O     O_R   0.296800 0.405050 0.702240 -0.537770
C5    C     C_R   0.689728 0.432260 0.153086 0.698964
C6    C     C_R   0.310358 0.567047 0.846793 0.698177
C7    C     C_R   0.810273 0.932225 0.346917 0.698980
C8    C     C_R   0.189638 0.067080 0.653209 0.698156
O17   O     O_3   0.781290 0.427390 0.258880 -0.369360
O18   O     O_3   0.218710 0.572610 0.741120 -0.369272
O19   O     O_3   0.718710 0.927390 0.241120 -0.369335
O20   O     O_3   0.281290 0.072610 0.758880 -0.369248
V1    V     V_3+5 0.744190 0.152150 0.248350 1.465946
V2    V     V_3+5 0.255810 0.847850 0.751650 1.476631
V3    V     V_3+5 0.755810 0.652150 0.251650 1.465989
V4    V     V_3+5 0.244190 0.347850 0.748350 1.476736
C9    C     C_R   0.156034 0.054517 0.593352 -0.060247
C10   C     C_R   0.844445 0.932055 0.406667 -0.066290
C11   C     C_R   0.343952 0.554338 0.906654 -0.060318
C12   C     C_R   0.655561 0.432241 0.093337 -0.066196
C13   C     C_R   0.147267 0.978570 0.487921 0.010864
C14   C     C_R   0.861406 0.805063 0.507567 0.011695
C15   C     C_R   0.352727 0.477153 0.012004 0.010857
C16   C     C_R   0.638684 0.306207 0.992331 0.011788
C17   C     C_R   0.177521 0.016931 0.544201 -0.183373
C18   C     C_R   0.828175 0.841438 0.453185 -0.186000
C19   C     C_R   0.322469 0.515899 0.955752 -0.183307
C20   C     C_R   0.671885 0.342218 0.046758 -0.186067
C21   C     C_R   0.103310 0.046291 0.586717 -0.145171
C22   C     C_R   0.895569 0.982146 0.414088 -0.155128
C23   C     C_R   0.396683 0.546585 0.913309 -0.145335
C24   C     C_R   0.604414 0.482009 0.085941 -0.155110
C25   C     C_R   0.071498 0.988521 0.531912 0.092527
C26   C     C_R   0.931807 0.929662 0.466257 0.093520
C27   C     C_R   0.428510 0.488403 0.968062 0.092498
C28   C     C_R   0.568213 0.429829 0.033715 0.093460
C29   C     C_R   0.093127 0.980434 0.480068 0.005182
C30   C     C_R   0.913131 0.864183 0.516528 0.006579
C31   C     C_R   0.406867 0.479463 0.019883 0.005204
C32   C     C_R   0.586934 0.365053 0.983397 0.006550
C33   C     C_R   0.018926 0.941825 0.527398 0.000372
C34   C     C_R   0.985702 0.942023 0.469824 -0.002539
C35   C     C_R   0.481104 0.442074 0.972552 0.000297
C36   C     C_R   0.514311 0.441838 0.030136 -0.002547
C37   C     C_R   0.007719 0.942087 0.417716 -0.085017
C38   C     C_R   0.999206 0.883360 0.578139 -0.082826
C39   C     C_R   0.492278 0.441135 0.082231 -0.085027
C40   C     C_R   0.500865 0.384364 0.921766 -0.082768
C41   C     C_R   0.060389 0.971286 0.422772 -0.083771
C42   C     C_R   0.946574 0.855736 0.573312 -0.086121
C43   C     C_R   0.439591 0.469929 0.077179 -0.083766
C44   C     C_R   0.553511 0.357030 0.926593 -0.086090
C45   C     C_R   0.859584 0.101775 0.117180 -0.109011
C46   C     C_R   0.117641 0.896887 0.852300 -0.131806
C47   C     C_R   0.640424 0.601726 0.382827 -0.108861
C48   C     C_R   0.382362 0.396890 0.647709 -0.132172
C49   C     C_R   0.894995 0.108844 0.080229 -0.129439
C50   C     C_R   0.081103 0.888926 0.887791 -0.124023
C51   C     C_R   0.605014 0.608789 0.419779 -0.129419
C52   C     C_R   0.418902 0.388933 0.612221 -0.123998
C53   C     C_R   0.926529 0.956728 0.075692 -0.002040
C54   C     C_R   0.072409 0.041477 0.922737 0.000724
C55   C     C_R   0.573476 0.456698 0.424315 -0.002020
C56   C     C_R   0.427598 0.541502 0.577270 0.000792
C57   C     C_R   0.921884 0.792705 0.108932 0.002668
C58   C     C_R   0.100481 0.207599 0.920547 0.004891
C59   C     C_R   0.578115 0.292702 0.391074 0.002686
C60   C     C_R   0.399526 0.707642 0.579455 0.004866
C61   C     C_R   0.885703 0.787733 0.145820 -0.208130
C62   C     C_R   0.136875 0.213809 0.884015 -0.185040
C63   C     C_R   0.614297 0.287734 0.354187 -0.208397
C64   C     C_R   0.363131 0.713845 0.615985 -0.184928
C65   C     C_R   0.854216 0.940956 0.150236 -0.078229
C66   C     C_R   0.145914 0.059409 0.849791 -0.064235
C67   C     C_R   0.645787 0.440937 0.349768 -0.078047
C68   C     C_R   0.354090 0.559427 0.650213 -0.064290
C69   C     C_R   0.015801 0.999311 0.061861 -0.073215
C70   C     C_R   0.983486 0.995100 0.937077 -0.089711
C71   C     C_R   0.484207 0.499440 0.438146 -0.073192
C72   C     C_R   0.516518 0.494969 0.562931 -0.089746
C73   C     C_R   0.051042 0.020927 0.024851 -0.075387
C74   C     C_R   0.948212 0.975210 0.974069 -0.090841
C75   C     C_R   0.448968 0.521079 0.475156 -0.075341
C76   C     C_R   0.551791 0.475054 0.525939 -0.090862
C77   C     C_R   0.035113 0.019820 0.962148 0.102200
C78   C     C_R   0.964132 0.976204 0.036699 0.105191
C79   C     C_R   0.464895 0.519841 0.537860 0.102182
C80   C     C_R   0.535873 0.476181 0.463309 0.105191
C81   C     C_2   0.079959 0.014857 0.367770 0.850034
O21   O     O_2   0.074803 0.903852 0.326320 -0.516674
O22   O     O_R   0.105055 0.183138 0.364223 -0.635649
H1    H     H_    0.117056 0.197271 0.325092 0.321472
C82   C     C_2   0.926082 0.840112 0.629063 0.845899
O23   O     O_2   0.940032 0.714903 0.664941 -0.519630
O24   O     O_R   0.889957 0.968339 0.639615 -0.647131
H2    H     H_    0.878401 0.943393 0.678517 0.314712
C83   C     C_2   0.419978 0.512681 0.132207 0.850037
O25   O     O_2   0.425185 0.401258 0.173556 -0.516614
O26   O     O_R   0.394778 0.680670 0.135890 -0.635720
H3    H     H_    0.382755 0.694241 0.175024 0.321362
C84   C     C_2   0.574028 0.342166 0.870843 0.845953
O27   O     O_2   0.560133 0.217265 0.834845 -0.519654
O28   O     O_R   0.610113 0.470756 0.860426 -0.647046
H4    H     H_    0.621690 0.446321 0.821509 0.314704
H5    H     H_    0.028712 0.001186 0.110096 0.125841
H6    H     H_    0.970498 0.993155 0.888852 0.131345
H7    H     H_    0.471297 0.501419 0.389910 0.125783
H8    H     H_    0.529505 0.492921 0.611157 0.131386
H9    H     H_    0.090753 0.038455 0.045014 0.121184
H10   H     H_    0.908489 0.957981 0.953910 0.128135
H11   H     H_    0.409259 0.538717 0.454991 0.121161
H12   H     H_    0.591512 0.457713 0.546100 0.128142
H13   H     H_    0.906513 0.059039 0.378124 0.125619
H14   H     H_    0.087768 0.084544 0.625062 0.123225
H15   H     H_    0.593428 0.558448 0.121962 0.125593
H16   H     H_    0.412219 0.585455 0.875013 0.123311
H17   H     H_    0.789585 0.789667 0.445706 0.126885
H18   H     H_    0.218469 0.009307 0.550527 0.136812
H19   H     H_    0.710498 0.290667 0.054209 0.126833
H20   H     H_    0.281525 0.507889 0.949396 0.136798
C85   C     C_2   0.174304 0.906530 0.442154 0.785984
O29   O     O_2   0.211971 0.986703 0.432927 -0.529216
O30   O     O_R   0.158122 0.741686 0.411763 -0.634869
H21   H     H_    0.179945 0.705254 0.382279 0.327347
C86   C     C_2   0.842341 0.675865 0.548598 0.773642
O31   O     O_2   0.800765 0.701539 0.560821 -0.540328
O32   O     O_R   0.870901 0.519601 0.570825 -0.639858
H22   H     H_    0.853654 0.440435 0.597564 0.331365
C87   C     C_2   0.325715 0.404241 0.057678 0.785833
O33   O     O_2   0.287982 0.483859 0.066952 -0.529223
O34   O     O_R   0.341999 0.239219 0.087921 -0.634898
H23   H     H_    0.320183 0.202170 0.117349 0.327415
C88   C     C_2   0.657820 0.177653 0.951187 0.773675
O35   O     O_2   0.699389 0.203816 0.939002 -0.540334
O36   O     O_R   0.629334 0.021419 0.928800 -0.639750
H24   H     H_    0.646623 0.942712 0.901991 0.331372
C89   C     C_2   0.978246 0.878943 0.358621 0.808178
O37   O     O_2   0.958985 0.724438 0.353987 -0.533247
O38   O     O_R   0.972017 0.996679 0.308793 -0.645956
H25   H     H_    0.950902 0.938124 0.271456 0.304444
C90   C     C_2   0.033499 0.817800 0.633941 0.797337
O39   O     O_2   0.063039 0.690487 0.631468 -0.541935
O40   O     O_R   0.032483 0.903269 0.688817 -0.651079
H26   H     H_    0.057872 0.847057 0.723203 0.294416
C91   C     C_2   0.521764 0.377595 0.141279 0.808223
O41   O     O_2   0.541086 0.223179 0.145792 -0.533271
O42   O     O_R   0.527932 0.494865 0.191205 -0.646008
H27   H     H_    0.549062 0.436077 0.228498 0.304450
C92   C     C_2   0.466614 0.319278 0.865881 0.797295
O43   O     O_2   0.437111 0.191739 0.868198 -0.541962
O44   O     O_R   0.467627 0.405439 0.811103 -0.651032
H28   H     H_    0.442268 0.349492 0.776646 0.294464
H29   H     H_    0.835916 0.222195 0.119193 0.127992
H30   H     H_    0.123470 0.775590 0.826420 0.129649
H31   H     H_    0.664095 0.722128 0.380815 0.127958
H32   H     H_    0.376534 0.275580 0.673594 0.129863
H33   H     H_    0.898099 0.234814 0.055189 0.146712
H34   H     H_    0.059965 0.761392 0.888801 0.150446
H35   H     H_    0.601914 0.734738 0.444820 0.146673
H36   H     H_    0.440039 0.261385 0.611215 0.150473
C93   C     C_2   0.952957 0.623199 0.105565 0.756285
O45   O     O_2   0.973898 0.598798 0.063384 -0.534391
O46   O     O_R   0.957476 0.488301 0.150561 -0.653647
H37   H     H_    0.979182 0.379043 0.143277 0.311444
C94   C     C_2   0.092362 0.378017 0.954405 0.746665
O47   O     O_2   0.051883 0.405646 0.969214 -0.532672
O48   O     O_R   0.131030 0.510106 0.968289 -0.659639
H38   H     H_    0.121114 0.620108 0.991206 0.310830
C95   C     C_2   0.547036 0.123222 0.394437 0.756312
O49   O     O_2   0.526064 0.098856 0.436597 -0.534368
O50   O     O_R   0.542543 0.988310 0.349463 -0.653703
H39   H     H_    0.520827 0.879077 0.356740 0.311438
C96   C     C_2   0.407650 0.878086 0.545598 0.746620
O51   O     O_2   0.448128 0.905686 0.530784 -0.532650
O52   O     O_R   0.368988 0.010233 0.531720 -0.659673
H40   H     H_    0.378907 0.120245 0.508802 0.310855
H41   H     H_    0.881762 0.662860 0.170994 0.172302
H42   H     H_    0.158333 0.340165 0.882181 0.154840
H43   H     H_    0.618235 0.162885 0.329010 0.172260
H44   H     H_    0.341672 0.840213 0.617815 0.154846

loop_
_geom_bond_atom_site_label_1
_geom_bond_atom_site_label_2
_ccdc_geom_bond_type
O17   V3    S    
C59   C63   A    
C25   C29   A    
O1    C5    A    
C92   O43   D    
C63   C67   A    
O19   V1    S    
C9    C21   A    
C64   H44   S    
C81   O21   D    
O3    C7    A    
O24   H2    S    
C10   C18   A    
C76   C80   A    
C56   C60   A    
C11   C23   A    
C1    C67   S    
C22   H13   S    
C91   O41   D    
C95   O49   D    
C25   C33   A    
C33   C38   A    
C5    C12   S    
C94   O47   D    
O7    C3    A    
C6    C11   S    
C85   O30   S    
C58   C94   S    
C35   C40   A    
C90   O39   D    
C18   H17   S    
C48   H32   S    
C4    C66   S    
C69   H5    S    
C50   H34   S    
C21   H14   S    
C82   O24   S    
C48   C68   A    
C71   C75   A    
C95   O50   S    
C70   C74   A    
C71   H7    S    
O26   H3    S    
O1    V3    S    
O13   V1    S    
O2    V4    S    
O3    V1    S    
C54   C58   A    
C28   C36   A    
C91   O42   S    
C1    O15   A    
C15   C31   A    
O34   H23   S    
C70   C77   A    
C2    O16   A    
C93   O46   S    
C46   C50   A    
O36   H24   S    
C24   H15   S    
C45   C49   A    
C10   C22   A    
C21   C25   A    
C89   O38   S    
C11   C19   A    
C16   C20   A    
C48   C52   A    
C13   C29   A    
C34   C37   A    
O11   C7    A    
O15   V3    S    
C35   C36   A    
O12   C8    A    
C13   C85   S    
C54   C77   S    
C49   H33   S    
C88   O36   S    
C53   C78   S    
C46   C66   A    
O10   V2    S    
C45   C65   A    
C41   C81   S    
C17   H18   S    
C87   O34   S    
C87   O33   D    
O5    V1    S    
C94   O48   S    
C39   C43   A    
C47   C51   A    
O7    V3    S    
C38   C42   A    
C56   C79   S    
C51   H35   S    
O52   H40   S    
C26   C34   A    
C64   C68   A    
C52   H36   S    
C73   H9    S    
C75   C79   A    
C62   C66   A    
O44   H28   S    
C61   C65   A    
O18   V4    S    
C92   O44   S    
C15   C19   A    
C52   C56   A    
C16   C32   A    
C74   C78   A    
C86   O32   S    
O8    V4    S    
O48   H38   S    
O5    C1    A    
C40   C92   S    
C44   C84   S    
C81   O22   S    
C3    C65   S    
C31   C43   A    
O40   H26   S    
C14   C30   A    
C53   C57   A    
O8    C4    A    
C7    C10   S    
C73   C77   A    
C15   C87   S    
C38   C90   S    
O9    C5    A    
C60   C96   S    
C45   H29   S    
O28   H4    S    
C75   H11   S    
C70   H6    S    
C72   H8    S    
O6    V2    S    
C36   C39   A    
C50   C54   A    
O14   V2    S    
C14   C86   S    
C47   H31   S    
C55   C80   S    
C12   C20   A    
C27   C35   A    
O22   H1    S    
C4    O14   A    
C40   C44   A    
C69   C73   A    
C29   C41   A    
C71   C80   A    
C83   O25   D    
O16   V4    S    
C74   H10   S    
O9    V1    S    
C96   O51   D    
C39   C91   S    
C3    O13   A    
C76   H12   S    
C60   C64   A    
C37   C89   S    
C69   C78   A    
O6    C2    A    
C23   C27   A    
O30   H21   S    
O11   V3    S    
C30   C42   A    
O12   V4    S    
C85   O29   D    
C22   C26   A    
C84   O27   D    
C8    C9    S    
C23   H16   S    
C9    C17   A    
O10   C6    A    
C84   O28   S    
C43   C83   S    
C57   C93   S    
O50   H39   S    
C26   C30   A    
C32   C44   A    
C88   O35   D    
C62   H42   S    
C58   C62   A    
C61   H41   S    
C33   C34   A    
C28   C32   A    
C20   H19   S    
O4    C8    A    
C72   C76   A    
O20   V2    S    
O2    C6    A    
C16   C88   S    
C12   C24   A    
C27   C31   A    
C42   C82   S    
C13   C17   A    
C19   H20   S    
C57   C61   A    
O42   H27   S    
C2    C68   S    
O46   H37   S    
C55   C59   A    
C14   C18   A    
C37   C41   A    
C24   C28   A    
C47   C67   A    
C90   O40   S    
C93   O45   D    
C46   H30   S    
C72   C79   A    
C82   O23   D    
O38   H25   S    
C49   C53   A    
C59   C95   S    
C63   H43   S    
C96   O52   S    
C89   O37   D    
C86   O31   D    
C51   C55   A    
O4    V2    S    
O32   H22   S    
C83   O26   S    
