data_mof_unit_6436.cif
_audit_creation_date              2012-12-10T19:00:45-0500
_audit_creation_method            fapswitch 2.2
_symmetry_space_group_name_H-M    P1
_symmetry_Int_Tables_number       1
_space_group_crystal_system       triclinic
_cell_length_a                    15.022099
_cell_length_b                    10.828013
_cell_length_c                    9.707858
_cell_angle_alpha                 89.803099
_cell_angle_beta                  88.04992
_cell_angle_gamma                 94.193722
_cell_volume                      1573.90731182

loop_
_atom_site_label
_atom_site_type_symbol
_atom_type_description
_atom_site_fract_x
_atom_site_fract_y
_atom_site_fract_z
_atom_type_partial_charge
C1    C     C_R   0.499038 0.262872 0.500288 0.794433
C2    C     C_R   0.912434 0.601701 0.494252 0.112411
C3    C     C_R   0.939886 0.265118 0.539275 -0.191745
C4    C     C_R   0.031960 0.265891 0.548792 -0.187689
C5    C     C_R   0.086686 0.376521 0.532351 0.107081
C6    C     C_R   0.046007 0.488398 0.509927 0.035427
C7    C     C_R   0.098805 0.600909 0.491182 0.120275
C8    C     C_R   0.058271 0.712448 0.476548 -0.170766
C9    C     C_R   0.965610 0.713086 0.480572 -0.168864
C10   C     C_R   0.180786 0.378219 0.537550 0.164694
C11   C     C_R   0.232256 0.490841 0.508709 -0.025032
C12   C     C_R   0.329229 0.497865 0.502411 0.845766
C13   C     C_R   0.191387 0.600471 0.486958 -0.291172
C14   C     C_R   0.516865 0.065373 0.619946 0.108052
C15   C     C_R   0.500981 0.129644 0.499499 -0.108505
C16   C     C_R   0.488368 0.063724 0.376681 -0.181455
C17   C     C_R   0.483960 0.935256 0.378188 -0.228220
C18   C     C_R   0.497792 0.870783 0.500318 -0.085721
C19   C     C_R   0.516052 0.937607 0.620382 0.120067
C20   C     C_3   0.466807 0.928441 0.757178 -0.456078
C21   C     C_3   0.468168 0.068324 0.756315 -0.410025
C22   C     C_R   0.573748 0.544042 0.066611 0.129477
C23   C     C_R   0.497974 0.736969 0.500132 0.781429
C24   C     C_R   0.434346 0.430669 0.077931 0.469736
C25   C     C_R   0.431991 0.438679 0.929015 0.117432
C26   C     C_R   0.574062 0.539263 0.921736 0.114892
C27   C     C_3   0.629727 0.655430 0.898818 -0.470452
C28   C     C_3   0.628707 0.668031 0.056005 0.499665
C29   C     C_R   0.670583 0.499305 0.498392 0.826608
C30   C     C_R   0.819969 0.602283 0.496117 -0.215807
C31   C     C_R   0.766667 0.491413 0.496489 -0.004112
C32   C     C_R   0.804802 0.376248 0.506718 0.115353
C33   C     C_R   0.898446 0.375519 0.517656 0.110527
C34   C     C_R   0.952225 0.488357 0.506983 0.038352
Cu1   Cu    Cu3+1 0.500000 0.499980 0.640670 0.940375
Cu2   Cu    Cu3+1 0.500000 0.500020 0.359330 1.046609
H1    H     H_    0.788992 0.689530 0.497511 0.160428
H2    H     H_    0.466017 0.886931 0.284979 0.174163
H3    H     H_    0.398551 0.881964 0.750889 0.206554
H4    H     H_    0.507482 0.892811 0.839651 0.195177
H5    H     H_    0.400621 0.103151 0.749295 0.202735
H6    H     H_    0.510281 0.112601 0.837028 0.216884
H7    H     H_    0.695014 0.636508 0.849224 0.229553
H8    H     H_    0.594031 0.725318 0.843105 0.184989
H9    H     H_    0.901826 0.176785 0.550911 0.158989
H10   H     H_    0.059281 0.177934 0.567149 0.158507
H11   H     H_    0.232264 0.686225 0.468713 0.134479
H12   H     H_    0.098284 0.799359 0.463254 0.144130
H13   H     H_    0.935495 0.800489 0.470536 0.139638
H14   H     H_    0.477390 0.110516 0.280706 0.214560
N1    N     N_R   0.500570 0.500930 0.147930 -0.285603
N2    N     N_R   0.500570 0.500890 0.852020 -0.204126
O1    O     O_R   0.500000 0.319640 0.618810 -0.598044
O2    O     O_R   0.500010 0.319680 0.381230 -0.525153
O3    O     O_R   0.370250 0.499950 0.618800 -0.617243
O4    O     O_R   0.370260 0.499990 0.381220 -0.494674
O5    O     O_R   0.499990 0.680320 0.618770 -0.581458
O6    O     O_R   0.500000 0.680360 0.381190 -0.590673
O7    O     O_R   0.629740 0.500010 0.618780 -0.584819
O8    O     O_R   0.629750 0.500050 0.381200 -0.517305
S1    S     S_3+6 0.350934 0.319196 0.157143 0.001050
O9    O     O_2   0.260714 0.364837 0.131548 -0.292357
O10   O     O_2   0.359562 0.199377 0.081094 -0.374547
O11   O     O_3   0.347607 0.278996 0.323264 -0.520258
H15   H     H_    0.321114 0.192501 0.326929 0.354097
C35   C     C_3   0.351874 0.382914 0.854532 -0.612186
H16   H     H_    0.374518 0.331920 0.764313 0.231449
H17   H     H_    0.306916 0.311511 0.904975 0.255103
H18   H     H_    0.307293 0.457207 0.832570 0.227129
S2    S     S_3+6 0.739512 0.666294 0.121420 0.015278
O12   O     O_2   0.761288 0.535884 0.151752 -0.261726
O13   O     O_2   0.806764 0.722557 0.016568 -0.302451
O14   O     O_3   0.745768 0.750661 0.266147 -0.569777
H19   H     H_    0.806705 0.792450 0.263357 0.365712
C36   C     C_3   0.746981 0.255485 0.506612 -0.839431
H20   H     H_    0.676613 0.268057 0.485410 0.217073
H21   H     H_    0.771423 0.194101 0.424427 0.239965
H22   H     H_    0.748859 0.208746 0.608321 0.230609
C37   C     C_3   0.580931 0.781341 0.102550 -0.814666
H23   H     H_    0.508364 0.769042 0.083017 0.191450
H24   H     H_    0.591363 0.797990 0.212861 0.284453
H25   H     H_    0.609944 0.865097 0.046220 0.223954
C38   C     C_3   0.224348 0.261213 0.575204 -0.870777
H26   H     H_    0.297938 0.272957 0.575320 0.231093
H27   H     H_    0.200782 0.230228 0.680215 0.229284
H28   H     H_    0.206605 0.186863 0.500533 0.235772

loop_
_geom_bond_atom_site_label_1
_geom_bond_atom_site_label_2
_ccdc_geom_bond_type
C23   O6    A    
C35   H17   S    
C24   S1    S    
Cu1   O1    S    
O14   H19   S    
C19   C20   S    
C1    O2    A    
C32   C36   S    
C7    C8    A    
C4    H10   S    
C26   C27   S    
C38   H26   S    
C14   C21   S    
C16   H14   S    
Cu2   O6    S    
C5    C6    A    
C20   H4    S    
C35   H18   S    
C3    C33   A    
C15   C16   A    
C10   C38   S    
Cu1   O7    S    
C18   C19   A    
S1    O10   D    
C28   C37   S    
C1    O1    A    
C27   H8    S    
C29   O7    A    
C8    C9    A    
S2    O12   D    
C1    C15   S    
C2    C34   A    
C24   N1    A    
C35   H16   S    
C22   C28   S    
C33   C34   A    
Cu1   O3    S    
C18   C23   S    
C9    H13   S    
C24   C25   A    
C37   H24   S    
C20   H3    S    
C16   C17   A    
C3    H9    S    
C6    C34   A    
C30   H1    S    
Cu1   Cu2   S    
S1    O11   S    
C36   H20   S    
C8    H12   S    
Cu2   O4    S    
C26   N2    A    
C31   C32   A    
C29   O8    A    
S2    O14   S    
C17   C18   A    
C36   H21   S    
C12   O4    A    
Cu2   N1    S    
C21   H5    S    
C38   H27   S    
C3    C4    A    
Cu1   N2    S    
C13   H11   S    
C23   O5    A    
C21   H6    S    
C14   C19   A    
C28   S2    S    
C25   C35   S    
C4    C5    A    
Cu2   O8    S    
C37   H25   S    
C11   C12   S    
C6    C7    A    
C2    C30   A    
Cu1   O5    S    
C32   C33   A    
C25   N2    A    
C5    C10   A    
C29   C31   S    
O11   H15   S    
C11   C13   A    
C30   C31   A    
C17   H2    S    
S1    O9    D    
C36   H22   S    
C12   O3    A    
Cu2   O2    S    
C10   C11   A    
C37   H23   S    
C27   H7    S    
C7    C13   A    
C38   H28   S    
C20   C21   S    
C22   C26   A    
C27   C28   S    
C14   C15   A    
S2    O13   D    
C2    C9    A    
C22   N1    A    
