data_mof_unit_41174.cif
_audit_creation_date              2012-12-10T17:20:14-0500
_audit_creation_method            fapswitch 2.2
_symmetry_space_group_name_H-M    P1
_symmetry_Int_Tables_number       1
_space_group_crystal_system       triclinic
_cell_length_a                    18.330992
_cell_length_b                    18.309922
_cell_length_c                    27.637578
_cell_angle_alpha                 89.778211
_cell_angle_beta                  89.347792
_cell_angle_gamma                 89.903172
_cell_volume                      9275.56692748

loop_
_atom_site_label
_atom_site_type_symbol
_atom_type_description
_atom_site_fract_x
_atom_site_fract_y
_atom_site_fract_z
_atom_type_partial_charge
C1    C     C_1   0.500146 0.999763 0.930967 0.053130
C2    C     C_1   0.500097 0.000152 0.025496 0.022376
C3    C     C_R   0.619232 0.348379 0.174626 0.025165
C4    C     C_R   0.877666 0.828357 0.843748 0.077248
C5    C     C_R   0.317519 0.370788 0.148007 0.004699
C6    C     C_R   0.731285 0.229319 0.878544 0.016544
C7    C     C_R   0.308275 0.749665 0.109229 -0.032965
C8    C     C_R   0.232411 0.712352 0.698396 0.017066
C9    C     C_R   0.831849 0.223993 0.249337 -0.026084
C10   C     C_R   0.233652 0.184337 0.726442 -0.025784
C11   C     C_R   0.687914 0.742059 0.282287 -0.036065
C12   C     C_R   0.762437 0.291752 0.699528 0.014755
C13   C     C_1   0.999765 0.500673 0.974515 0.011655
C14   C     C_R   0.168336 0.776007 0.266599 -0.027100
C15   C     C_R   0.685095 0.739032 0.720468 -0.028555
C16   C     C_R   0.265345 0.220304 0.300954 0.005338
C17   C     C_R   0.747443 0.692589 0.285682 0.014381
C18   C     C_R   0.200833 0.249793 0.710902 0.017163
C19   C     C_R   0.779430 0.167003 0.247160 -0.020163
C20   C     C_R   0.288245 0.766625 0.696942 0.013049
C21   C     C_R   0.225328 0.286251 0.303791 0.026148
C22   C     C_R   0.740148 0.684085 0.720989 -0.008731
C23   C     C_R   0.223487 0.829792 0.267281 -0.023294
C24   C     C_1   0.000597 0.500699 0.025488 0.013225
C25   C     C_R   0.707870 0.236290 0.700893 0.006109
C26   C     C_R   0.692317 0.257521 0.217950 0.006803
C27   C     C_R   0.305080 0.744903 0.783038 -0.024696
C28   C     C_R   0.808822 0.753597 0.214230 -0.023013
C29   C     C_R   0.267424 0.317671 0.772149 -0.031072
C30   C     C_R   0.276615 0.779485 0.193499 0.019950
C31   C     C_R   0.721912 0.227055 0.789736 0.000578
C32   C     C_R   0.270757 0.327263 0.225966 -0.021246
C33   C     C_R   0.811135 0.756999 0.781773 -0.025790
C34   C     C_R   0.301080 0.252465 0.787453 0.021806
C35   C     C_1   0.000206 0.499765 0.474520 0.039132
C36   C     C_R   0.751271 0.805525 0.212919 0.023685
C37   C     C_R   0.235339 0.715759 0.787691 -0.029544
C38   C     C_R   0.734418 0.314112 0.236003 0.005778
C39   C     C_R   0.758255 0.813699 0.779004 0.011248
C40   C     C_R   0.320173 0.268411 0.224733 -0.025297
C41   C     C_R   0.753719 0.295887 0.788088 -0.044629
C42   C     C_R   0.221554 0.724396 0.193143 0.015015
C43   C     C_R   0.200889 0.692841 0.744714 0.035314
C44   C     C_R   0.807798 0.298465 0.247345 0.033663
C45   C     C_R   0.292825 0.188459 0.759155 0.015075
C46   C     C_1   0.000193 0.500034 0.525495 0.034423
C47   C     C_R   0.693601 0.801049 0.248234 0.049673
C48   C     C_R   0.790094 0.317025 0.744547 0.011196
C49   C     C_R   0.176488 0.714802 0.235177 0.015079
C50   C     C_R   0.695903 0.803505 0.748783 0.046778
C51   C     C_R   0.312698 0.209063 0.258966 -0.001656
C52   C     C_R   0.805095 0.696982 0.250149 0.052283
C53   C     C_R   0.207959 0.313058 0.739878 0.011896
C54   C     C_R   0.706366 0.185894 0.235225 0.031817
C55   C     C_R   0.319734 0.788246 0.741549 0.021747
C56   C     C_R   0.214256 0.326191 0.261273 0.023566
C57   C     C_1   0.499415 0.999919 0.474527 0.022242
C58   C     C_R   0.803064 0.695043 0.750609 0.044373
C59   C     C_R   0.285492 0.822804 0.235949 0.018065
C60   C     C_R   0.693162 0.199687 0.746081 0.044734
C61   C     C_2   0.385135 0.691932 0.904497 0.645929
C62   C     C_2   0.567856 0.368994 0.135584 0.624478
C63   C     C_2   0.376408 0.455714 0.845216 0.620444
C64   C     C_2   0.942770 0.839036 0.122520 0.660387
C65   C     C_2   0.725987 0.191968 0.926373 0.567580
C66   C     C_2   0.349567 0.767599 0.064181 0.630721
C67   C     C_2   0.938485 0.834303 0.878961 0.654570
C68   C     C_1   0.500238 0.999899 0.525500 0.028418
C69   C     C_2   0.310871 0.422770 0.106958 0.632182
C70   C     C_2   0.816514 0.932421 0.110428 0.572400
C71   C     C_2   0.396834 0.320645 0.900525 0.634339
C72   C     C_2   0.617162 0.478406 0.205528 0.617964
C73   C     C_2   0.225665 0.683431 0.923372 0.641206
C74   C     C_2   0.404880 0.286533 0.101256 0.596827
C75   C     C_2   0.836710 0.952571 0.868316 0.597244
C76   C     C_2   0.252752 0.641340 0.067797 0.639867
C77   C     C_2   0.752563 0.349386 0.920618 0.673208
C78   C     C_2   0.000752 0.124907 0.290704 0.634377
C79   C     C_R   0.500323 0.999939 0.620853 0.505847
C80   C     C_2   0.203590 0.680447 0.563236 0.611288
C81   C     C_2   0.559839 0.666556 0.381672 0.650041
C82   C     C_2   0.138939 0.046384 0.645887 0.648297
C83   C     C_2   0.054281 0.825911 0.376543 0.612638
C84   C     C_2   0.776917 0.327444 0.563039 0.590349
C85   C     C_2   0.230600 0.148726 0.429460 0.600412
C86   C     C_2   0.536486 0.644081 0.646879 0.649721
C87   C     C_2   0.104186 0.184987 0.597384 0.567905
C88   C     C_2   0.684994 0.573057 0.393086 0.608394
C89   C     C_2   0.312893 0.794541 0.560673 0.620654
C90   C     C_R   0.499644 0.999980 0.379154 0.517532
C91   C     C_2   0.890887 0.005616 0.291558 0.636539
C92   C     C_2   0.650052 0.533663 0.645951 0.628853
C93   C     C_2   0.191041 0.302364 0.439741 0.617878
C94   C     C_2   0.653645 0.229411 0.567708 0.585454
C95   C     C_2   0.167907 0.941546 0.376048 0.629757
C96   C     C_R   0.999984 0.500102 0.620841 0.509094
C97   C     C_1   0.500056 0.000273 0.069045 0.048872
C98   C     C_R   0.999992 0.499882 0.379165 0.513799
C99   C     C_R   0.000355 0.500175 0.120850 0.517328
C100  C     C_R   0.999676 0.500165 0.879151 0.510326
C101  C     C_R   0.500031 0.000117 0.120841 0.514941
C102  C     C_R   0.500096 0.999895 0.879163 0.512748
C103  C     C_R   0.639468 0.859095 0.749182 0.553755
C104  C     C_R   0.361054 0.143231 0.252241 0.529715
C105  C     C_R   0.140929 0.639802 0.748948 0.534138
C106  C     C_R   0.859999 0.359197 0.250231 0.542199
C107  C     C_R   0.355949 0.136879 0.753544 0.528536
C108  C     C_1   0.999276 0.500480 0.930963 0.051455
C109  C     C_R   0.639784 0.859574 0.249688 0.537953
C110  C     C_R   0.856536 0.362646 0.748385 0.552662
C111  C     C_R   0.135482 0.645074 0.245797 0.546543
C112  C     C_R   0.355071 0.864038 0.246345 0.552799
C113  C     C_R   0.639974 0.140524 0.749327 0.599588
C114  C     C_R   0.860409 0.640411 0.249817 0.546689
C115  C     C_R   0.144238 0.363582 0.746168 0.531527
C116  C     C_R   0.643159 0.137368 0.246303 0.521824
C117  C     C_R   0.363759 0.855845 0.747390 0.549903
C118  C     C_R   0.144535 0.364866 0.253095 0.544827
C119  C     C_1   0.000918 0.500522 0.069040 0.054855
C120  C     C_R   0.859695 0.640031 0.750140 0.497706
C121  C     C_R   0.317124 0.789810 0.651329 0.080947
C122  C     C_R   0.804243 0.093370 0.252702 0.090154
C123  C     C_R   0.164984 0.250619 0.665719 0.096299
C124  C     C_R   0.747257 0.639551 0.324531 0.059660
C125  C     C_R   0.668387 0.221361 0.657736 0.094436
C126  C     C_R   0.210567 0.892321 0.296521 0.075056
C127  C     C_R   0.729410 0.619354 0.691851 0.064515
C128  C     C_R   0.202183 0.314227 0.349194 0.097975
C129  C     C_R   0.624560 0.729882 0.313042 0.067209
C130  C     C_1   0.000130 0.499679 0.430968 0.062675
C131  C     C_R   0.205079 0.117345 0.708889 0.098253
C132  C     C_R   0.906635 0.203876 0.252586 0.106160
C133  C     C_R   0.213154 0.677558 0.654151 0.075158
C134  C     C_R   0.256316 0.171837 0.341152 0.088301
C135  C     C_R   0.621170 0.727134 0.690996 0.072811
C136  C     C_R   0.103820 0.789346 0.294745 0.108137
C137  C     C_R   0.781213 0.325058 0.654171 0.105971
C138  C     C_R   0.702762 0.384598 0.238251 0.082593
C139  C     C_R   0.206706 0.705362 0.835295 0.092731
C140  C     C_R   0.751805 0.859686 0.175022 0.094922
C141  C     C_1   0.000110 0.500213 0.569045 0.051801
C142  C     C_R   0.338742 0.252745 0.831923 0.091371
C143  C     C_R   0.207290 0.687387 0.149020 0.079210
C144  C     C_R   0.747761 0.339804 0.830260 0.091016
C145  C     C_R   0.377517 0.273787 0.189705 0.094551
C146  C     C_R   0.768519 0.878836 0.807469 0.065771
C147  C     C_R   0.296483 0.385252 0.788447 0.105713
C148  C     C_R   0.868400 0.761615 0.179598 0.075108
C149  C     C_R   0.356656 0.727007 0.819260 0.105689
C150  C     C_R   0.642839 0.274777 0.180639 0.066689
C151  C     C_R   0.869986 0.764599 0.816179 0.070712
C152  C     C_1   0.499091 0.999946 0.430972 0.058686
C153  C     C_R   0.282410 0.386085 0.192338 0.115331
C154  C     C_R   0.717707 0.190370 0.835285 0.089218
C155  C     C_R   0.313195 0.796671 0.149346 0.059137
C156  C     C_R   0.285555 0.765650 0.607882 0.061343
C157  C     C_R   0.873111 0.079733 0.272980 0.064585
C158  C     C_R   0.146216 0.184079 0.643132 0.004116
C159  C     C_R   0.686287 0.631703 0.355620 0.034083
C160  C     C_R   0.692751 0.249174 0.612754 -0.028939
C161  C     C_R   0.164103 0.886027 0.337195 -0.019299
C162  C     C_R   0.661751 0.604862 0.670861 -0.012242
C163  C     C_1   0.500721 0.999905 0.569048 0.058343
C164  C     C_R   0.209327 0.271389 0.391284 -0.014036
C165  C     C_R   0.624678 0.675498 0.349080 0.089544
C166  C     C_R   0.162736 0.117309 0.666544 -0.005606
C167  C     C_R   0.925070 0.136355 0.273349 0.070415
C168  C     C_R   0.234712 0.708206 0.609175 0.052770
C169  C     C_R   0.233477 0.198744 0.386925 0.008448
C170  C     C_R   0.607955 0.658753 0.670204 0.009452
C171  C     C_R   0.108565 0.833210 0.336224 0.069797
C172  C     C_R   0.750238 0.299648 0.610846 -0.026201
C173  C     C_R   0.644342 0.402052 0.207351 0.048669
C174  C     C_1   0.500144 0.999902 0.974520 0.023136
C175  C     C_R   0.255236 0.700520 0.874500 0.067382
C176  C     C_R   0.815256 0.872733 0.147206 0.030531
C177  C     C_R   0.359168 0.319825 0.853041 -0.047148
C178  C     C_R   0.256437 0.693084 0.109434 0.032507
C179  C     C_R   0.742438 0.305554 0.875951 -0.011337
C180  C     C_R   0.362832 0.308643 0.145599 -0.023696
C181  C     C_R   0.827184 0.884959 0.839568 0.035120
C182  C     C_R   0.342785 0.386064 0.829024 0.032677
C183  C     C_R   0.874250 0.824624 0.150675 0.029072
C184  C     C_R   0.331399 0.705580 0.865601 0.061975
H1    H     H_    0.375878 0.878671 0.630860 0.287321
H2    H     H_    0.558949 0.221376 0.646648 0.238778
H3    H     H_    0.241895 0.962097 0.241806 0.244809
H4    H     H_    0.176989 0.992920 0.276851 0.228275
H5    H     H_    0.830633 0.597109 0.662259 0.270496
H6    H     H_    0.800555 0.534555 0.706652 0.247352
H7    H     H_    0.217937 0.416098 0.376036 0.242021
H8    H     H_    0.129347 0.393177 0.367695 0.288430
H9    H     H_    0.560629 0.822585 0.319023 0.238325
H10   H     H_    0.535887 0.761167 0.273138 0.274627
H11   H     H_    0.242224 0.013087 0.717506 0.275774
H12   H     H_    0.422725 0.798722 0.628937 0.269046
H13   H     H_    0.232765 0.059257 0.770621 0.240118
H14   H     H_    0.938512 0.272678 0.196622 0.225280
H15   H     H_    0.997562 0.267484 0.244035 0.294483
H16   H     H_    0.213210 0.568803 0.640049 0.264552
H17   H     H_    0.130717 0.610627 0.633901 0.272069
H18   H     H_    0.197832 0.079116 0.343052 0.256641
H19   H     H_    0.287758 0.068144 0.355512 0.316866
H20   H     H_    0.534066 0.793980 0.708901 0.240737
H21   H     H_    0.593384 0.828214 0.663672 0.261453
H22   H     H_    0.037988 0.767198 0.237085 0.232880
H23   H     H_    0.742444 0.001842 0.258205 0.285019
H24   H     H_    0.003068 0.742563 0.292262 0.306999
H25   H     H_    0.798834 0.432160 0.638678 0.291353
H26   H     H_    0.871801 0.376507 0.628550 0.263297
H27   H     H_    0.686295 0.447022 0.297818 0.276911
H28   H     H_    0.741580 0.485304 0.255200 0.263161
H29   H     H_    0.100607 0.729014 0.816350 0.253422
H30   H     H_    0.111424 0.653118 0.851890 0.254975
H31   H     H_    0.675949 0.882556 0.123808 0.250904
H32   H     H_    0.689478 0.950932 0.164157 0.249555
H33   H     H_    0.317138 0.190791 0.891377 0.238308
H34   H     H_    0.730405 0.049722 0.205054 0.244583
H35   H     H_    0.400677 0.176491 0.866384 0.295159
H36   H     H_    0.146417 0.599595 0.132051 0.297658
H37   H     H_    0.110364 0.681348 0.114481 0.284229
H38   H     H_    0.724723 0.431672 0.790596 0.228977
H39   H     H_    0.684300 0.428105 0.843590 0.265083
H40   H     H_    0.454961 0.272526 0.243450 0.251289
H41   H     H_    0.483926 0.241988 0.188579 0.263022
H42   H     H_    0.752744 0.986389 0.791565 0.251857
H43   H     H_    0.695268 0.951955 0.835403 0.255219
H44   H     H_    0.270595 0.439460 0.724970 0.237188
H45   H     H_    0.099805 0.323131 0.630470 0.279208
H46   H     H_    0.256222 0.487634 0.776514 0.297008
H47   H     H_    0.956878 0.698264 0.199726 0.227039
H48   H     H_    0.899064 0.659309 0.157063 0.271839
H49   H     H_    0.442654 0.721715 0.770118 0.245698
H50   H     H_    0.463741 0.755626 0.825763 0.275610
H51   H     H_    0.656486 0.234752 0.112922 0.274239
H52   H     H_    0.572870 0.218774 0.137113 0.278167
H53   H     H_    0.892087 0.661534 0.842273 0.267054
H54   H     H_    0.956922 0.696067 0.800444 0.249891
H55   H     H_    0.238959 0.488627 0.186067 0.280158
H56   H     H_    0.187896 0.320631 0.610536 0.289142
H57   H     H_    0.264266 0.466116 0.243758 0.256560
H58   H     H_    0.660455 0.103106 0.860969 0.266432
H59   H     H_    0.750702 0.087302 0.849813 0.277637
H60   H     H_    0.312503 0.895423 0.116068 0.239799
H61   H     H_    0.396232 0.862598 0.128747 0.274253
H62   H     H_    0.478081 0.642047 0.924963 0.363598
H63   H     H_    0.482323 0.431440 0.115602 0.390071
H64   H     H_    0.466157 0.506617 0.869867 0.383766
H65   H     H_    0.958000 0.937861 0.153029 0.326979
H66   H     H_    0.683756 0.191937 0.994131 0.358245
H67   H     H_    0.793833 0.538775 0.333051 0.236666
H68   H     H_    0.447442 0.748647 0.094444 0.310613
H69   H     H_    0.969740 0.858584 0.946796 0.374066
H70   H     H_    0.260763 0.349287 0.064508 0.301459
H71   H     H_    0.801509 0.039339 0.095675 0.360533
H72   H     H_    0.322038 0.387377 0.931587 0.314323
H73   H     H_    0.602760 0.569792 0.165784 0.355383
H74   H     H_    0.151873 0.707324 0.975741 0.368235
H75   H     H_    0.414589 0.180653 0.122252 0.313329
H76   H     H_    0.899517 0.039785 0.883040 0.362953
H77   H     H_    0.191060 0.578916 0.024168 0.379809
H78   H     H_    0.831418 0.606613 0.367016 0.281727
H79   H     H_    0.842328 0.293144 0.940496 0.299900
H80   H     H_    0.082903 0.055690 0.303478 0.341937
H81   H     H_    0.153871 0.704703 0.500397 0.357858
H82   H     H_    0.521079 0.658008 0.450088 0.368225
H83   H     H_    0.193237 0.062112 0.582667 0.318337
H84   H     H_    0.035257 0.828046 0.448631 0.368137
H85   H     H_    0.805847 0.227089 0.539523 0.327175
H86   H     H_    0.282912 0.074541 0.470659 0.376091
H87   H     H_    0.511639 0.561005 0.692392 0.304128
H88   H     H_    0.094811 0.223346 0.529216 0.397259
H89   H     H_    0.600153 0.139092 0.638659 0.278228
H90   H     H_    0.634216 0.483804 0.419959 0.372860
H91   H     H_    0.354573 0.772490 0.494446 0.354048
H92   H     H_    0.928253 0.944873 0.347051 0.382751
H93   H     H_    0.674436 0.473759 0.705199 0.293669
H94   H     H_    0.290179 0.279164 0.467160 0.310735
H95   H     H_    0.622901 0.333306 0.553794 0.338989
H96   H     H_    0.275596 0.925023 0.386448 0.320868
N1    N     N_3   0.384673 0.829267 0.648785 -0.603182
N2    N     N_3   0.210158 0.050648 0.736600 -0.553022
N3    N     N_3   0.961503 0.238428 0.222670 -0.602071
N4    N     N_3   0.177720 0.607725 0.654824 -0.592685
N5    N     N_3   0.250624 0.095180 0.333349 -0.542079
N6    N     N_3   0.568564 0.782695 0.679612 -0.608598
N7    N     N_3   0.033080 0.781832 0.273428 -0.552341
N8    N     N_3   0.828117 0.387630 0.652031 -0.592580
N9    N     N_3   0.728414 0.436505 0.273000 -0.604884
N10   N     N_3   0.129402 0.706333 0.845158 -0.523284
N11   N     N_3   0.685413 0.894562 0.160163 -0.581381
N12   N     N_3   0.767529 0.032770 0.231090 -0.552179
N13   N     N_3   0.345785 0.185594 0.858638 -0.598150
N14   N     N_3   0.137714 0.653754 0.142077 -0.587568
N15   N     N_3   0.734397 0.417331 0.826627 -0.530578
N16   N     N_3   0.451487 0.280574 0.206050 -0.564018
N17   N     N_3   0.721662 0.941294 0.802465 -0.587397
N18   N     N_3   0.291034 0.450537 0.759299 -0.563109
N19   N     N_3   0.922873 0.706755 0.170391 -0.597645
N20   N     N_3   0.432793 0.716985 0.807328 -0.541990
N21   N     N_3   0.628424 0.220322 0.144659 -0.571821
N22   N     N_3   0.919763 0.706873 0.828387 -0.599371
N23   N     N_3   0.154158 0.319137 0.641247 -0.585761
N24   N     N_3   0.277629 0.461424 0.207021 -0.538768
N25   N     N_3   0.703967 0.113309 0.837112 -0.621576
N26   N     N_3   0.343265 0.868267 0.142228 -0.606608
N27   N     N_3   0.809374 0.593653 0.333425 -0.584558
N28   N     N_3   0.598595 0.185835 0.660151 -0.605532
N29   N     N_3   0.226192 0.964533 0.278258 -0.545986
N30   N     N_3   0.786779 0.569615 0.678372 -0.625950
N31   N     N_3   0.181781 0.389849 0.352873 -0.617602
N32   N     N_3   0.556811 0.768424 0.307741 -0.588208
O1    O     O_3   0.500000 0.000000 0.750000 -0.445898
O2    O     O_R   0.439270 0.000000 0.356260 -0.533103
O3    O     O_R   0.491623 0.587080 0.662971 -0.626654
O4    O     O_2   0.048335 0.148968 0.594175 -0.439389
O5    O     O_R   0.128364 0.226924 0.558015 -0.644538
O6    O     O_2   0.731636 0.571032 0.424339 -0.465458
O7    O     O_R   0.629598 0.520670 0.392697 -0.650300
O8    O     O_2   0.313532 0.860370 0.553067 -0.482411
O9    O     O_R   0.337557 0.746317 0.524925 -0.635828
O10   O     O_2   0.881817 0.951782 0.266265 -0.481873
O11   O     O_R   0.917938 0.997690 0.338383 -0.625009
O12   O     O_2   0.630404 0.532836 0.603890 -0.384509
O13   O     O_R   1.000000 0.560730 0.643740 -0.539196
O14   O     O_R   0.661406 0.467316 0.669949 -0.666219
O15   O     O_2   0.131189 0.329707 0.447137 -0.447478
O16   O     O_R   0.241152 0.299870 0.477478 -0.611225
O17   O     O_2   0.650550 0.165593 0.555293 -0.455321
O18   O     O_R   0.620500 0.282790 0.539056 -0.606930
O19   O     O_2   0.113136 0.974923 0.388482 -0.399260
O20   O     O_R   0.233791 0.956191 0.398987 -0.628243
O21   O     O_R   1.000000 0.439270 0.356260 -0.520567
O22   O     O_R   0.939270 0.500000 0.143740 -0.527216
O23   O     O_R   0.060730 0.500000 0.856260 -0.537455
O24   O     O_R   0.500000 0.939270 0.143740 -0.538786
O25   O     O_R   0.500000 0.060730 0.856260 -0.540645
O26   O     O_R   0.060730 0.500000 0.143740 -0.551538
O27   O     O_R   0.939270 0.500000 0.856260 -0.519326
O28   O     O_R   0.500000 0.060730 0.143740 -0.533545
O29   O     O_3   0.500000 0.000000 0.250000 -0.444273
O30   O     O_R   0.500000 0.939270 0.856260 -0.526421
O31   O     O_R   0.646150 0.914560 0.722140 -0.514226
O32   O     O_R   0.353850 0.085440 0.277860 -0.495489
O33   O     O_R   0.085440 0.646150 0.722140 -0.516854
O34   O     O_R   0.914560 0.353850 0.277860 -0.532830
O35   O     O_R   0.353850 0.085440 0.722140 -0.555999
O36   O     O_R   0.646150 0.914560 0.277860 -0.554692
O37   O     O_R   0.914560 0.353850 0.722140 -0.506242
O38   O     O_R   0.085440 0.646150 0.277860 -0.560362
O39   O     O_R   0.353850 0.914560 0.277860 -0.520095
O40   O     O_3   1.000000 0.500000 0.750000 -0.446288
O41   O     O_R   0.646150 0.085440 0.722140 -0.513255
O42   O     O_R   0.914560 0.646150 0.277860 -0.534554
O43   O     O_R   0.085440 0.353850 0.722140 -0.513353
O44   O     O_R   0.646150 0.085440 0.277860 -0.543493
O45   O     O_R   0.353850 0.914560 0.722140 -0.522790
O46   O     O_R   0.085440 0.353850 0.277860 -0.514761
O47   O     O_R   0.914560 0.646150 0.722140 -0.541601
O48   O     O_R   0.146150 0.414560 0.222140 -0.573223
O49   O     O_R   0.853850 0.585440 0.777860 -0.553415
O50   O     O_R   0.585440 0.146150 0.222140 -0.535048
O51   O     O_3   0.000000 0.500000 0.250000 -0.446223
O52   O     O_R   0.414560 0.853850 0.777860 -0.572268
O53   O     O_R   0.853850 0.585440 0.222140 -0.545673
O54   O     O_R   0.146150 0.414560 0.777860 -0.550419
O55   O     O_R   0.414560 0.853850 0.222140 -0.519677
O56   O     O_R   0.585440 0.146150 0.777860 -0.510164
O57   O     O_R   0.853850 0.414560 0.777860 -0.526694
O58   O     O_R   0.146150 0.585440 0.222140 -0.535033
O59   O     O_R   0.414560 0.146150 0.777860 -0.513530
O60   O     O_R   0.585440 0.853850 0.222140 -0.523173
O61   O     O_R   0.146150 0.585440 0.777860 -0.554054
O62   O     O_R   0.439270 0.000000 0.643740 -0.536051
O63   O     O_R   0.853850 0.414560 0.222140 -0.524436
O64   O     O_R   0.585440 0.853850 0.777860 -0.547678
O65   O     O_R   0.414560 0.146150 0.222140 -0.578440
O66   O     O_2   0.377294 0.720954 0.943940 -0.403093
O67   O     O_R   0.445407 0.646824 0.895765 -0.651931
O68   O     O_2   0.577145 0.346081 0.094485 -0.430191
O69   O     O_R   0.509810 0.416456 0.145637 -0.626224
O70   O     O_2   0.340765 0.512226 0.845934 -0.475819
O71   O     O_R   0.449236 0.456358 0.859743 -0.637342
O72   O     O_2   0.966604 0.793192 0.094503 -0.410789
O73   O     O_R   0.560730 0.000000 0.356260 -0.523104
O74   O     O_R   0.980280 0.904981 0.127391 -0.623618
O75   O     O_2   0.759475 0.135242 0.933584 -0.489266
O76   O     O_R   0.682848 0.222101 0.963299 -0.613784
O77   O     O_2   0.316400 0.784887 0.027839 -0.392290
O78   O     O_R   0.425776 0.765709 0.062766 -0.618825
O79   O     O_2   0.000926 0.819512 0.866363 -0.452243
O80   O     O_R   0.924108 0.856693 0.926452 -0.624136
O81   O     O_2   0.333115 0.485207 0.111019 -0.403658
O82   O     O_R   0.279035 0.401488 0.063529 -0.606106
O83   O     O_2   0.833716 0.919071 0.068490 -0.434990
O84   O     O_R   1.000000 0.439270 0.643740 -0.542482
O85   O     O_R   0.798605 0.003779 0.123834 -0.696174
O86   O     O_2   0.452596 0.285189 0.906030 -0.403659
O87   O     O_R   0.370024 0.362458 0.939068 -0.563617
O88   O     O_2   0.590957 0.506583 0.241818 -0.484364
O89   O     O_R   0.622689 0.518350 0.162433 -0.640638
O90   O     O_2   0.251043 0.632643 0.946568 -0.448852
O91   O     O_R   0.167749 0.724477 0.942358 -0.618852
O92   O     O_2   0.416141 0.330010 0.068461 -0.364268
O93   O     O_R   0.431566 0.215340 0.095863 -0.644417
O94   O     O_2   0.791017 0.969633 0.898817 -0.460379
O95   O     O_R   1.000000 0.560730 0.356260 -0.523401
O96   O     O_R   0.898977 0.995407 0.861221 -0.660303
O97   O     O_2   0.309262 0.618816 0.049171 -0.368801
O98   O     O_R   0.185727 0.617668 0.050049 -0.723317
O99   O     O_2   0.710944 0.399581 0.930032 -0.389122
O100  O     O_R   0.809138 0.333655 0.952536 -0.628031
O101  O     O_2   0.033525 0.175437 0.309433 -0.483163
O102  O     O_R   0.034626 0.056949 0.286223 -0.657687
O103  O     O_2   0.205676 0.615299 0.553755 -0.498698
O104  O     O_R   0.172807 0.729649 0.530429 -0.631421
O105  O     O_2   0.498802 0.660919 0.364664 -0.447652
O106  O     O_R   0.560730 0.000000 0.643740 -0.537726
O107  O     O_R   0.568942 0.664426 0.431833 -0.643076
O108  O     O_2   0.101755 0.004781 0.670380 -0.391630
O109  O     O_R   0.158923 0.025964 0.598865 -0.587610
O110  O     O_2   0.990775 0.810413 0.368394 -0.497117
O111  O     O_R   0.076620 0.834877 0.424377 -0.631119
O112  O     O_2   0.774489 0.392670 0.553880 -0.425376
O113  O     O_R   0.803725 0.279544 0.527792 -0.601355
O114  O     O_2   0.175297 0.145146 0.454522 -0.418723
O115  O     O_R   0.291466 0.106255 0.440987 -0.683243
O116  O     O_2   0.516662 0.681920 0.613002 -0.408406
Zn1   Zn    Zn3+2 0.500000 0.913240 0.789820 0.937768
Zn2   Zn    Zn3+2 1.000000 0.586760 0.710180 0.947082
Zn3   Zn    Zn3+2 0.586760 0.000000 0.289820 0.950721
Zn4   Zn    Zn3+2 0.413240 0.000000 0.710180 0.944891
Zn5   Zn    Zn3+2 1.000000 0.586760 0.289820 0.951298
Zn6   Zn    Zn3+2 1.000000 0.413240 0.710180 0.963995
Zn7   Zn    Zn3+2 0.413240 0.000000 0.289820 0.965559
Zn8   Zn    Zn3+2 0.586760 0.000000 0.710180 0.975099
Zn9   Zn    Zn3+2 0.500000 0.086760 0.210180 0.922483
Zn10  Zn    Zn3+2 0.086760 0.500000 0.789820 0.943492
Zn11  Zn    Zn3+2 0.913240 0.500000 0.210180 0.956369
Zn12  Zn    Zn3+2 0.500000 0.086760 0.789820 0.981650
Zn13  Zn    Zn3+2 0.500000 0.913240 0.210180 0.945411
Zn14  Zn    Zn3+2 0.913240 0.500000 0.789820 0.953396
Zn15  Zn    Zn3+2 0.086760 0.500000 0.210180 0.920462
Zn16  Zn    Zn3+2 1.000000 0.413240 0.289820 0.987208

loop_
_geom_bond_atom_site_label_1
_geom_bond_atom_site_label_2
_ccdc_geom_bond_type
C67   O79   D    
C19   C122  A    
H82   O107  S    
C6    C179  A    
H26   N8    S    
H92   O11   S    
H80   O102  S    
H52   N21   S    
C164  C169  A    
H20   N6    S    
C78   C167  S    
H59   N25   S    
C40   C145  A    
C120  O47   A    
H66   O76   S    
C64   O74   S    
C27   C55   A    
C154  N25   S    
C142  C177  A    
C177  C182  A    
C57   C152  T    
O51   Zn15  S    
C65   O76   S    
C36   C47   A    
C143  C178  A    
H4    N29   S    
C10   C131  A    
C126  N29   S    
C100  O27   A    
H18   N5    S    
C95   O20   S    
C64   C183  S    
C9    C19   A    
C34   C142  A    
C131  C166  A    
C3    C150  A    
C134  C169  A    
C54   C116  S    
C96   O84   A    
C88   O7    S    
O24   Zn13  S    
H40   N16   S    
C25   C60   A    
H78   N27   S    
C85   O114  D    
C49   C111  S    
O53   Zn11  S    
H64   O71   S    
C50   C103  S    
O29   Zn13  S    
C11   C129  A    
H69   O80   S    
C93   O15   D    
C129  N32   S    
C46   C141  T    
O55   Zn13  S    
C122  N12   S    
C90   C152  S    
C26   C38   A    
H24   N7    S    
C51   C104  S    
C85   C169  S    
O51   Zn11  S    
O38   Zn5   S    
C73   C175  S    
C103  O31   A    
C106  O63   A    
O1    Zn4   S    
C147  N18   S    
H68   O78   S    
C140  C176  A    
C160  C172  A    
C151  N22   S    
C72   C173  S    
O42   Zn5   S    
C73   O91   S    
H48   N19   S    
C74   O92   D    
C100  O23   A    
H11   N2    S    
H72   O87   S    
C80   O104  S    
O13   Zn2   S    
C55   C117  S    
C117  O45   A    
O48   Zn15  S    
C146  C181  A    
H53   N22   S    
H50   N20   S    
C22   C58   A    
C74   O93   S    
C101  O24   A    
C149  N20   S    
H93   O14   S    
C93   C164  S    
O26   Zn15  S    
O30   Zn1   S    
C125  N28   S    
C7    C66   S    
C153  N24   S    
C105  O61   A    
C22   C127  A    
O34   Zn16  S    
C10   C18   A    
O57   Zn14  S    
C8    C43   A    
H91   O9    S    
C98   O95   A    
C69   O81   D    
C99   C119  S    
H36   N14   S    
C132  N3    S    
O54   Zn10  S    
H67   N27   S    
C84   O113  S    
C118  O48   A    
C42   C143  A    
O40   Zn6   S    
C70   C176  S    
C80   C168  S    
C53   C115  S    
C61   O66   D    
C140  N11   S    
C48   C110  S    
C98   O21   A    
C16   C21   A    
H16   N4    S    
C121  C156  A    
C78   O101  D    
C16   C51   A    
C75   O96   S    
C16   C134  A    
C125  C160  A    
C86   O3    S    
O56   Zn12  S    
C23   C59   A    
C110  O57   A    
O28   Zn9   S    
C89   O8    D    
C138  N9    S    
C95   C161  S    
H90   O7    S    
H3    N29   S    
C156  C168  A    
C79   O106  A    
C128  C164  A    
C150  N21   S    
C145  C180  A    
O22   Zn11  S    
C135  C170  A    
C91   O10   D    
C81   O105  D    
H35   N13   S    
C62   O69   S    
C155  N26   S    
O2    Zn7   S    
C4    C181  A    
H19   N5    S    
C94   O17   D    
C30   C59   A    
C88   O6    D    
C121  N1    S    
O33   Zn2   S    
C13   C108  T    
C26   C54   A    
C15   C22   A    
C100  C108  S    
C63   O70   D    
H44   N18   S    
H22   N7    S    
C33   C151  A    
C133  C168  A    
H70   O82   S    
O63   Zn11  S    
C47   C109  S    
C113  O56   A    
O46   Zn16  S    
O58   Zn15  S    
C159  C165  A    
H39   N15   S    
H9    N32   S    
C115  O54   A    
C17   C124  A    
O29   Zn7   S    
O52   Zn1   S    
C10   C45   A    
H5    N30   S    
C21   C128  A    
C35   C130  T    
C23   C126  A    
O1    Zn1   S    
C19   C54   A    
O39   Zn7   S    
C127  C162  A    
C77   O100  S    
C75   O94   D    
C76   O97   D    
C31   C154  A    
O32   Zn7   S    
C3    C62   S    
C61   C184  S    
C94   C160  S    
C31   C41   A    
C86   C170  S    
C64   O72   D    
C99   O26   A    
O1    Zn8   S    
O37   Zn6   S    
H30   N10   S    
C52   C114  S    
C114  O42   A    
H41   N16   S    
H51   N21   S    
O60   Zn13  S    
C18   C123  A    
O23   Zn10  S    
H65   O74   S    
C81   O107  S    
C116  O44   A    
C148  C183  A    
H63   O69   S    
C106  O34   A    
C32   C56   A    
C139  N10   S    
C112  O39   A    
C95   O19   D    
C161  C171  A    
O64   Zn1   S    
O73   Zn3   S    
O45   Zn4   S    
H2    N28   S    
C104  O65   A    
C57   C68   S    
C136  N7    S    
H1    N1    S    
H28   N9    S    
C45   C107  S    
C33   C58   A    
C84   O112  D    
C66   O77   D    
C11   C47   A    
C132  C167  A    
H23   N12   S    
C12   C48   A    
C157  C167  A    
O59   Zn12  S    
C107  O59   A    
C77   C179  S    
C128  N31   S    
C118  O46   A    
C71   O86   D    
C76   C178  S    
O95   Zn5   S    
H89   N28   S    
C25   C125  A    
C137  C172  A    
C5    C69   S    
C90   O2    A    
C18   C53   A    
C96   C141  S    
H73   O89   S    
C6    C65   S    
H79   O100  S    
C2    C97   T    
C111  O38   A    
H38   N15   S    
O84   Zn6   S    
C115  O43   A    
C120  O49   A    
C111  O58   A    
C126  C161  A    
C91   O11   S    
O106  Zn8   S    
C73   O90   D    
H85   O113  S    
C67   O80   S    
O51   Zn5   S    
C90   O73   A    
C107  O35   A    
H17   N4    S    
H94   O16   S    
H54   N22   S    
O36   Zn3   S    
H76   O96   S    
H75   O93   S    
C28   C148  A    
C26   C150  A    
H7    N31   S    
H8    N31   S    
O43   Zn6   S    
H12   N1    S    
C79   C163  S    
H96   O20   S    
C89   C156  S    
C137  N8    S    
C84   C172  S    
O51   Zn16  S    
C63   O71   S    
C7    C178  A    
C31   C60   A    
C37   C43   A    
O50   Zn9   S    
C38   C44   A    
H6    N30   S    
C162  C170  A    
C87   O5    S    
H15   N3    S    
C98   C130  S    
C138  C173  A    
C58   C120  S    
C59   C112  S    
C135  N6    S    
C8    C20   A    
C85   O115  S    
C41   C144  A    
H57   N24   S    
C86   O116  D    
C147  C182  A    
C30   C155  A    
H37   N14   S    
C101  O28   A    
C96   O13   A    
H45   N23   S    
H95   O18   S    
C40   C51   A    
C93   O16   S    
C158  C166  A    
C82   C166  S    
C68   C163  T    
C92   C162  S    
C127  N30   S    
C11   C17   A    
C24   C119  T    
C117  O52   A    
C56   C118  S    
C78   O102  S    
H86   O115  S    
O41   Zn8   S    
C145  N16   S    
C29   C147  A    
C21   C56   A    
C44   C106  S    
C133  N4    S    
C129  C165  A    
C112  O55   A    
H27   N9    S    
H21   N6    S    
H29   N10   S    
C14   C136  A    
C114  O53   A    
C29   C34   A    
C39   C146  A    
C122  C157  A    
O35   Zn4   S    
C83   O110  D    
C91   C157  S    
C32   C153  A    
C148  N19   S    
C7    C155  A    
C28   C36   A    
H71   O85   S    
H83   O109  S    
C30   C42   A    
C80   O103  D    
C83   C171  S    
C99   O22   A    
O25   Zn12  S    
C35   C46   S    
C1    C102  S    
C102  O30   A    
O1    Zn12  S    
C175  C184  A    
C92   O12   D    
O49   Zn14  S    
C176  C183  A    
H31   N11   S    
C87   O4    D    
C94   O18   S    
H49   N20   S    
C139  C175  A    
C17   C52   A    
H84   O111  S    
C102  O25   A    
C109  O36   A    
C142  N13   S    
C33   C39   A    
O40   Zn2   S    
H62   O67   S    
C88   C159  S    
C14   C49   A    
C15   C135  A    
C144  N15   S    
H77   O98   S    
C124  C159  A    
C134  N5    S    
C71   O87   S    
C43   C105  S    
C15   C50   A    
C69   O82   S    
C72   O88   D    
H10   N32   S    
C70   O85   S    
O29   Zn3   S    
O31   Zn8   S    
C110  O37   A    
C3    C173  A    
C136  C171  A    
O27   Zn14  S    
H43   N17   S    
H13   N2    S    
C61   O67   S    
O62   Zn4   S    
C27   C149  A    
C63   C182  S    
C77   O99   D    
C60   C113  S    
C82   O108  D    
O44   Zn3   S    
C20   C55   A    
C76   O98   S    
C38   C138  A    
C1    C174  T    
O40   Zn14  S    
C5    C180  A    
O61   Zn10  S    
C9    C132  A    
H81   O104  S    
H74   O91   S    
O47   Zn2   S    
H14   N3    S    
C13   C24   S    
C82   O109  S    
C14   C23   A    
H46   N18   S    
C123  N23   S    
C65   O75   D    
H60   N26   S    
C149  C184  A    
C103  O64   A    
C144  C179  A    
H58   N25   S    
H56   N23   S    
C62   O68   D    
C34   C45   A    
C6    C154  A    
C36   C140  A    
H33   N13   S    
C20   C121  A    
C92   O14   S    
H88   O5    S    
C72   O89   S    
C75   C181  S    
C79   O62   A    
H61   N26   S    
C104  O32   A    
O65   Zn9   S    
C146  N17   S    
C116  O50   A    
C4    C151  A    
C9    C44   A    
O29   Zn9   S    
C109  O60   A    
C8    C133  A    
C66   O78   S    
H42   N17   S    
H87   O3    S    
O40   Zn10  S    
C4    C67   S    
C143  N14   S    
C123  C158  A    
H32   N11   S    
C113  O41   A    
C87   C158  S    
C12   C25   A    
C89   O9    S    
C71   C177  S    
C70   O83   D    
C2    C174  S    
H47   N19   S    
C28   C52   A    
C29   C53   A    
C27   C37   A    
C5    C153  A    
C41   C48   A    
C105  O33   A    
C32   C40   A    
C42   C49   A    
H55   N24   S    
C39   C50   A    
C74   C180  S    
C37   C139  A    
H25   N8    S    
O21   Zn16  S    
C81   C165  S    
C12   C137  A    
C124  N27   S    
C83   O111  S    
C131  N2    S    
C97   C101  S    
H34   N12   S    
