data_mof_unit_12435.cif
_audit_creation_date              2012-12-10T18:45:05-0500
_audit_creation_method            fapswitch 2.2
_symmetry_space_group_name_H-M    P1
_symmetry_Int_Tables_number       1
_space_group_crystal_system       triclinic
_cell_length_a                    10.699852
_cell_length_b                    9.862572
_cell_length_c                    10.825488
_cell_angle_alpha                 90.07826
_cell_angle_beta                  89.995668
_cell_angle_gamma                 90.028109
_cell_volume                      1142.39154885

loop_
_atom_site_label
_atom_site_type_symbol
_atom_type_description
_atom_site_fract_x
_atom_site_fract_y
_atom_site_fract_z
_atom_type_partial_charge
C1    C     C_R   0.259998 0.499914 0.500011 0.857962
C2    C     C_R   0.739990 0.499973 0.500361 0.864339
C3    C     C_R   0.936019 0.617903 0.466675 -0.192223
C4    C     C_R   0.064051 0.617830 0.466438 -0.188777
C5    C     C_R   0.582937 0.071979 0.570962 -0.048747
C6    C     C_R   0.417332 0.071694 0.428670 -0.030855
C7    C     C_R   0.582596 0.928268 0.571402 -0.041487
C8    C     C_R   0.417555 0.927959 0.428403 -0.037089
C9    C     C_R   0.499943 0.500576 0.260008 0.880938
C10   C     C_R   0.496121 0.500260 0.740134 0.888849
C11   C     C_R   0.560123 0.747843 0.112142 -0.309290
C12   C     C_R   0.437118 0.750148 0.886619 -0.308739
C13   C     C_R   0.533893 0.870683 0.054979 0.542317
C14   C     C_R   0.463960 0.871807 0.946285 0.543442
C15   C     C_R   0.476936 0.625698 0.938076 -0.026715
C16   C     C_R   0.514721 0.625166 0.061173 -0.019085
C17   C     C_R   0.496451 0.502781 0.127446 -0.146735
C18   C     C_R   0.487777 0.501295 0.872965 -0.128449
C19   C     C_R   0.464229 0.383805 0.062876 0.110943
C20   C     C_R   0.500344 0.379139 0.940316 0.116586
C21   C     C_R   0.063967 0.382089 0.534744 -0.191774
C22   C     C_R   0.935888 0.382200 0.535103 -0.189843
C23   C     C_R   0.872459 0.500037 0.500808 -0.013307
C24   C     C_R   0.127514 0.499891 0.500334 -0.013078
H1    H     H_    0.615941 0.751184 0.195192 0.212609
H2    H     H_    0.382623 0.755133 0.802734 0.212433
H3    H     H_    0.112911 0.290804 0.562234 0.160000
H4    H     H_    0.886848 0.291021 0.562917 0.153358
H5    H     H_    0.887123 0.709202 0.439131 0.158982
H6    H     H_    0.113022 0.709096 0.438773 0.153313
H7    H     H_    0.649728 0.126330 0.627215 0.127946
H8    H     H_    0.350969 0.125783 0.371800 0.115924
H9    H     H_    0.648627 0.874095 0.628668 0.130469
H10   H     H_    0.351661 0.873520 0.370994 0.124615
N1    N     N_R   0.500000 0.857200 0.500000 -0.093235
N2    N     N_R   0.500000 0.142810 0.500000 -0.085779
O1    O     O_R   0.316770 0.614620 0.499990 -0.630261
O2    O     O_R   0.683230 0.614620 0.500010 -0.630156
O3    O     O_R   0.316800 0.385290 0.500000 -0.634114
O4    O     O_R   0.683200 0.385290 0.500000 -0.622918
O5    O     O_R   0.500010 0.614690 0.316770 -0.626662
O6    O     O_R   0.499990 0.614690 0.683230 -0.626372
O7    O     O_R   0.500040 0.385360 0.316770 -0.618239
O8    O     O_R   0.499960 0.385360 0.683230 -0.623740
Zn1   Zn    Zn3+2 0.500000 0.653120 0.500000 0.948346
Zn2   Zn    Zn3+2 0.500000 0.346880 0.500000 0.954587
C25   C     C_3   0.377605 0.274296 0.114179 -0.381052
C26   C     C_3   0.268228 0.244251 0.027197 -0.824445
H11   H     H_    0.212808 0.337877 0.011390 0.246242
H12   H     H_    0.301370 0.205149 0.936941 0.305929
H13   H     H_    0.206481 0.166509 0.069381 0.254632
H14   H     H_    0.430349 0.180152 0.132874 0.277353
H15   H     H_    0.332839 0.306993 0.201557 0.212566
C27   C     C_3   0.565133 0.251644 0.893896 -0.299802
C28   C     C_3   0.702316 0.278335 0.862090 -0.883126
H16   H     H_    0.711993 0.349779 0.783700 0.258579
H17   H     H_    0.751690 0.321160 0.943592 0.265671
H18   H     H_    0.748279 0.181453 0.836189 0.249031
H19   H     H_    0.566578 0.174403 0.967477 0.292958
H20   H     H_    0.514742 0.204141 0.815831 0.264200
F1    F     F_    0.572248 0.987325 0.108883 -0.702372
F2    F     F_    0.424537 0.989512 0.896040 -0.716654

loop_
_geom_bond_atom_site_label_1
_geom_bond_atom_site_label_2
_ccdc_geom_bond_type
C15   C18   A    
C6    H8    S    
C28   H16   S    
C6    N2    A    
N2    Zn2   S    
C25   H14   S    
C13   C14   A    
C10   O6    A    
C11   C13   A    
C11   C16   A    
C2    O2    A    
C9    O5    A    
C19   C20   A    
C12   C15   A    
C1    O1    A    
C25   H15   S    
C26   H12   S    
C21   H3    S    
C27   H20   S    
C21   C22   A    
O4    Zn2   S    
C7    H9    S    
C3    H5    S    
C26   H13   S    
C10   C18   S    
O3    Zn2   S    
C6    C8    A    
C10   O8    A    
C9    C17   S    
C26   H11   S    
C17   C19   A    
C12   C14   A    
O5    Zn1   S    
C18   C20   A    
C27   H19   S    
C28   H17   S    
C4    C24   A    
O7    Zn2   S    
C19   C25   S    
C21   C24   A    
C9    O7    A    
C15   C16   A    
C1    O3    A    
O1    Zn1   S    
C3    C4    A    
C14   F2    S    
C5    N2    A    
C2    O4    A    
C13   F1    S    
C1    C24   S    
C20   C27   S    
C28   H18   S    
C2    C23   S    
C5    C7    A    
C11   H1    S    
C27   C28   S    
O2    Zn1   S    
C22   H4    S    
O8    Zn2   S    
C3    C23   A    
C8    H10   S    
C7    N1    A    
C8    N1    A    
C22   C23   A    
C4    H6    S    
C25   C26   S    
C12   H2    S    
C16   C17   A    
C5    H7    S    
O6    Zn1   S    
N1    Zn1   S    
