data_mof_unit_63164.cif
_audit_creation_date              2012-12-10T18:07:26-0500
_audit_creation_method            fapswitch 2.2
_symmetry_space_group_name_H-M    P1
_symmetry_Int_Tables_number       1
_space_group_crystal_system       triclinic
_cell_length_a                    18.344434
_cell_length_b                    18.344486
_cell_length_c                    42.967678
_cell_angle_alpha                 89.999985
_cell_angle_beta                  89.999985
_cell_angle_gamma                 89.99415
_cell_volume                      14459.4490963

loop_
_atom_site_label
_atom_site_type_symbol
_atom_type_description
_atom_site_fract_x
_atom_site_fract_y
_atom_site_fract_z
_atom_type_partial_charge
C1    C     C_R   0.453147 0.047067 0.114949 0.008247
C2    C     C_R   0.056567 0.534985 0.385533 0.011788
C3    C     C_R   0.309516 0.743930 0.729826 -0.130605
C4    C     C_R   0.255563 0.308994 0.270460 -0.131379
C5    C     C_R   0.744459 0.691011 0.729531 -0.130754
C6    C     C_R   0.309520 0.743910 0.270166 -0.131227
C7    C     C_R   0.690484 0.256070 0.729826 -0.130605
C8    C     C_R   0.196250 0.696328 0.250030 0.040022
C9    C     C_R   0.803734 0.303679 0.749978 0.039913
C10   C     C_R   0.303755 0.196331 0.249971 0.040072
C11   C     C_R   0.696238 0.803653 0.750036 0.039970
C12   C     C_R   0.803750 0.303672 0.250030 0.040022
C13   C     C_R   0.464912 0.943488 0.614471 0.011776
C14   C     C_R   0.196266 0.696321 0.749978 0.039914
C15   C     C_R   0.696245 0.803669 0.249971 0.040072
C16   C     C_R   0.303762 0.196347 0.750036 0.039970
C17   C     C_R   0.196330 0.303755 0.750029 0.040070
C18   C     C_R   0.803653 0.696238 0.249964 0.039968
C19   C     C_R   0.303672 0.803750 0.749970 0.040023
C20   C     C_R   0.696321 0.196266 0.250022 0.039915
C21   C     C_R   0.803669 0.696245 0.750029 0.040070
C22   C     C_R   0.196347 0.303762 0.249964 0.039969
C23   C     C_R   0.696328 0.196250 0.749970 0.040023
C24   C     C_R   0.464647 0.056350 0.385518 0.011749
C25   C     C_R   0.303679 0.803734 0.250022 0.039914
C26   C     C_R   0.500000 0.000000 0.065952 -0.003513
C27   C     C_R   0.500000 1.000000 0.934050 -0.003503
C28   C     C_R   0.000000 0.500000 0.065949 -0.003522
C29   C     C_R   0.000000 0.500000 0.934051 -0.003515
C30   C     C_R   0.000000 0.500000 0.565663 -0.001571
C31   C     C_R   1.000000 0.500000 0.434353 -0.001599
C32   C     C_R   0.500000 1.000000 0.565650 -0.001571
C33   C     C_R   0.500000 1.000000 0.434339 -0.001575
C34   C     C_R   0.056331 0.464612 0.614485 0.011742
C35   C     C_R   0.943433 0.465015 0.385533 0.011788
C36   C     C_R   0.535088 0.056512 0.614471 0.011776
C37   C     C_R   0.535353 0.943649 0.385518 0.011749
C38   C     C_R   0.453459 0.046743 0.082478 -0.115002
C39   C     C_R   0.546601 0.953308 0.917524 -0.115005
C40   C     C_R   0.046568 0.453289 0.082474 -0.115017
C41   C     C_R   0.546913 0.952984 0.885053 0.008260
C42   C     C_R   0.953457 0.546741 0.917527 -0.115017
C43   C     C_R   0.546541 0.953257 0.082478 -0.115002
C44   C     C_R   0.453398 0.046691 0.917524 -0.115005
C45   C     C_R   0.953432 0.546711 0.082474 -0.115017
C46   C     C_R   0.046543 0.453258 0.917527 -0.115017
C47   C     C_R   0.943692 0.534212 0.582025 -0.114933
C48   C     C_R   0.056537 0.533796 0.417993 -0.114985
C49   C     C_R   0.466100 0.943514 0.582010 -0.114969
C50   C     C_R   0.465825 0.056327 0.417978 -0.114935
C51   C     C_R   0.056308 0.465788 0.582025 -0.114933
C52   C     C_R   0.046904 0.452986 0.114945 0.008287
C53   C     C_R   0.943463 0.466204 0.417993 -0.114985
C54   C     C_R   0.533900 0.056486 0.582010 -0.114969
C55   C     C_R   0.534175 0.943672 0.417978 -0.114935
C56   C     C_R   0.500000 1.000000 0.131538 0.039504
C57   C     C_R   0.500000 1.000000 0.868463 0.039465
C58   C     C_R   0.000000 0.500000 0.131536 0.039423
C59   C     C_R   0.000000 0.500000 0.868465 0.039408
C60   C     C_R   0.000000 0.500000 0.631250 0.033445
C61   C     C_R   1.000000 0.500000 0.368761 0.033213
C62   C     C_R   0.500000 0.000000 0.631241 0.033244
C63   C     C_R   0.953119 0.547043 0.885056 0.008296
C64   C     C_R   0.500000 1.000000 0.368751 0.033428
C65   C     C_R   0.000000 0.500000 0.468503 0.344537
C66   C     C_R   0.000000 0.500000 0.531513 0.344551
C67   C     C_R   0.500000 1.000000 0.468490 0.344546
C68   C     C_R   0.500000 1.000000 0.531500 0.344530
C69   C     C_R   0.500000 1.000000 0.968408 0.350698
C70   C     C_R   0.500000 1.000000 0.031594 0.350696
C71   C     C_R   0.000000 0.500000 0.968407 0.350641
C72   C     C_R   0.000000 0.500000 0.031592 0.350639
C73   C     C_R   0.500000 0.000000 0.334346 0.513818
C74   C     C_R   0.546854 0.952933 0.114949 0.008247
C75   C     C_R   0.500000 1.000000 0.665651 0.513731
C76   C     C_R   0.000000 0.500000 0.334350 0.513714
C77   C     C_R   1.000000 0.500000 0.665654 0.513829
C78   C     C_R   1.000000 0.500000 0.834241 0.516865
C79   C     C_R   0.000000 0.500000 0.165760 0.516873
C80   C     C_R   0.500000 1.000000 0.834240 0.516899
C81   C     C_R   0.500000 1.000000 0.165760 0.516917
C82   C     C_R   0.359831 0.140189 0.249993 0.509126
C83   C     C_R   0.640163 0.859801 0.750012 0.508594
C84   C     C_R   0.859833 0.359806 0.250010 0.508335
C85   C     C_R   0.453086 0.047015 0.885053 0.008260
C86   C     C_R   0.140177 0.640188 0.749995 0.507815
C87   C     C_R   0.640169 0.859810 0.249993 0.509126
C88   C     C_R   0.359837 0.140199 0.750012 0.508594
C89   C     C_R   0.140167 0.640194 0.250010 0.508335
C90   C     C_R   0.859823 0.359812 0.749995 0.507814
C91   C     C_R   0.359806 0.859833 0.749990 0.508339
C92   C     C_R   0.640188 0.140177 0.250005 0.507817
C93   C     C_R   0.859810 0.640169 0.750007 0.509121
C94   C     C_R   0.140199 0.359837 0.249988 0.508590
C95   C     C_R   0.640194 0.140167 0.749990 0.508340
C96   C     C_R   0.953096 0.547014 0.114945 0.008287
C97   C     C_R   0.359812 0.859823 0.250005 0.507817
C98   C     C_R   0.140189 0.359831 0.750007 0.509121
C99   C     C_R   0.859801 0.640163 0.249988 0.508590
C100  C     C_R   0.243826 0.809604 0.229898 -0.131496
C101  C     C_R   0.756174 0.190387 0.770099 -0.131573
C102  C     C_R   0.191142 0.244579 0.229449 -0.130282
C103  C     C_R   0.808865 0.755420 0.770549 -0.130362
C104  C     C_R   0.756174 0.190396 0.229898 -0.131496
C105  C     C_R   0.243826 0.809613 0.770099 -0.131573
C106  C     C_R   0.808858 0.755421 0.229449 -0.130282
C107  C     C_R   0.046881 0.452957 0.885056 0.008296
C108  C     C_R   0.191135 0.244581 0.770549 -0.130362
C109  C     C_R   0.244580 0.191143 0.770552 -0.130281
C110  C     C_R   0.755421 0.808866 0.229452 -0.130360
C111  C     C_R   0.190395 0.756174 0.770102 -0.131496
C112  C     C_R   0.809613 0.243827 0.229901 -0.131572
C113  C     C_R   0.755420 0.808857 0.770552 -0.130281
C114  C     C_R   0.244579 0.191133 0.229452 -0.130360
C115  C     C_R   0.809605 0.243826 0.770102 -0.131496
C116  C     C_R   0.190387 0.756173 0.229901 -0.131573
C117  C     C_R   0.743910 0.309520 0.729834 -0.131227
C118  C     C_R   0.943669 0.535388 0.614485 0.011742
C119  C     C_R   0.256070 0.690484 0.270174 -0.130609
C120  C     C_R   0.691007 0.744438 0.729539 -0.131378
C121  C     C_R   0.308990 0.255543 0.270468 -0.130755
C122  C     C_R   0.256090 0.690480 0.729834 -0.131227
C123  C     C_R   0.743930 0.309515 0.270174 -0.130609
C124  C     C_R   0.308993 0.255562 0.729539 -0.131378
C125  C     C_R   0.691010 0.744457 0.270468 -0.130754
C126  C     C_R   0.744437 0.691006 0.270460 -0.131378
C127  C     C_R   0.255541 0.308989 0.729531 -0.130755
C128  C     C_R   0.690480 0.256090 0.270166 -0.131227
Cl1   Cl    Cl    0.395362 0.109893 0.133838 -0.061086
Cl2   Cl    Cl    0.127087 0.584486 0.367294 -0.056108
Cl3   Cl    Cl    0.415280 0.873053 0.632715 -0.056149
Cl4   Cl    Cl    0.414699 0.126549 0.367258 -0.056505
Cl5   Cl    Cl    0.126500 0.414625 0.632746 -0.056517
Cl6   Cl    Cl    0.872912 0.415513 0.367294 -0.056108
Cl7   Cl    Cl    0.584720 0.126947 0.632715 -0.056149
Cl8   Cl    Cl    0.585301 0.873451 0.367258 -0.056505
Cl9   Cl    Cl    0.604778 0.890219 0.866166 -0.061048
Cl10  Cl    Cl    0.109558 0.395006 0.133826 -0.060990
Cl11  Cl    Cl    0.890490 0.605059 0.866176 -0.060991
Cl12  Cl    Cl    0.604638 0.890107 0.133838 -0.061086
Cl13  Cl    Cl    0.395221 0.109781 0.866166 -0.061048
Cl14  Cl    Cl    0.890442 0.604994 0.133826 -0.060991
Cl15  Cl    Cl    0.109510 0.394941 0.866176 -0.060991
Cl16  Cl    Cl    0.873500 0.585375 0.632746 -0.056517
H1    H     H_    0.238235 0.855366 0.214148 0.143317
H2    H     H_    0.760474 0.854102 0.213394 0.144611
H3    H     H_    0.144633 0.761765 0.785852 0.143319
H4    H     H_    0.855376 0.238235 0.214151 0.143307
H5    H     H_    0.760471 0.854090 0.786610 0.144623
H6    H     H_    0.239526 0.145898 0.213394 0.144611
H7    H     H_    0.855367 0.238235 0.785852 0.143320
H8    H     H_    0.144624 0.761765 0.214151 0.143307
H9    H     H_    0.738320 0.355283 0.714085 0.143726
H10   H     H_    0.261641 0.644735 0.285933 0.144643
H11   H     H_    0.645759 0.739368 0.713490 0.143769
H12   H     H_    0.761766 0.144623 0.785848 0.143305
H13   H     H_    0.354225 0.260595 0.286526 0.144730
H14   H     H_    0.261680 0.644717 0.714085 0.143726
H15   H     H_    0.738359 0.355265 0.285933 0.144643
H16   H     H_    0.354241 0.260632 0.713490 0.143769
H17   H     H_    0.645775 0.739405 0.286527 0.144730
H18   H     H_    0.739365 0.645757 0.286509 0.143769
H19   H     H_    0.260593 0.354222 0.713472 0.144730
H20   H     H_    0.644718 0.261679 0.285916 0.143727
H21   H     H_    0.355266 0.738359 0.714067 0.144644
H22   H     H_    0.260635 0.354243 0.286509 0.143769
H23   H     H_    0.145907 0.239527 0.213391 0.144625
H24   H     H_    0.739407 0.645778 0.713472 0.144730
H25   H     H_    0.355282 0.738321 0.285916 0.143727
H26   H     H_    0.644734 0.261641 0.714067 0.144644
H27   H     H_    0.417368 0.083609 0.070220 0.151053
H28   H     H_    0.582741 0.916484 0.929782 0.151046
H29   H     H_    0.083318 0.417085 0.070216 0.151049
H30   H     H_    0.916729 0.582970 0.929786 0.151048
H31   H     H_    0.582632 0.916391 0.070220 0.151052
H32   H     H_    0.417258 0.083515 0.929782 0.151046
H33   H     H_    0.916683 0.582916 0.070216 0.151048
H34   H     H_    0.854100 0.760471 0.786607 0.144615
H35   H     H_    0.083271 0.417030 0.929786 0.151048
H36   H     H_    0.900403 0.561747 0.569521 0.146607
H37   H     H_    0.100014 0.561007 0.430499 0.146588
H38   H     H_    0.438806 0.900081 0.569505 0.146566
H39   H     H_    0.438317 0.099632 0.430481 0.146604
H40   H     H_    0.099597 0.438253 0.569521 0.146607
H41   H     H_    0.899986 0.438993 0.430499 0.146588
H42   H     H_    0.561193 0.099918 0.569504 0.146567
H43   H     H_    0.561683 0.900367 0.430481 0.146604
H44   H     H_    0.761765 0.144634 0.214148 0.143317
H45   H     H_    0.238234 0.855376 0.785848 0.143305
H46   H     H_    0.854093 0.760472 0.213391 0.144626
H47   H     H_    0.145900 0.239529 0.786607 0.144615
H48   H     H_    0.239529 0.145910 0.786610 0.144623
N1    N     N_R   0.545258 0.955244 0.015480 -0.223533
N2    N     N_R   0.936264 0.500090 0.484529 -0.220152
N3    N     N_R   0.499961 0.063734 0.515474 -0.220139
N4    N     N_R   0.500432 0.936267 0.484517 -0.220174
N5    N     N_R   0.936266 0.500484 0.515486 -0.220173
N6    N     N_R   0.063736 0.499910 0.484529 -0.220152
N7    N     N_R   0.500039 0.936266 0.515474 -0.220139
N8    N     N_R   0.499567 0.063732 0.484517 -0.220174
N9    N     N_R   0.454742 0.044755 0.984523 -0.223534
N10   N     N_R   0.956067 0.546079 0.015478 -0.223519
N11   N     N_R   0.043933 0.453920 0.984521 -0.223523
N12   N     N_R   0.454742 0.044756 0.015480 -0.223534
N13   N     N_R   0.545258 0.955244 0.984523 -0.223534
N14   N     N_R   0.043933 0.453921 0.015478 -0.223520
N15   N     N_R   0.956067 0.546080 0.984521 -0.223524
N16   N     N_R   0.063734 0.499517 0.515486 -0.220173
O1    O     O_3   0.500000 1.000000 0.250000 -0.444386
O2    O     O_R   0.500000 0.939250 0.680570 -0.530815
O3    O     O_R   0.939250 0.500000 0.319430 -0.530810
O4    O     O_R   0.060750 0.500000 0.680570 -0.530814
O5    O     O_R   0.000000 0.439250 0.819430 -0.531486
O6    O     O_R   1.000000 0.560750 0.180570 -0.531486
O7    O     O_R   0.560750 1.000000 0.819430 -0.531493
O8    O     O_R   0.439250 1.000000 0.180570 -0.531497
O9    O     O_R   0.000000 0.560750 0.819430 -0.531486
O10   O     O_R   1.000000 0.439250 0.180570 -0.531486
O11   O     O_R   0.439250 1.000000 0.819430 -0.531493
O12   O     O_3   0.500000 1.000000 0.750000 -0.444377
O13   O     O_R   0.560750 1.000000 0.180570 -0.531497
O14   O     O_R   0.414500 0.146140 0.268270 -0.545801
O15   O     O_R   0.585500 0.853860 0.731730 -0.547271
O16   O     O_R   0.853860 0.414500 0.268270 -0.545567
O17   O     O_R   0.146140 0.585500 0.731730 -0.547033
O18   O     O_R   0.585500 0.853860 0.268270 -0.545800
O19   O     O_R   0.414500 0.146140 0.731730 -0.547271
O20   O     O_R   0.146140 0.585500 0.268270 -0.545567
O21   O     O_R   0.853860 0.414500 0.731730 -0.547033
O22   O     O_R   0.414500 0.853860 0.731730 -0.545565
O23   O     O_3   1.000000 0.500000 0.250000 -0.444376
O24   O     O_R   0.585500 0.146140 0.268270 -0.547031
O25   O     O_R   0.853860 0.585500 0.731730 -0.545801
O26   O     O_R   0.146140 0.414500 0.268270 -0.547270
O27   O     O_R   0.585500 0.146140 0.731730 -0.545565
O28   O     O_R   0.414500 0.853860 0.268270 -0.547032
O29   O     O_R   0.146140 0.414500 0.731730 -0.545801
O30   O     O_R   0.853860 0.585500 0.268270 -0.547270
O31   O     O_R   0.914500 0.646140 0.768270 -0.545821
O32   O     O_R   0.085500 0.353860 0.231730 -0.545654
O33   O     O_R   0.353860 0.914500 0.768270 -0.547567
O34   O     O_3   1.000000 0.500000 0.750000 -0.444386
O35   O     O_R   0.646140 0.085500 0.231730 -0.547399
O36   O     O_R   0.085500 0.353860 0.768270 -0.545821
O37   O     O_R   0.914500 0.646140 0.231730 -0.545654
O38   O     O_R   0.646140 0.085500 0.768270 -0.547567
O39   O     O_R   0.353860 0.914500 0.231730 -0.547398
O40   O     O_R   0.914500 0.353860 0.231730 -0.547565
O41   O     O_R   0.085500 0.646140 0.768270 -0.547395
O42   O     O_R   0.353860 0.085500 0.231730 -0.545823
O43   O     O_R   0.646140 0.914500 0.768270 -0.545654
O44   O     O_R   0.085500 0.646140 0.231730 -0.547565
O45   O     O_R   0.500000 0.939250 0.319430 -0.530811
O46   O     O_R   0.914500 0.353860 0.768270 -0.547395
O47   O     O_R   0.646140 0.914500 0.231730 -0.545823
O48   O     O_R   0.353860 0.085500 0.768270 -0.545655
O49   O     O_R   0.500000 0.060750 0.680570 -0.530815
O50   O     O_R   0.060750 0.500000 0.319430 -0.530810
O51   O     O_R   0.939250 0.500000 0.680570 -0.530813
O52   O     O_R   0.500000 0.060750 0.319430 -0.530811
Zn1   Zn    Zn3+2 0.413200 1.000000 0.224130 0.948865
Zn2   Zn    Zn3+2 0.086800 0.500000 0.275870 0.948769
Zn3   Zn    Zn3+2 0.500000 0.913200 0.724130 0.948774
Zn4   Zn    Zn3+2 0.500000 0.086800 0.275870 0.948797
Zn5   Zn    Zn3+2 0.086800 0.500000 0.724130 0.948794
Zn6   Zn    Zn3+2 0.913200 0.500000 0.275870 0.948770
Zn7   Zn    Zn3+2 0.500000 0.086800 0.724130 0.948774
Zn8   Zn    Zn3+2 0.500000 0.913200 0.275870 0.948797
Zn9   Zn    Zn3+2 0.586800 1.000000 0.775870 0.948860
Zn10  Zn    Zn3+2 1.000000 0.413200 0.224130 0.948857
Zn11  Zn    Zn3+2 1.000000 0.586800 0.775870 0.948859
Zn12  Zn    Zn3+2 0.586800 1.000000 0.224130 0.948865
Zn13  Zn    Zn3+2 0.413200 1.000000 0.775870 0.948860
Zn14  Zn    Zn3+2 1.000000 0.586800 0.224130 0.948857
Zn15  Zn    Zn3+2 1.000000 0.413200 0.775870 0.948859
Zn16  Zn    Zn3+2 0.913200 0.500000 0.724130 0.948794

loop_
_geom_bond_atom_site_label_1
_geom_bond_atom_site_label_2
_ccdc_geom_bond_type
C33   C55   A    
O1    Zn8   S    
C77   O51   A    
C30   C51   A    
C75   O2    A    
C69   N9    A    
C102  H23   S    
C14   C122  A    
C89   O44   A    
C29   C42   A    
C35   C53   A    
C9    C117  A    
C7    C117  A    
C50   H39   S    
C100  C116  A    
C128  H20   S    
O48   Zn13  S    
O52   Zn4   S    
O38   Zn9   S    
O43   Zn9   S    
C80   O11   A    
O15   Zn3   S    
C73   O52   A    
C38   H27   S    
C88   O48   A    
C98   O29   A    
O50   Zn2   S    
C71   N11   A    
C20   C92   S    
C3    H21   S    
C34   C51   A    
O10   Zn10  S    
O12   Zn7   S    
C21   C93   S    
C68   N7    A    
C72   N10   A    
C103  C113  A    
C1    C56   A    
O8    Zn1   S    
C20   C128  A    
C1    Cl1   S    
C95   O38   A    
O16   Zn6   S    
C48   H37   S    
C92   O35   A    
C7    C23   A    
O34   Zn5   S    
C6    C25   A    
C35   Cl6   S    
C28   C40   A    
C109  H48   S    
O32   Zn10  S    
O23   Zn10  S    
O6    Zn14  S    
O11   Zn13  S    
C4    C22   A    
C108  C109  A    
C59   C78   S    
O29   Zn5   S    
C5    H24   S    
O33   Zn13  S    
C53   H41   S    
O35   Zn12  S    
C58   C96   A    
C77   O4    A    
C2    Cl2   S    
C99   O30   A    
C43   H31   S    
C27   C44   A    
C79   O6    A    
C1    C38   A    
C13   C62   A    
O5    Zn15  S    
C27   C39   A    
O49   Zn7   S    
C26   C43   A    
O36   Zn15  S    
C52   Cl10  S    
C64   C73   S    
C90   O21   A    
C60   C118  A    
O28   Zn8   S    
C55   H43   S    
C99   O37   A    
C17   C98   S    
C98   O36   A    
C27   C69   S    
C3    C122  A    
C45   H33   S    
C32   C68   S    
C83   O15   A    
C69   N13   A    
C10   C121  A    
C43   C74   A    
C71   N15   A    
C105  C111  A    
O45   Zn8   S    
C36   C54   A    
C121  H13   S    
C66   N5    A    
C34   C60   A    
C22   C94   S    
C15   C110  A    
C28   C72   S    
C95   O27   A    
N4    N7    A    
C36   C62   A    
C11   C120  A    
C78   O5    A    
O17   Zn5   S    
C96   Cl14  S    
O20   Zn2   S    
C16   C109  A    
C80   O7    A    
O47   Zn12  S    
C47   C118  A    
C61   C76   S    
O27   Zn7   S    
C14   C111  A    
C104  H44   S    
N11   N14   A    
C125  H17   S    
C60   C77   S    
C59   C63   A    
C49   H38   S    
C56   C74   A    
C20   C104  A    
C91   O22   A    
N6    N16   A    
C9    C115  A    
C105  H45   S    
C30   C47   A    
C56   C81   S    
N1    N13   A    
C14   C86   S    
C86   O41   A    
C39   C41   A    
C67   N8    A    
C42   H30   S    
C17   C108  A    
C85   Cl13  S    
C104  C112  A    
C28   C45   A    
C75   O49   A    
C17   C127  A    
C79   O10   A    
C72   N14   A    
N2    N5    A    
C5    C120  A    
C101  H12   S    
C2    C48   A    
C33   C50   A    
O9    Zn11  S    
O25   Zn16  S    
C76   O50   A    
C10   C82   S    
O3    Zn6   S    
C31   C53   A    
C112  H4    S    
O23   Zn14  S    
O37   Zn14  S    
C21   C103  A    
C18   C106  A    
O42   Zn1   S    
C97   O39   A    
C39   H28   S    
C102  C114  A    
O21   Zn16  S    
C111  H3    S    
C13   Cl3   S    
C114  H6    S    
C66   N16   A    
C24   Cl4   S    
C25   C100  A    
C110  H2    S    
O30   Zn6   S    
C100  H1    S    
C87   O18   A    
C46   C107  A    
C122  H14   S    
C37   Cl8   S    
C5    C21   A    
O51   Zn16  S    
C35   C61   A    
O39   Zn1   S    
O7    Zn9   S    
C3    C19   A    
O12   Zn9   S    
C24   C50   A    
C94   O26   A    
C30   C66   S    
O13   Zn12  S    
C52   C58   A    
O41   Zn11  S    
C32   C54   A    
C124  C127  A    
C73   O45   A    
C58   C79   S    
C76   O3    A    
C25   C97   S    
O23   Zn2   S    
C57   C80   S    
O4    Zn5   S    
C51   H40   S    
C119  H10   S    
C31   C48   A    
C84   O16   A    
C125  C126  A    
C101  C115  A    
N9    N12   A    
C13   C49   A    
C62   C75   S    
O23   Zn6   S    
O12   Zn3   S    
C18   C99   S    
C106  H46   S    
C89   O20   A    
C107  Cl15  S    
C44   C85   A    
C36   Cl7   S    
C19   C105  A    
C6    C119  A    
C12   C112  A    
C37   C64   A    
C33   C67   S    
O1    Zn4   S    
C15   C87   S    
N3    N8    A    
C106  C110  A    
C94   O32   A    
O2    Zn3   S    
C31   C65   S    
O22   Zn3   S    
C127  H19   S    
O24   Zn4   S    
C113  H5    S    
C83   O43   A    
O12   Zn13  S    
C63   Cl11  S    
C46   H35   S    
C82   O42   A    
C26   C38   A    
C44   H32   S    
C93   O25   A    
C10   C114  A    
C9    C90   S    
O34   Zn15  S    
O14   Zn4   S    
O46   Zn15  S    
C2    C61   A    
C37   C55   A    
O1    Zn1   S    
C82   O14   A    
C47   H36   S    
C81   O13   A    
C118  Cl16  S    
C34   Cl5   S    
O31   Zn11  S    
C29   C46   A    
N10   N15   A    
C116  H8    S    
C11   C83   S    
O34   Zn11  S    
C103  H34   S    
C16   C124  A    
C41   C57   A    
C78   O9    A    
C40   C52   A    
C12   C123  A    
C18   C126  A    
C117  H9    S    
C81   O8    A    
C97   O28   A    
O19   Zn7   S    
C123  C128  A    
C40   H29   S    
C22   C102  A    
C74   Cl12  S    
C93   O31   A    
C70   N1    A    
C26   C70   S    
O44   Zn14  S    
C124  H16   S    
C87   O47   A    
O1    Zn12  S    
C108  H47   S    
C23   C95   S    
C4    C121  A    
C4    H22   S    
C68   N3    A    
C120  H11   S    
C90   O46   A    
C11   C113  A    
C59   C107  A    
C32   C49   A    
C123  H15   S    
C65   N2    A    
C19   C91   S    
C84   O40   A    
C8    C116  A    
C23   C101  A    
O34   Zn16  S    
C65   N6    A    
C88   O19   A    
C12   C84   S    
C70   N12   A    
O26   Zn2   S    
O40   Zn10  S    
C41   Cl9   S    
C24   C64   A    
C54   H42   S    
C7    H26   S    
C115  H7    S    
C16   C88   S    
C86   O17   A    
C92   O24   A    
C8    C89   S    
C126  H18   S    
C45   C96   A    
C15   C125  A    
C42   C63   A    
C57   C85   A    
C91   O33   A    
C67   N4    A    
C8    C119  A    
O18   Zn8   S    
C29   C71   S    
C6    H25   S    
