data_mof_unit_21987.cif
_audit_creation_date              2012-12-11T15:47:07-0500
_audit_creation_method            fapswitch 2.2
_symmetry_space_group_name_H-M    P1
_symmetry_Int_Tables_number       1
_space_group_crystal_system       triclinic
_cell_length_a                    20.147851
_cell_length_b                    7.274244
_cell_length_c                    13.743045
_cell_angle_alpha                 90.000227
_cell_angle_beta                  103.230075
_cell_angle_gamma                 89.999975
_cell_volume                      1960.72725636

loop_
_atom_site_label
_atom_site_type_symbol
_atom_type_description
_atom_site_fract_x
_atom_site_fract_y
_atom_site_fract_z
_atom_type_partial_charge
O1    O     O_R   0.449560 0.506810 0.599700 -0.537045
O2    O     O_R   0.550440 0.006810 0.400300 -0.537045
O3    O     O_R   0.587960 0.180060 0.595760 -0.546124
O4    O     O_R   0.412040 0.680060 0.404240 -0.546123
C1    C     C_R   0.615245 0.343981 0.616135 0.681388
C2    C     C_R   0.384755 0.843981 0.383864 0.681388
O5    O     O_R   0.452380 0.177430 0.611700 -0.539739
O6    O     O_R   0.547620 0.677430 0.388300 -0.539739
O7    O     O_R   0.413900 0.001890 0.416350 -0.541669
O8    O     O_R   0.586100 0.501890 0.583650 -0.541670
C3    C     C_R   0.436541 0.345703 0.636860 0.685344
C4    C     C_R   0.563459 0.845703 0.363140 0.685342
O9    O     O_3   0.487530 0.337490 0.435890 -0.380834
O10   O     O_3   0.512470 0.837490 0.564110 -0.380835
V1    V     V_3+5 0.502310 0.064660 0.511890 1.410612
V2    V     V_3+5 0.497690 0.564660 0.488110 1.410613
C5    C     C_R   0.605123 0.872527 0.112518 -0.153203
C6    C     C_R   0.394877 0.372548 0.887482 -0.153204
H1    H     H_    0.512770 0.867072 0.164742 0.105778
H2    H     H_    0.487231 0.367093 0.835257 0.105779
H3    H     H_    0.683940 0.886448 0.986074 0.125679
H4    H     H_    0.316061 0.386481 0.013926 0.125678
H5    H     H_    0.577831 0.880949 0.034905 0.115584
H6    H     H_    0.422169 0.380980 0.965094 0.115584
C7    C     C_R   0.602027 0.854104 0.286024 -0.019606
C8    C     C_R   0.397974 0.354107 0.713977 -0.019606
C9    C     C_R   0.929671 0.848748 0.311853 -0.168268
C10   C     C_R   0.070330 0.348731 0.688148 -0.168267
C11   C     C_R   0.894570 0.840495 0.387336 -0.117661
C12   C     C_R   0.105431 0.340469 0.612665 -0.117661
C13   C     C_R   0.823752 0.843514 0.364704 -0.148877
C14   C     C_R   0.176249 0.343493 0.635297 -0.148876
C15   C     C_R   0.785440 0.855100 0.264557 0.072455
C16   C     C_R   0.214560 0.355095 0.735444 0.072455
C17   C     C_R   0.821458 0.863637 0.185985 0.023799
C18   C     C_R   0.178542 0.363641 0.814016 0.023798
C19   C     C_R   0.712453 0.858355 0.240389 0.071080
C20   C     C_R   0.287547 0.358356 0.759612 0.071080
C21   C     C_R   0.676682 0.869491 0.138812 0.129920
C22   C     C_R   0.323318 0.369505 0.861189 0.129920
C23   C     C_R   0.712054 0.877731 0.063502 -0.237017
C24   C     C_R   0.287946 0.377754 0.936498 -0.237017
C25   C     C_R   0.782814 0.875282 0.085318 -0.078718
C26   C     C_R   0.217187 0.375300 0.914683 -0.078717
C27   C     C_R   0.673221 0.850961 0.313469 -0.210541
C28   C     C_R   0.326779 0.350958 0.686532 -0.210542
C29   C     C_R   0.567982 0.864733 0.185900 -0.174230
C30   C     C_R   0.432018 0.364747 0.814100 -0.174229
C31   C     C_R   0.894557 0.860163 0.211900 -0.076620
C32   C     C_R   0.105443 0.360160 0.788101 -0.076619
H7    H     H_    0.695862 0.842677 0.392314 0.091773
H8    H     H_    0.304138 0.342669 0.607687 0.091774
H9    H     H_    0.984936 0.846136 0.331581 0.098760
H10   H     H_    0.015065 0.346113 0.668420 0.098760
H11   H     H_    0.800799 0.836388 0.427984 0.105238
H12   H     H_    0.199201 0.336355 0.572016 0.105237
H13   H     H_    0.922573 0.831589 0.464480 0.118324
H14   H     H_    0.077428 0.331550 0.535521 0.118324
C33   C     C_R   0.220702 0.020332 0.215573 -0.159013
C34   C     C_R   0.779308 0.520344 0.784399 -0.159000
H15   H     H_    0.200607 0.151228 0.187339 0.158932
H16   H     H_    0.799410 0.651251 0.812611 0.158923
C35   C     C_R   0.286158 0.016094 0.277678 -0.167068
C36   C     C_R   0.713850 0.516106 0.722297 -0.167066
H17   H     H_    0.314328 0.143646 0.293249 0.123717
H18   H     H_    0.685686 0.643666 0.706711 0.123710
C37   C     C_R   0.314864 0.849565 0.318348 -0.037116
C38   C     C_R   0.685137 0.349566 0.681650 -0.037111
C39   C     C_R   0.275138 0.688618 0.298108 -0.157725
C40   C     C_R   0.724857 0.188609 0.701905 -0.157728
H19   H     H_    0.294507 0.558357 0.330922 0.117971
H20   H     H_    0.705484 0.058340 0.669104 0.117970
C41   C     C_R   0.209264 0.693952 0.236510 -0.139133
C42   C     C_R   0.790731 0.193943 0.763502 -0.139152
H21   H     H_    0.179407 0.569327 0.226359 0.148519
H22   H     H_    0.820584 0.069309 0.773663 0.148527
C43   C     C_R   0.181983 0.858875 0.190974 -0.041842
C44   C     C_R   0.818019 0.358876 0.809021 -0.041842
O11   O     O_R   0.913920 0.203370 0.916260 -0.524124
O12   O     O_R   0.086080 0.703370 0.083740 -0.524120
O13   O     O_R   0.047620 0.535540 0.888290 -0.538809
O14   O     O_R   0.952380 0.035540 0.111710 -0.538808
C45   C     C_R   0.063411 0.368170 0.862249 0.690134
C46   C     C_R   0.936589 0.868170 0.137752 0.690137
O15   O     O_R   0.912040 0.532780 0.904220 -0.538641
O16   O     O_R   0.087960 0.032780 0.095780 -0.538645
O17   O     O_R   0.949550 0.708160 0.099720 -0.536441
O18   O     O_R   0.050450 0.208160 0.900280 -0.536443
C47   C     C_R   0.886123 0.364674 0.880962 0.667769
C48   C     C_R   0.113877 0.864674 0.119036 0.667767
O19   O     O_3   0.012480 0.375300 0.064060 -0.370836
O20   O     O_3   0.987520 0.875300 0.935940 -0.370837
V3    V     V_3+5 0.997690 0.648180 0.988110 1.477863
V4    V     V_3+5 0.002310 0.148180 0.011890 1.477859
C49   C     C_1   0.812703 0.885436 0.000310 0.282126
N1    N     N_1   0.837168 0.893531 0.932377 -0.361854
C50   C     C_1   0.187298 0.385462 0.999692 0.282111
N2    N     N_1   0.162834 0.393563 0.067625 -0.361849

loop_
_geom_bond_atom_site_label_1
_geom_bond_atom_site_label_2
_ccdc_geom_bond_type
C20   C22   A    
C35   H17   S    
O14   V4    S    
C9    C11   A    
C41   H21   S    
O17   V3    S    
O15   V3    S    
C49   N1    T    
O1    C3    A    
C46   O17   A    
O2    C4    A    
C33   C43   A    
C2    O7    A    
C50   N2    T    
C18   C32   A    
C21   C23   A    
O5    C3    A    
C34   C44   A    
C5    H5    S    
C42   H22   S    
C6    H6    S    
C36   C38   A    
C31   C46   S    
H1    C29   S    
C27   H7    S    
C28   H8    S    
C34   H16   S    
C5    C21   A    
C39   H19   S    
C6    C22   A    
O16   V4    S    
C10   C32   A    
C40   C42   A    
C25   C49   S    
C13   C15   A    
C39   C41   A    
C17   C25   A    
C7    C29   A    
C8    C30   A    
O5    V1    S    
C45   O18   A    
O6    V2    S    
C23   C25   A    
C24   C26   A    
C1    C38   S    
O13   C45   A    
C32   C45   S    
O18   V4    S    
C44   C47   S    
C19   C21   A    
C35   C37   A    
C43   C48   S    
C33   H15   S    
C20   C28   A    
O11   V4    S    
O4    C2    A    
O16   C48   A    
C10   H10   S    
C3    C8    S    
C15   C19   A    
C37   C39   A    
C14   C16   A    
O4    V2    S    
C17   C31   A    
O13   V3    S    
C26   C50   S    
O6    C4    A    
O1    V2    S    
O2    V1    S    
H2    C30   S    
H3    C23   S    
C2    C37   S    
C11   H13   S    
O14   C46   A    
C18   C26   A    
C19   C27   A    
C7    C27   A    
O3    V1    S    
O15   C47   A    
C16   C20   A    
C5    C29   A    
O3    C1    A    
C6    C30   A    
C9    H9    S    
C33   C35   A    
C4    C7    S    
C34   C36   A    
C10   C12   A    
O7    V1    S    
C1    O8    A    
C11   C13   A    
O8    V2    S    
O19   V4    S    
C12   C14   A    
H4    C24   S    
C12   H14   S    
C22   C24   A    
O20   V3    S    
C15   C17   A    
C16   C18   A    
O12   C48   A    
O11   C47   A    
C8    C28   A    
C38   C40   A    
C42   C44   A    
O9    V2    S    
C41   C43   A    
O10   V1    S    
C40   H20   S    
C13   H11   S    
O12   V3    S    
C14   H12   S    
C9    C31   A    
C36   H18   S    
