data_mof_unit_24994.cif
_audit_creation_date              2012-12-11T20:51:09-0500
_audit_creation_method            fapswitch 2.2
_symmetry_space_group_name_H-M    P1
_symmetry_Int_Tables_number       1
_space_group_crystal_system       triclinic
_cell_length_a                    30.502655
_cell_length_b                    33.844758
_cell_length_c                    8.390309
_cell_angle_alpha                 90.000125
_cell_angle_beta                  90.05753
_cell_angle_gamma                 89.999788
_cell_volume                      8661.77288686

loop_
_atom_site_label
_atom_site_type_symbol
_atom_type_description
_atom_site_fract_x
_atom_site_fract_y
_atom_site_fract_z
_atom_type_partial_charge
Ba1   Ba    Ba6+2 0.999930 0.472870 0.844940 1.669727
Ba2   Ba    Ba6+2 0.999930 0.527130 0.344940 1.669764
Ba3   Ba    Ba6+2 0.499930 0.972870 0.844940 1.669776
Ba4   Ba    Ba6+2 0.499930 0.027130 0.344940 1.669822
C1    C     C_3   0.015464 0.277891 0.575953 -0.316830
C2    C     C_R   0.213994 0.331515 0.493169 0.595734
C3    C     C_R   0.403671 0.088191 0.690349 0.044792
C4    C     C_R   0.871316 0.383652 0.149468 -0.081127
C5    C     C_R   0.871326 0.616353 0.649448 -0.081131
C6    C     C_R   0.371317 0.883651 0.149465 -0.081138
C7    C     C_R   0.371318 0.116351 0.649460 -0.081151
C8    C     C_R   0.863467 0.349629 0.244309 0.228494
C9    C     C_R   0.863486 0.650382 0.744262 0.228551
C10   C     C_R   0.363483 0.849618 0.244264 0.228664
C11   C     C_R   0.363492 0.150389 0.744236 0.228770
C12   C     C_2   0.068238 0.596345 0.878994 -0.263122
C13   C     C_R   0.714005 0.168453 0.993586 0.595665
C14   C     C_2   0.068209 0.403636 0.379071 -0.263101
C15   C     C_2   0.568270 0.096325 0.878900 -0.263137
C16   C     C_2   0.568248 0.903662 0.378958 -0.263138
C17   C     C_3   0.123879 0.473627 0.169373 0.230027
C18   C     C_3   0.123888 0.526370 0.669361 0.230084
C19   C     C_3   0.623885 0.973628 0.169366 0.230094
C20   C     C_3   0.623891 0.026370 0.669353 0.230134
C21   C     C_3   0.164660 0.447556 0.179795 -0.239645
C22   C     C_3   0.164671 0.552439 0.679745 -0.239665
C23   C     C_3   0.664669 0.947559 0.179752 -0.239626
C24   C     C_R   0.713999 0.831543 0.493528 0.595685
C25   C     C_3   0.664676 0.052438 0.679705 -0.239643
C26   C     C_3   0.874742 0.526223 0.018531 0.294060
C27   C     C_3   0.874721 0.473787 0.518521 0.294072
C28   C     C_3   0.374756 0.026229 0.018552 0.294046
C29   C     C_3   0.374740 0.973778 0.518539 0.294069
C30   C     C_3   0.833962 0.552099 0.020733 -0.346262
C31   C     C_3   0.833936 0.447918 0.520768 -0.346333
C32   C     C_3   0.333983 0.052114 0.020756 -0.346154
C33   C     C_3   0.333962 0.947900 0.520772 -0.346227
C34   C     C_3   0.001683 0.320819 0.558633 0.345934
C35   C     C_R   0.158185 0.718162 0.016288 0.588893
C36   C     C_3   0.001485 0.679339 0.058618 0.344051
C37   C     C_3   0.501384 0.820586 0.558572 0.343087
C38   C     C_3   0.501224 0.179547 0.058549 0.341670
C39   C     C_R   0.928417 0.406683 0.320382 -0.294078
C40   C     C_R   0.928444 0.593333 0.820314 -0.294052
C41   C     C_R   0.428446 0.906663 0.320300 -0.294042
C42   C     C_R   0.428467 0.093352 0.820241 -0.293984
C43   C     C_2   0.186807 0.444202 0.020706 0.602223
C44   C     C_2   0.186802 0.555797 0.520629 0.602143
C45   C     C_2   0.686800 0.944200 0.020635 0.602098
C46   C     C_R   0.158168 0.281847 0.516563 0.588939
C47   C     C_2   0.686793 0.055801 0.520566 0.602051
C48   C     C_R   0.658202 0.218175 0.015949 0.588838
C49   C     C_R   0.658197 0.781826 0.516059 0.588862
C50   C     C_R   0.189947 0.746818 0.057691 -0.020143
C51   C     C_R   0.189933 0.253190 0.557943 -0.020151
C52   C     C_R   0.689960 0.246832 0.057378 -0.020140
C53   C     C_3   0.015586 0.722141 0.077501 -0.316386
C54   C     C_R   0.689959 0.753170 0.557465 -0.020134
C55   C     C_R   0.234417 0.735854 0.067366 -0.052601
C56   C     C_R   0.234410 0.264144 0.567395 -0.052601
C57   C     C_R   0.734421 0.235854 0.067347 -0.052602
C58   C     C_R   0.734422 0.764148 0.567351 -0.052607
C59   C     C_R   0.291243 0.686035 0.045241 -0.060722
C60   C     C_R   0.291244 0.313943 0.544857 -0.060724
C61   C     C_R   0.791235 0.186008 0.045763 -0.060717
C62   C     C_R   0.791234 0.813991 0.545629 -0.060719
C63   C     C_R   0.822998 0.214032 0.087359 -0.072060
C64   C     C_3   0.515651 0.777850 0.578196 -0.316233
C65   C     C_R   0.823000 0.785970 0.587220 -0.072058
C66   C     C_R   0.323009 0.714056 0.086834 -0.072058
C67   C     C_R   0.323014 0.285924 0.586450 -0.072061
C68   C     C_R   0.811248 0.253445 0.120234 -0.025879
C69   C     C_R   0.811253 0.746559 0.620155 -0.025864
C70   C     C_R   0.311255 0.753455 0.119969 -0.025864
C71   C     C_R   0.311257 0.246536 0.619781 -0.025849
C72   C     C_R   0.766758 0.264394 0.109933 -0.051384
C73   C     C_R   0.766763 0.735610 0.609924 -0.051383
C74   C     C_R   0.266758 0.764392 0.109937 -0.051375
C75   C     C_3   0.515715 0.222186 0.079305 -0.315895
C76   C     C_R   0.266754 0.235608 0.609952 -0.051368
C77   C     C_R   0.178165 0.786213 0.090534 -0.074434
C78   C     C_R   0.178148 0.213807 0.590986 -0.074409
C79   C     C_R   0.678181 0.286241 0.089959 -0.074464
C80   C     C_R   0.678184 0.713764 0.590108 -0.074445
C81   C     C_3   0.007238 0.313274 0.088319 0.325037
C82   C     C_3   0.007209 0.686710 0.588522 0.325216
C83   C     C_3   0.507200 0.813295 0.088579 0.325273
C84   C     C_3   0.507179 0.186694 0.588815 0.325304
C85   C     C_R   0.709881 0.314221 0.131752 -0.072203
C86   C     C_R   0.246635 0.696458 0.035151 -0.031009
C87   C     C_R   0.709887 0.685785 0.631880 -0.072205
C88   C     C_R   0.209869 0.814193 0.132295 -0.072203
C89   C     C_R   0.209856 0.185828 0.632718 -0.072205
C90   C     C_R   0.754440 0.303750 0.142448 -0.025724
C91   C     C_R   0.754448 0.696256 0.642498 -0.025724
C92   C     C_R   0.254436 0.803734 0.142707 -0.025730
C93   C     C_R   0.254430 0.196276 0.642914 -0.025737
C94   C     C_R   0.786868 0.331662 0.186003 0.587642
C95   C     C_R   0.786880 0.668346 0.686036 0.587645
C96   C     C_R   0.286870 0.831645 0.186230 0.587654
C97   C     C_R   0.246631 0.303529 0.534973 -0.031016
C98   C     C_R   0.286868 0.168366 0.686408 0.587662
C99   C     C_R   0.842926 0.282117 0.163330 0.593082
C100  C     C_R   0.842935 0.717889 0.663242 0.593080
C101  C     C_R   0.342937 0.782124 0.163064 0.593099
C102  C     C_R   0.342942 0.217869 0.662877 0.593101
C103  C     C_2   0.108135 0.656455 0.812446 -0.085133
C104  C     C_2   0.108103 0.343521 0.312535 -0.085409
C105  C     C_2   0.608176 0.156426 0.812327 -0.084812
C106  C     C_2   0.608153 0.843558 0.312390 -0.084996
C107  C     C_3   0.069722 0.632367 0.789088 -0.104368
C108  C     C_R   0.746635 0.196444 0.035402 -0.030997
C109  C     C_3   0.069695 0.367617 0.289140 -0.104148
C110  C     C_3   0.569755 0.132348 0.789014 -0.104632
C111  C     C_3   0.569734 0.867640 0.289054 -0.104465
C112  C     C_1   0.096790 0.588381 0.003000 0.031993
C113  C     C_1   0.096780 0.411616 0.503006 0.031786
C114  C     C_1   0.596796 0.088378 0.002999 0.032293
C115  C     C_1   0.596788 0.911619 0.503005 0.032125
C116  C     C_2   0.129862 0.614495 0.042134 -0.087969
C117  C     C_2   0.129865 0.385510 0.542097 -0.088158
C118  C     C_2   0.629850 0.114506 0.042199 -0.087715
C119  C     C_R   0.746633 0.803555 0.535339 -0.031004
C120  C     C_2   0.629851 0.885497 0.542177 -0.087861
C121  C     C_2   0.136803 0.650352 0.942470 0.229218
C122  C     C_2   0.136789 0.349641 0.442498 0.229263
C123  C     C_2   0.636817 0.150344 0.942446 0.229166
C124  C     C_2   0.636807 0.849650 0.442466 0.229150
C125  C     C_R   0.885977 0.344636 0.381881 -0.097617
C126  C     C_R   0.886008 0.655383 0.881803 -0.097561
C127  C     C_R   0.386013 0.844611 0.381783 -0.097546
C128  C     C_R   0.386036 0.155406 0.881720 -0.097516
C129  C     C_3   0.988478 0.276130 0.012520 -0.307996
C130  C     C_R   0.214001 0.668470 0.993342 0.595705
C131  C     C_3   0.988484 0.723896 0.512909 -0.307945
C132  C     C_3   0.488503 0.776088 0.013058 -0.307928
C133  C     C_3   0.488452 0.223904 0.513393 -0.307656
C134  C     C_R   0.919182 0.374128 0.429928 -0.057164
C135  C     C_R   0.919221 0.625897 0.929833 -0.057867
C136  C     C_R   0.419231 0.874094 0.429807 -0.058204
C137  C     C_R   0.419262 0.125928 0.929728 -0.058752
C138  C     C_R   0.903656 0.411820 0.190392 0.044652
C139  C     C_R   0.903669 0.588187 0.690364 0.044741
C140  C     C_R   0.403664 0.911814 0.190370 0.044711
H1    H     H_    0.031032 0.339930 0.572932 0.048412
H2    H     H_    0.155224 0.582465 0.719734 0.013641
H3    H     H_    0.526153 0.196214 0.695218 -0.032573
H4    H     H_    0.965802 0.283885 0.914175 0.166056
H5    H     H_    0.965824 0.716193 0.414419 0.165989
H6    H     H_    0.465866 0.783763 0.914470 0.165993
H7    H     H_    0.465791 0.216231 0.414853 0.166016
H8    H     H_    0.015365 0.257255 0.966218 0.103804
H9    H     H_    0.015397 0.742784 0.466817 0.103680
H10   H     H_    0.515431 0.757197 0.967122 0.103611
H11   H     H_    0.515367 0.242808 0.467392 0.103492
H12   H     H_    0.109245 0.475967 0.289541 0.005377
H13   H     H_    0.655223 0.917534 0.219743 0.013539
H14   H     H_    0.109264 0.524030 0.789545 0.005367
H15   H     H_    0.609261 0.975969 0.289548 0.005379
H16   H     H_    0.609274 0.024030 0.789548 0.005368
H17   H     H_    0.099845 0.459740 0.087432 0.073510
H18   H     H_    0.099849 0.540259 0.587443 0.073424
H19   H     H_    0.599846 0.959739 0.087445 0.073393
H20   H     H_    0.599848 0.040261 0.587449 0.073306
H21   H     H_    0.169489 0.431365 0.920316 0.013547
H22   H     H_    0.169476 0.568641 0.420272 0.013561
H23   H     H_    0.669473 0.931355 0.920281 0.013558
H24   H     H_    0.655233 0.082463 0.719718 0.013451
H25   H     H_    0.669460 0.068651 0.420239 0.013550
H26   H     H_    0.886022 0.523019 0.894135 0.010639
H27   H     H_    0.885986 0.476994 0.394107 0.010677
H28   H     H_    0.386041 0.023030 0.894159 0.010543
H29   H     H_    0.386014 0.976981 0.394134 0.010580
H30   H     H_    0.900502 0.540637 0.091928 0.061184
H31   H     H_    0.900487 0.459365 0.591871 0.061008
H32   H     H_    0.400517 0.040636 0.091970 0.061370
H33   H     H_    0.030742 0.660047 0.071255 0.047232
H34   H     H_    0.400505 0.959366 0.591920 0.061231
H35   H     H_    0.807817 0.538511 0.946580 0.143277
H36   H     H_    0.807783 0.461517 0.446692 0.143302
H37   H     H_    0.307842 0.038541 0.946548 0.143231
H38   H     H_    0.307814 0.961484 0.446628 0.143247
H39   H     H_    0.841459 0.581789 0.972558 0.072726
H40   H     H_    0.841419 0.418231 0.472528 0.072673
H41   H     H_    0.341495 0.081808 0.972645 0.072853
H42   H     H_    0.341462 0.918209 0.472603 0.072791
H43   H     H_    0.821929 0.555407 0.144929 0.129898
H44   H     H_    0.530592 0.839969 0.570370 0.046619
H45   H     H_    0.821923 0.444600 0.644984 0.129872
H46   H     H_    0.321941 0.055412 0.144944 0.129932
H47   H     H_    0.321935 0.944593 0.644976 0.129915
H48   H     H_    0.987851 0.324368 0.436812 -0.085362
H49   H     H_    0.987359 0.676201 0.937060 -0.083313
H50   H     H_    0.487107 0.823522 0.437173 -0.082263
H51   H     H_    0.486725 0.176914 0.937400 -0.080739
H52   H     H_    0.035543 0.269006 0.471775 0.124471
H53   H     H_    0.035478 0.731213 0.973104 0.124486
H54   H     H_    0.535453 0.768691 0.473695 0.124516
H55   H     H_    0.530365 0.160046 0.069060 0.045747
H56   H     H_    0.535394 0.231487 0.974702 0.124479
H57   H     H_    0.035042 0.273954 0.686377 0.148678
H58   H     H_    0.035451 0.725654 0.187491 0.149228
H59   H     H_    0.535658 0.774543 0.687952 0.149492
H60   H     H_    0.535910 0.225189 0.188736 0.149913
H61   H     H_    0.969930 0.259101 0.103245 0.116884
H62   H     H_    0.969923 0.740893 0.603705 0.116999
H63   H     H_    0.469927 0.759107 0.103860 0.117046
H64   H     H_    0.469895 0.240872 0.604288 0.117106
H65   H     H_    0.699299 0.344174 0.155996 0.126537
H66   H     H_    0.187631 0.460125 0.269506 0.160611
H67   H     H_    0.699308 0.655834 0.656169 0.126539
H68   H     H_    0.199284 0.844134 0.156740 0.126538
H69   H     H_    0.199269 0.155895 0.657316 0.126536
H70   H     H_    0.144252 0.795588 0.084225 0.121982
H71   H     H_    0.144230 0.204439 0.584849 0.121994
H72   H     H_    0.644274 0.295627 0.083424 0.121968
H73   H     H_    0.644276 0.704378 0.583634 0.121981
H74   H     H_    0.856904 0.204653 0.094026 0.123938
H75   H     H_    0.856907 0.795349 0.593832 0.123930
H76   H     H_    0.356921 0.704687 0.093289 0.123916
H77   H     H_    0.187650 0.539866 0.769419 0.160614
H78   H     H_    0.356930 0.295286 0.592746 0.123898
H79   H     H_    0.879501 0.319494 0.458086 0.092169
H80   H     H_    0.879535 0.680528 0.957997 0.092156
H81   H     H_    0.379544 0.819462 0.457962 0.092091
H82   H     H_    0.379572 0.180558 0.957884 0.092027
H83   H     H_    0.301791 0.656070 0.021072 0.137071
H84   H     H_    0.301795 0.343898 0.520529 0.137059
H85   H     H_    0.801779 0.156032 0.021803 0.137089
H86   H     H_    0.801776 0.843966 0.521620 0.137085
H87   H     H_    0.150094 0.609474 0.146692 0.099429
H88   H     H_    0.687648 0.960133 0.269424 0.160658
H89   H     H_    0.150117 0.390546 0.646592 0.099433
H90   H     H_    0.650053 0.109505 0.146846 0.099424
H91   H     H_    0.650066 0.890507 0.646786 0.099459
H92   H     H_    0.112205 0.682656 0.739286 0.093159
H93   H     H_    0.112159 0.317308 0.239443 0.093056
H94   H     H_    0.612267 0.182608 0.739075 0.093272
H95   H     H_    0.612235 0.817368 0.239177 0.093248
H96   H     H_    0.851933 0.388235 0.042888 0.102893
H97   H     H_    0.851933 0.611763 0.542896 0.102883
H98   H     H_    0.351918 0.888244 0.042931 0.102794
H99   H     H_    0.687661 0.039862 0.769348 0.160659
H100  H     H_    0.351908 0.111751 0.542958 0.102721
H101  H     H_    0.952918 0.428300 0.353398 0.071673
H102  H     H_    0.952946 0.571717 0.853326 0.071692
H103  H     H_    0.452952 0.928276 0.353304 0.071700
H104  H     H_    0.452976 0.071740 0.853236 0.071704
H105  H     H_    0.986067 0.258562 0.580888 0.111197
H106  H     H_    0.986331 0.741611 0.084265 0.111051
H107  H     H_    0.486471 0.758308 0.585847 0.110977
H108  H     H_    0.486640 0.241815 0.088242 0.110828
H109  H     H_    0.039616 0.577716 0.863072 0.072777
H110  H     H_    0.155207 0.417529 0.219755 0.013753
H111  H     H_    0.039582 0.422260 0.363185 0.072844
H112  H     H_    0.539653 0.077691 0.862940 0.072689
H113  H     H_    0.539627 0.922291 0.363025 0.072745
H114  H     H_    0.979508 0.332609 0.125484 0.016115
H115  H     H_    0.979461 0.667369 0.625502 0.015986
H116  H     H_    0.479440 0.832634 0.125442 0.015987
H117  H     H_    0.479432 0.167341 0.625720 0.015721
H118  H     H_    0.026219 0.303672 0.194551 -0.031833
H119  H     H_    0.026177 0.696263 0.694873 -0.032190
H120  H     H_    0.526155 0.803769 0.194996 -0.032374
N1    N     N_R   0.170278 0.679466 0.983910 -0.428233
N2    N     N_R   0.170265 0.320529 0.483951 -0.428223
N3    N     N_R   0.670290 0.179462 0.983873 -0.428248
N4    N     N_R   0.670282 0.820535 0.483895 -0.428235
N5    N     N_R   0.830588 0.320732 0.196337 -0.426951
N6    N     N_R   0.830601 0.679276 0.696303 -0.426958
N7    N     N_R   0.330597 0.820725 0.196308 -0.426969
N8    N     N_R   0.330601 0.179278 0.696295 -0.426976
O1    O     O_2   0.914200 0.445720 0.903420 -0.457503
O2    O     O_3   0.034721 0.667080 0.479531 -0.556742
O3    O     O_3   0.534716 0.832914 0.979569 -0.556718
O4    O     O_3   0.534682 0.167097 0.479690 -0.556622
O5    O     O_3   0.049930 0.518940 0.045960 -0.493532
O6    O     O_3   0.049930 0.481060 0.545960 -0.493515
O7    O     O_3   0.549930 0.018940 0.045960 -0.493549
O8    O     O_3   0.549930 0.981060 0.545960 -0.493537
O9    O     O_2   0.224589 0.634421 0.963912 -0.573300
O10   O     O_2   0.224585 0.365553 0.463555 -0.573298
O11   O     O_2   0.724590 0.134391 0.964395 -0.573300
O12   O     O_2   0.914200 0.554280 0.403420 -0.457478
O13   O     O_2   0.724582 0.865603 0.464273 -0.573301
O14   O     O_2   0.119592 0.727614 0.010918 -0.621089
O15   O     O_2   0.119569 0.272407 0.511425 -0.621028
O16   O     O_2   0.619616 0.227642 0.010280 -0.621142
O17   O     O_2   0.619610 0.772361 0.510493 -0.621120
O18   O     O_2   0.776108 0.365613 0.216545 -0.592654
O19   O     O_2   0.776123 0.634396 0.716621 -0.592654
O20   O     O_2   0.276108 0.865585 0.216967 -0.592644
O21   O     O_2   0.276107 0.134434 0.717290 -0.592634
O22   O     O_2   0.881563 0.272752 0.170698 -0.611195
O23   O     O_2   0.414200 0.945720 0.903420 -0.457417
O24   O     O_2   0.881573 0.727255 0.670555 -0.611231
O25   O     O_2   0.381580 0.772769 0.170221 -0.611240
O26   O     O_2   0.381588 0.227218 0.669883 -0.611311
O27   O     O_3   0.950020 0.480960 0.143730 -0.494616
O28   O     O_3   0.950020 0.519040 0.643730 -0.494613
O29   O     O_3   0.450020 0.980960 0.143730 -0.494646
O30   O     O_3   0.450020 0.019040 0.643730 -0.494644
O31   O     O_3   0.985090 0.412220 0.642040 -0.475124
O32   O     O_3   0.985090 0.587780 0.142040 -0.474948
O33   O     O_3   0.485090 0.912220 0.642040 -0.474863
O34   O     O_2   0.414200 0.054280 0.403420 -0.457399
O35   O     O_3   0.485090 0.087780 0.142040 -0.474707
O36   O     O_2   0.911344 0.380988 0.759787 -0.473863
O37   O     O_2   0.911306 0.618968 0.259587 -0.473790
O38   O     O_2   0.411292 0.881050 0.759518 -0.473725
O39   O     O_2   0.411264 0.118918 0.259357 -0.473661
O40   O     O_3   0.863827 0.489159 0.080132 -0.627033
O41   O     O_3   0.863821 0.510850 0.580162 -0.627030
O42   O     O_3   0.363831 0.989163 0.080118 -0.627044
O43   O     O_3   0.363826 0.010843 0.580141 -0.627053
O44   O     O_3   0.970794 0.329919 0.677063 -0.575369
O45   O     O_3   0.135927 0.488826 0.614572 -0.623371
O46   O     O_3   0.970772 0.670069 0.177427 -0.574927
O47   O     O_3   0.470764 0.829936 0.677581 -0.574705
O48   O     O_3   0.470749 0.170056 0.177861 -0.574362
O49   O     O_2   0.085560 0.445380 0.786390 -0.462614
O50   O     O_2   0.085560 0.554620 0.286390 -0.462599
O51   O     O_2   0.585560 0.945380 0.786390 -0.462614
O52   O     O_2   0.585560 0.054620 0.286390 -0.462609
O53   O     O_3   0.014550 0.412170 0.047860 -0.462561
O54   O     O_3   0.014550 0.587830 0.547860 -0.462559
O55   O     O_3   0.514550 0.912170 0.047860 -0.462562
O56   O     O_3   0.135924 0.511171 0.114594 -0.623374
O57   O     O_3   0.514550 0.087830 0.547860 -0.462539
O58   O     O_2   0.095126 0.387588 0.974270 -0.499192
O59   O     O_2   0.095111 0.612434 0.474142 -0.499130
O60   O     O_2   0.595105 0.887559 0.974087 -0.499115
O61   O     O_2   0.595089 0.112466 0.473962 -0.499058
O62   O     O_2   0.224360 0.455843 0.003121 -0.522143
O63   O     O_2   0.224352 0.544152 0.502984 -0.522141
O64   O     O_2   0.724349 0.955845 0.002988 -0.522126
O65   O     O_2   0.724340 0.044153 0.502870 -0.522124
O66   O     O_3   0.635927 0.988826 0.614563 -0.623365
O67   O     O_3   0.635925 0.011172 0.114580 -0.623376
O68   O     O_3   0.034744 0.332934 0.979404 -0.556802
P1    P     P_3+3 0.909970 0.458430 0.077330 0.998311
P2    P     P_3+3 0.054610 0.624488 0.573603 0.964526
P3    P     P_3+3 0.554610 0.875512 0.073586 0.964523
P4    P     P_3+3 0.554605 0.124492 0.573568 0.964589
P5    P     P_3+3 0.945738 0.625404 0.127013 0.977942
P6    P     P_3+3 0.945735 0.374599 0.627034 0.978074
P7    P     P_3+3 0.445742 0.125410 0.126988 0.977823
P8    P     P_3+3 0.445738 0.874594 0.627009 0.977906
P9    P     P_3+3 0.909970 0.541570 0.577330 0.998311
P10   P     P_3+3 0.409970 0.958430 0.077330 0.998302
P11   P     P_3+3 0.409970 0.041570 0.577330 0.998297
P12   P     P_3+3 0.089830 0.458070 0.612460 0.992874
P13   P     P_3+3 0.089830 0.541930 0.112460 0.992925
P14   P     P_3+3 0.589830 0.958070 0.612460 0.992950
P15   P     P_3+3 0.589830 0.041930 0.112460 0.992987
P16   P     P_3+3 0.054613 0.375514 0.073626 0.964501

loop_
_geom_bond_atom_site_label_1
_geom_bond_atom_site_label_2
_ccdc_geom_bond_type
O7    P15   S    
C58   C73   A    
O36   P6    D    
C125  H79   S    
Ba2   O5    S    
C5    C139  A    
C24   C119  A    
Ba4   O57   S    
O2    P2    S    
C123  N3    S    
C99   O22   D    
C34   O44   S    
C86   C130  A    
C91   C95   A    
C14   C109  A    
C85   C90   A    
C5    C9    A    
C113  P12   S    
C127  C136  S    
C72   C90   A    
C7    C11   A    
C105  C123  A    
C11   C128  D    
C74   C92   A    
O47   P8    S    
C66   C70   A    
C9    C126  D    
C80   C87   A    
C36   H49   S    
C53   H53   S    
C28   H28   S    
C57   C72   A    
O41   P9    S    
C18   O45   S    
C30   H35   S    
C2    O10   D    
C18   H18   S    
C42   C137  S    
C130  O9    D    
C81   O68   S    
C47   H25   S    
C8    N5    S    
Ba4   P15   S    
C10   N7    S    
C59   H83   S    
C43   O62   D    
Ba2   O54   S    
O12   P9    D    
C104  C109  A    
Ba1   O5    S    
C12   H109  S    
Ba3   O7    S    
C28   O42   S    
C25   H99   S    
C102  O26   D    
C49   O17   D    
C19   O67   S    
C131  H62   S    
C64   H107  S    
C118  H90   S    
C40   C135  S    
O32   P5    S    
Ba4   O8    S    
O1    P1    D    
C52   C79   A    
C20   O66   S    
C75   H56   S    
C121  N1    S    
C6    C140  A    
C83   C132  S    
C63   H74   S    
C132  H63   S    
C85   H65   S    
C49   C54   A    
C35   N1    Am   
C68   C99   A    
C135  P5    S    
C95   N6    Am   
C42   H104  S    
C96   O20   D    
C43   H21   S    
Ba1   P1    S    
C38   H51   S    
C78   H71   S    
C104  H93   S    
C69   C73   A    
C39   C138  D    
C32   H37   S    
C104  C122  A    
C136  P8    S    
C50   C77   A    
C12   C107  A    
Ba4   O34   S    
C96   N7    Am   
C76   C93   A    
Ba4   P11   S    
C75   H108  S    
Ba1   O28   S    
C140  P10   S    
Ba2   O27   S    
C5    H97   S    
C79   H72   S    
O57   P4    S    
C32   H46   S    
C28   C32   S    
C25   H24   S    
C1    H57   S    
O34   P11   D    
C35   C50   A    
C88   C92   A    
C133  H11   S    
C63   C68   A    
C114  C118  A    
C118  C123  S    
C22   H2    S    
C127  H81   S    
O28   P9    S    
C77   C88   A    
O49   P12   D    
Ba3   O51   S    
C15   C114  A    
C19   H15   S    
C2    N2    Am   
C41   C140  D    
C61   H85   S    
C16   H113  S    
O35   P7    S    
C130  N1    Am   
C38   C75   S    
O66   P14   S    
C83   O3    S    
Ba1   P12   S    
O29   P10   S    
C55   C74   A    
Ba3   P10   S    
C50   C55   A    
C4    H96   S    
C94   N5    Am   
C79   C85   A    
C26   C30   S    
O43   P11   S    
C3    C42   D    
C103  C121  A    
C87   H67   S    
C6    C10   A    
O58   P16   D    
C112  C116  A    
C53   H58   S    
C61   C108  A    
O38   P8    D    
C128  H82   S    
O5    P13   S    
C4    C8    A    
C30   H39   S    
Ba2   O12   S    
C105  C110  A    
C1    H52   S    
C70   C74   A    
C88   H68   S    
C11   N8    S    
O54   P2    S    
C89   C93   A    
C36   O46   S    
C25   C47   S    
C128  C137  S    
C17   C21   S    
C56   C76   A    
C103  C107  A    
Ba2   O6    S    
C16   C111  A    
C22   C44   S    
C23   H13   S    
C120  C124  S    
C126  H80   S    
O42   P10   S    
O52   P15   D    
Ba3   O23   S    
C29   O43   S    
C70   C101  A    
C27   H27   S    
C39   H101  S    
C40   C139  D    
C92   C96   A    
C26   H30   S    
C30   H43   S    
C100  N6    Am   
C87   C91   A    
C36   H33   S    
C82   C131  S    
C48   N3    Am   
C75   H60   S    
C106  C124  A    
C67   H78   S    
C62   C119  A    
C122  N2    S    
O48   P7    S    
C1    C34   S    
C57   C108  A    
C23   C45   S    
C133  H64   S    
C54   C58   A    
C103  H92   S    
C139  P9    S    
C81   H118  S    
C20   H20   S    
C105  H94   S    
C98   N8    Am   
O8    P14   S    
C99   N5    Am   
C38   H55   S    
C94   O18   D    
O3    P3    S    
C46   O15   D    
C90   C94   A    
C38   O48   S    
C134  P6    S    
C39   C134  S    
C32   H41   S    
C60   C67   A    
C20   C25   S    
C26   H26   S    
O61   P4    D    
C61   C63   A    
C65   C69   A    
C98   O21   D    
C3    P11   S    
C21   C43   S    
Ba3   O30   S    
C93   C98   A    
C40   H102  S    
C10   C127  D    
C111  P3    S    
C31   H45   S    
C78   C89   A    
C51   C56   A    
Ba3   P14   S    
C129  H8    S    
O6    P12   S    
C126  C135  S    
C12   C112  A    
C37   C64   S    
O56   P13   S    
C8    C125  D    
C89   H69   S    
O27   P1    S    
C1    H105  S    
C18   H14   S    
C15   C110  A    
C31   H40   S    
C41   C136  S    
C29   C33   S    
Ba3   Ba4   S    
C37   H44   S    
O68   P16   S    
C48   O16   D    
C37   H50   S    
C132  H10   S    
O23   P10   D    
C33   H42   S    
C124  N4    S    
C14   C113  A    
C117  H89   S    
O37   P5    D    
O31   P6    S    
C27   C31   S    
C82   H119  S    
O50   P13   D    
C109  P16   S    
C36   C53   S    
C65   H75   S    
C115  P14   S    
C131  H9    S    
C83   H116  S    
Ba1   O49   S    
O44   P6    S    
C14   H111  S    
C100  O24   D    
C47   O65   D    
O30   P11   S    
Ba1   O6    S    
Ba3   O8    S    
C33   H38   S    
C116  C121  S    
C84   H3    S    
C84   C133  S    
C80   H73   S    
C17   O56   S    
C13   O11   D    
O53   P16   S    
C15   H112  S    
C44   H22   S    
C71   C102  A    
C18   C22   S    
Ba4   O7    S    
C52   C57   A    
C4    C138  A    
C53   H106  S    
C26   O40   S    
C106  C111  A    
C16   C115  A    
C81   C129  S    
C101  N7    Am   
C46   N2    Am   
C102  N8    Am   
C6    H98   S    
C68   C72   A    
C41   H103  S    
O45   P12   S    
C27   H31   S    
C115  C120  A    
C3    C7    A    
C28   H32   S    
C82   O2    S    
C45   H23   S    
C62   C65   A    
C37   O47   S    
C129  H61   S    
O46   P5    S    
C64   H54   S    
Ba1   Ba2   S    
C2    C97   A    
C113  C117  A    
O39   P7    D    
O59   P2    D    
O51   P14   D    
C120  H91   S    
C69   C100  A    
C125  C134  S    
Ba2   O50   S    
C19   C23   S    
C81   H114  S    
C29   H29   S    
C71   C76   A    
Ba1   O1    S    
C45   O64   D    
C27   O41   S    
Ba3   O55   S    
O67   P15   S    
C64   H59   S    
C7    H100  S    
C21   H66   S    
C101  O25   D    
C95   O19   D    
C116  H87   S    
C58   C119  A    
C84   H117  S    
C19   H19   S    
Ba2   P9    S    
C35   O14   D    
Ba3   O33   S    
C60   C97   A    
C17   H17   S    
C106  H95   S    
C131  H5    S    
C73   C91   A    
C66   H76   S    
C55   C86   A    
C34   H1    S    
C54   C80   A    
C23   H88   S    
C77   H70   S    
C59   C66   A    
C112  P13   S    
C22   H77   S    
C129  H4    S    
C137  P7    S    
C51   C78   A    
O60   P3    D    
O55   P3    S    
C24   O13   D    
C33   H47   S    
C114  P15   S    
C34   H48   S    
O33   P8    S    
C56   C97   A    
C13   C108  A    
C110  P4    S    
C60   H84   S    
C44   O63   D    
C31   H36   S    
C29   H34   S    
C133  H7    S    
Ba2   P13   S    
C132  H6    S    
C21   H110  S    
C20   H16   S    
C49   N4    Am   
C62   H86   S    
C46   C51   A    
C24   N4    Am   
C107  P2    S    
C84   O4    S    
C117  C122  S    
C13   N3    Am   
C9    N6    S    
C67   C71   A    
O40   P1    S    
O4    P4    S    
C59   C86   A    
C17   H12   S    
Ba4   O29   S    
C82   H115  S    
Ba4   O35   S    
Ba4   O52   S    
Ba1   O31   S    
Ba2   O32   S    
C83   H120  S    
Ba1   O53   S    
C48   C52   A    
C138  P1    S    
