data_mof_unit_30452.cif
_audit_creation_date              2012-12-11T17:25:52-0500
_audit_creation_method            fapswitch 2.2
_symmetry_space_group_name_H-M    P1
_symmetry_Int_Tables_number       1
_space_group_crystal_system       triclinic
_cell_length_a                    22.547993
_cell_length_b                    22.622158
_cell_length_c                    23.494792
_cell_angle_alpha                 89.978316
_cell_angle_beta                  89.942835
_cell_angle_gamma                 90.180229
_cell_volume                      11984.2574684

loop_
_atom_site_label
_atom_site_type_symbol
_atom_type_description
_atom_site_fract_x
_atom_site_fract_y
_atom_site_fract_z
_atom_type_partial_charge
C1    C     C_R   0.864621 0.064268 0.399116 -0.120905
C2    C     C_R   0.851320 0.920342 0.420778 -0.140731
C3    C     C_R   0.219927 0.690393 0.323656 0.362160
C4    C     C_R   0.689351 0.777927 0.678451 0.373198
C5    C     C_R   0.247848 0.158692 0.214849 0.368599
C6    C     C_R   0.151863 0.772451 0.802698 0.383672
C7    C     C_R   0.844988 0.217230 0.189393 0.378099
C8    C     C_R   0.759436 0.153529 0.208044 0.356672
C9    C     C_R   0.235065 0.841130 0.791365 0.332906
C10   C     C_R   0.156835 0.210724 0.189407 0.363869
C11   C     C_R   0.736851 0.689029 0.641254 0.362373
C12   C     C_R   0.309255 0.746644 0.347869 0.375248
C13   C     C_R   0.063799 0.865007 0.601014 -0.143861
C14   C     C_R   0.754615 0.158029 0.786815 0.370477
C15   C     C_R   0.769990 0.685574 0.334475 0.371029
C16   C     C_R   0.152591 0.225578 0.803378 0.375895
C17   C     C_R   0.177198 0.175069 0.778180 -0.334003
C18   C     C_R   0.746242 0.737768 0.357161 -0.319400
C19   C     C_R   0.814623 0.171245 0.777286 -0.323753
C20   C     C_R   0.247925 0.736868 0.352908 -0.324924
C21   C     C_R   0.732809 0.751039 0.644504 -0.330736
C22   C     C_R   0.187950 0.171469 0.224759 -0.325879
C23   C     C_R   0.177845 0.822227 0.776726 -0.300028
C24   C     C_R   0.932219 0.136452 0.400388 -0.130263
C25   C     C_R   0.817556 0.171835 0.220825 -0.332558
C26   C     C_R   0.679757 0.672092 0.280286 -0.327577
C27   C     C_R   0.246088 0.242287 0.850924 -0.366189
C28   C     C_R   0.312423 0.671560 0.274892 -0.328173
C29   C     C_R   0.751160 0.236288 0.856638 -0.319357
C30   C     C_R   0.249804 0.235053 0.143098 -0.319790
C31   C     C_R   0.664454 0.682153 0.717637 -0.323933
C32   C     C_R   0.751009 0.236555 0.143537 -0.325639
C33   C     C_R   0.244488 0.755614 0.852186 -0.311946
C34   C     C_3   0.867106 0.684447 0.306708 0.242733
C35   C     C_R   0.850968 0.920884 0.578896 -0.132749
C36   C     C_3   0.930052 0.673688 0.328426 -0.296183
C37   C     C_3   0.976544 0.691173 0.284220 -1.011616
C38   C     C_3   0.092547 0.287051 0.752113 0.215119
C39   C     C_3   0.027704 0.300354 0.738409 -0.253179
C40   C     C_3   0.022067 0.352201 0.697275 -1.045200
C41   C     C_3   0.341287 0.842238 0.346813 0.237658
C42   C     C_3   0.376878 0.888188 0.380084 -0.258994
C43   C     C_3   0.381439 0.946346 0.347486 -1.059814
C44   C     C_3   0.696868 0.139501 0.709180 0.248412
C45   C     C_3   0.675526 0.090018 0.669929 -0.290795
C46   C     C_R   0.137380 0.065771 0.401122 -0.119961
C47   C     C_3   0.643663 0.114578 0.617826 -1.016910
C48   C     C_3   0.062192 0.174413 0.179958 0.209788
C49   C     C_3   0.046201 0.181957 0.117140 -0.267532
C50   C     C_3   0.002700 0.134335 0.097811 -1.014930
C51   C     C_3   0.760242 0.667371 0.548338 0.222951
C52   C     C_3   0.718334 0.616801 0.531662 -0.266028
C53   C     C_3   0.703373 0.618858 0.468327 -1.045771
C54   C     C_3   0.752583 0.052791 0.215395 0.219321
C55   C     C_3   0.713624 0.033555 0.165220 -0.266287
C56   C     C_3   0.729638 0.971541 0.144991 -1.046639
C57   C     C_R   0.931473 0.136806 0.599120 -0.128171
C58   C     C_3   0.297046 0.877333 0.722797 0.227056
C59   C     C_3   0.313929 0.933784 0.690881 -0.274213
C60   C     C_3   0.357725 0.921240 0.642892 -1.023969
C61   C     C_3   0.084144 0.724818 0.745369 0.222789
C62   C     C_3   0.023906 0.739685 0.719325 -0.252032
C63   C     C_3   0.012589 0.704427 0.665028 -1.056224
C64   C     C_3   0.908269 0.281084 0.233694 0.200838
C65   C     C_3   0.973692 0.295841 0.243291 -0.233708
C66   C     C_3   0.981261 0.352519 0.277724 -1.044713
C67   C     C_3   0.714424 0.863545 0.723850 0.257183
C68   C     C_R   0.077962 0.851788 0.419515 -0.115909
C69   C     C_3   0.723695 0.929478 0.712642 -0.306190
C70   C     C_3   0.759747 0.958521 0.759981 -0.990685
C71   C     C_3   0.308660 0.146580 0.291248 0.239794
C72   C     C_3   0.337577 0.100497 0.329625 -0.285006
C73   C     C_3   0.373492 0.129471 0.377081 -1.018863
C74   C     C_3   0.940139 0.176710 0.822511 0.216552
C75   C     C_3   0.955457 0.184211 0.885533 -0.279702
C76   C     C_3   0.999161 0.137100 0.905193 -1.033723
C77   C     C_3   0.144538 0.651598 0.377702 0.210786
C78   C     C_3   0.141363 0.585071 0.366006 -0.264763
C79   C     C_R   0.351451 0.578256 0.919941 -0.132379
C80   C     C_3   0.119244 0.551193 0.418056 -1.039028
C81   C     C_3   0.218309 0.051203 0.792472 0.219633
C82   C     C_3   0.230309 0.032848 0.854276 -0.333807
C83   C     C_3   0.187415 0.984568 0.873719 -0.978087
C84   C     C_3   0.655005 0.797819 0.430296 0.228145
C85   C     C_3   0.594953 0.769261 0.443773 -0.291107
C86   C     C_3   0.585304 0.763611 0.507878 -1.031853
C87   C     C_3   0.340605 0.154846 0.891733 0.217541
C88   C     C_3   0.407966 0.153494 0.898743 -0.221129
C89   C     C_3   0.425802 0.129945 0.957042 -1.089043
C90   C     C_R   0.648582 0.420612 0.079424 -0.143218
C91   C     C_3   0.601438 0.784235 0.250071 0.285274
C92   C     C_3   0.539088 0.804458 0.233904 -0.336895
C93   C     C_3   0.508331 0.835971 0.283153 -0.750816
C94   C     C_3   0.854769 0.338967 0.852633 0.252811
C95   C     C_3   0.912648 0.364812 0.875789 -0.270260
C96   C     C_3   0.930770 0.420940 0.844176 -1.032785
C97   C     C_3   0.195813 0.645613 0.202668 0.241326
C98   C     C_3   0.169168 0.598426 0.163829 -0.295206
C99   C     C_3   0.139251 0.625854 0.111985 -1.007092
C100  C     C_3   0.553006 0.757290 0.726600 0.218984
C101  C     C_R   0.422336 0.352724 0.917241 -0.121378
C102  C     C_3   0.536165 0.798902 0.677653 -0.271569
C103  C     C_3   0.472638 0.787949 0.657888 -1.048279
C104  C     C_3   0.346472 0.144545 0.112700 0.208607
C105  C     C_3   0.336529 0.078312 0.123370 -0.257252
C106  C     C_3   0.353201 0.041571 0.071375 -1.055387
C107  C     C_3   0.175299 0.637178 0.835153 0.220286
C108  C     C_3   0.129748 0.589075 0.849021 -0.254303
C109  C     C_3   0.143400 0.531651 0.817603 -1.032422
C110  C     C_3   0.837367 0.283821 0.058292 0.288281
C111  C     C_3   0.884445 0.239513 0.037856 -0.335255
C112  C     C_R   0.136113 0.932586 0.599831 -0.118343
C113  C     C_R   0.567898 0.636123 0.099894 -0.128533
C114  C     C_3   0.859754 0.176678 0.033165 -0.930401
C115  C     C_3   0.630484 0.196161 0.205816 0.239125
C116  C     C_3   0.565359 0.189114 0.189017 -0.278339
C117  C     C_3   0.523944 0.212548 0.235139 -1.019700
C118  C     C_3   0.321076 0.869141 0.889491 0.226641
C119  C     C_3   0.383068 0.893658 0.901208 -0.266194
C120  C     C_3   0.381715 0.941166 0.947345 -1.040495
C121  C     C_3   0.155129 0.340321 0.153793 0.245078
C122  C     C_3   0.120819 0.387041 0.120555 -0.275233
C123  C     C_3   0.113924 0.443711 0.155056 -1.045464
C124  C     C_R   0.649054 0.420501 0.921577 -0.144599
C125  C     C_3   0.760817 0.579380 0.715999 0.241274
C126  C     C_3   0.763649 0.512205 0.722131 -0.255404
C127  C     C_3   0.814955 0.493375 0.760240 -1.071003
C128  C     C_3   0.437548 0.677513 0.322676 0.219914
C129  C     C_3   0.452210 0.686461 0.385738 -0.261832
C130  C     C_3   0.494736 0.639036 0.407087 -1.031742
C131  C     C_3   0.652568 0.149803 0.888191 0.222689
C132  C     C_3   0.658751 0.082620 0.882247 -0.275907
C133  C     C_3   0.641697 0.051073 0.937326 -1.029074
C134  C     C_3   0.735335 0.549690 0.298935 0.233410
C135  C     C_R   0.363193 0.565150 0.099431 -0.119511
C136  C     C_3   0.781722 0.521316 0.337689 -0.270769
C137  C     C_3   0.757954 0.464974 0.365315 -1.038202
C138  C     C_3   0.151462 0.305091 0.922062 0.232804
C139  C     C_3   0.088621 0.280562 0.930140 -0.302545
C140  C     C_3   0.070088 0.281414 0.992552 -1.023689
C141  C     C_R   0.562474 0.632623 0.896942 -0.119571
C142  C     C_R   0.421189 0.351281 0.079227 -0.116089
C143  C     C_R   0.635181 0.564017 0.101067 -0.121937
C144  C     C_R   0.352515 0.422416 0.917245 -0.125582
C145  C     C_R   0.578058 0.351680 0.080399 -0.120643
C146  C     C_R   0.420767 0.648463 0.920801 -0.130372
C147  C     C_R   0.350970 0.420165 0.078432 -0.144330
C148  C     C_R   0.921628 0.851548 0.419883 -0.121016
C149  C     C_R   0.632314 0.562597 0.896404 -0.129494
C150  C     C_R   0.430596 0.637667 0.098056 -0.128847
C151  C     C_R   0.578850 0.351329 0.920816 -0.112117
C152  C     C_1   0.154656 0.155272 0.724672 0.144694
C153  C     C_1   0.786149 0.781437 0.378602 0.148725
C154  C     C_1   0.841701 0.150343 0.726237 0.152452
C155  C     C_1   0.211279 0.781636 0.376455 0.163994
C156  C     C_1   0.779032 0.787547 0.621800 0.161389
C157  C     C_1   0.161445 0.151597 0.276316 0.162949
C158  C     C_1   0.151178 0.847241 0.727576 0.162445
C159  C     C_R   0.069718 0.139434 0.596351 -0.130469
C160  C     C_1   0.844477 0.150443 0.271940 0.168118
C161  C     C_1   0.654373 0.649302 0.228997 0.164088
C162  C     C_1   0.287087 0.285992 0.870252 0.184691
C163  C     C_1   0.340285 0.651062 0.224376 0.161124
C164  C     C_1   0.714167 0.281384 0.879712 0.155470
C165  C     C_1   0.286561 0.280105 0.119513 0.159287
C166  C     C_1   0.643336 0.651655 0.767154 0.161395
C167  C     C_1   0.712572 0.281471 0.122347 0.137496
C168  C     C_1   0.284763 0.714577 0.876353 0.168830
C169  C     C_1   0.821052 0.818882 0.391709 -0.092245
C170  C     C_R   0.148539 0.920800 0.420376 -0.141591
C171  C     C_1   0.138884 0.139836 0.678398 -0.081111
C172  C     C_1   0.177833 0.819626 0.390562 -0.087489
C173  C     C_1   0.861453 0.134245 0.681669 -0.086446
C174  C     C_1   0.141413 0.136155 0.320906 -0.084957
C175  C     C_1   0.817731 0.820855 0.607739 -0.092234
C176  C     C_1   0.863559 0.133869 0.316747 -0.086597
C177  C     C_1   0.132786 0.865212 0.683310 -0.101350
C178  C     C_1   0.322571 0.322655 0.883854 -0.081101
C179  C     C_1   0.635958 0.632663 0.183946 -0.087885
C180  C     C_1   0.679956 0.319109 0.893361 -0.089564
C181  C     C_R   0.863803 0.064636 0.600141 -0.120335
C182  C     C_1   0.360340 0.635262 0.179998 -0.085660
C183  C     C_1   0.627766 0.630530 0.811552 -0.081682
C184  C     C_1   0.320412 0.318303 0.105994 -0.091365
C185  C     C_1   0.320351 0.678812 0.890944 -0.094280
C186  C     C_1   0.678347 0.319309 0.109143 -0.089910
C187  C     C_R   0.884646 0.113650 0.370429 0.084778
C188  C     C_R   0.112788 0.885494 0.629786 0.090206
C189  C     C_R   0.863779 0.862956 0.404960 0.089522
C190  C     C_R   0.119637 0.120059 0.624090 0.085720
C191  C     C_R   0.135726 0.863538 0.404400 0.091873
C192  C     C_R   0.070000 0.137959 0.402203 -0.129992
C193  C     C_R   0.883353 0.114180 0.628483 0.084202
C194  C     C_R   0.118803 0.115984 0.373615 0.082515
C195  C     C_R   0.862232 0.863193 0.593826 0.093712
C196  C     C_R   0.363369 0.635943 0.905039 0.089236
C197  C     C_R   0.635890 0.363287 0.095538 0.089789
C198  C     C_R   0.365379 0.365598 0.899769 0.088727
C199  C     C_R   0.615219 0.613081 0.129929 0.083971
C200  C     C_R   0.637001 0.362871 0.906451 0.093805
C201  C     C_R   0.382290 0.615191 0.127120 0.083497
C202  C     C_R   0.609088 0.609652 0.865967 0.086461
C203  C     C_R   0.920053 0.851154 0.578660 -0.137289
C204  C     C_R   0.363109 0.362543 0.093423 0.093545
C205  C     C_R   0.735381 0.650962 0.297835 0.365670
C206  C     C_R   0.186492 0.258133 0.842438 0.369876
C207  C     C_R   0.342484 0.711568 0.310560 0.362343
C208  C     C_R   0.723398 0.188661 0.828823 0.365447
C209  C     C_R   0.188934 0.245570 0.150708 0.365634
C210  C     C_R   0.704971 0.654638 0.680698 0.375315
C211  C     C_R   0.725002 0.188159 0.171494 0.373500
C212  C     C_R   0.267444 0.809213 0.831676 0.350668
C213  C     C_R   0.185945 0.737970 0.839824 0.375833
C214  C     C_R   0.139358 0.070082 0.596516 -0.122896
C215  C     C_R   0.812496 0.247327 0.147422 0.402091
C216  C     C_R   0.652480 0.742935 0.712633 0.362134
C217  C     C_R   0.277969 0.187964 0.171070 0.360246
C218  C     C_R   0.812305 0.246374 0.850635 0.373959
C219  C     C_R   0.251826 0.659554 0.282320 0.374699
C220  C     C_R   0.267798 0.187524 0.831677 0.384201
C221  C     C_R   0.654346 0.721843 0.306426 0.370405
C222  C     C_R   0.231695 0.152148 0.797253 0.416328
C223  C     C_R   0.686581 0.753042 0.347733 0.362057
C224  C     C_R   0.845066 0.211562 0.812401 0.366177
H1    H     H_    0.827797 0.036095 0.387544 0.104633
H2    H     H_    0.807635 0.939680 0.424093 0.100765
H3    H     H_    0.961340 0.390502 0.254748 0.272981
H4    H     H_    0.029236 0.361598 0.284051 0.276300
H5    H     H_    0.959776 0.347836 0.320061 0.269051
H6    H     H_    0.758918 0.842755 0.729366 0.073008
H7    H     H_    0.688555 0.857938 0.763855 0.136461
H8    H     H_    0.747555 0.935376 0.671598 0.200190
H9    H     H_    0.679917 0.951646 0.709355 0.205712
H10   H     H_    0.735356 0.955956 0.801017 0.269132
H11   H     H_    0.767640 0.005657 0.749360 0.305156
H12   H     H_    0.803436 0.936474 0.764501 0.262881
H13   H     H_    0.035503 0.828340 0.612477 0.114609
H14   H     H_    0.278508 0.174319 0.317666 0.079367
H15   H     H_    0.344123 0.175116 0.272780 0.137129
H16   H     H_    0.302580 0.072059 0.348833 0.201941
H17   H     H_    0.367432 0.072236 0.303678 0.217591
H18   H     H_    0.409521 0.157232 0.358819 0.271518
H19   H     H_    0.393712 0.094739 0.404175 0.275054
H20   H     H_    0.344357 0.157367 0.404070 0.269786
H21   H     H_    0.981889 0.177689 0.797382 0.154773
H22   H     H_    0.919814 0.132357 0.815149 0.085542
H23   H     H_    0.975239 0.228591 0.892429 0.212930
H24   H     H_    0.954934 0.177199 0.391073 0.095415
H25   H     H_    0.914355 0.180825 0.911415 0.207106
H26   H     H_    0.978869 0.092465 0.901519 0.272038
H27   H     H_    0.011147 0.145074 0.950321 0.274021
H28   H     H_    0.040291 0.138807 0.879148 0.277876
H29   H     H_    0.100048 0.666935 0.391587 0.118620
H30   H     H_    0.175404 0.660853 0.413794 0.080745
H31   H     H_    0.110833 0.576674 0.329744 0.217122
H32   H     H_    0.186114 0.568583 0.354324 0.212810
H33   H     H_    0.149572 0.558377 0.454655 0.269949
H34   H     H_    0.117741 0.503191 0.408293 0.277848
H35   H     H_    0.807626 0.940976 0.575732 0.092539
H36   H     H_    0.073903 0.565929 0.429803 0.270623
H37   H     H_    0.229265 0.013346 0.764348 0.154561
H38   H     H_    0.170135 0.059547 0.786309 0.093127
H39   H     H_    0.276606 0.016625 0.857944 0.208338
H40   H     H_    0.224737 0.071422 0.882989 0.171197
H41   H     H_    0.141300 0.001702 0.874178 0.268120
H42   H     H_    0.199212 0.970106 0.917423 0.259154
H43   H     H_    0.189585 0.945865 0.844890 0.290956
H44   H     H_    0.655894 0.842792 0.449250 0.122945
H45   H     H_    0.691405 0.772696 0.451257 0.078738
H46   H     H_    0.174739 0.038170 0.390284 0.102386
H47   H     H_    0.558913 0.796538 0.425195 0.211218
H48   H     H_    0.592980 0.724583 0.424378 0.210405
H49   H     H_    0.620217 0.735418 0.527128 0.265813
H50   H     H_    0.541405 0.742971 0.516229 0.280783
H51   H     H_    0.586317 0.807896 0.528266 0.275285
H52   H     H_    0.322785 0.109537 0.898418 0.091019
H53   H     H_    0.321839 0.184775 0.924817 0.070096
H54   H     H_    0.427651 0.124816 0.865316 0.213438
H55   H     H_    0.426019 0.198937 0.893404 0.189270
H56   H     H_    0.406218 0.157574 0.991250 0.266066
H57   H     H_    0.953855 0.177715 0.608410 0.098333
H58   H     H_    0.474850 0.131065 0.961177 0.275702
H59   H     H_    0.410528 0.083529 0.961914 0.285428
H60   H     H_    0.623166 0.767020 0.210878 0.026463
H61   H     H_    0.627242 0.823145 0.265476 0.117498
H62   H     H_    0.542145 0.835293 0.197167 0.145826
H63   H     H_    0.512094 0.765616 0.220661 0.209187
H64   H     H_    0.502862 0.805675 0.319954 0.277337
H65   H     H_    0.463877 0.850908 0.269161 0.228455
H66   H     H_    0.534440 0.875252 0.296624 0.232072
H67   H     H_    0.818649 0.371867 0.857946 0.090660
H68   H     H_    0.056984 0.808739 0.421424 0.095960
H69   H     H_    0.860489 0.330561 0.806118 0.108590
H70   H     H_    0.907358 0.375024 0.921795 0.194670
H71   H     H_    0.948483 0.331589 0.871239 0.203242
H72   H     H_    0.935397 0.412039 0.797886 0.280616
H73   H     H_    0.974079 0.436922 0.860662 0.275410
H74   H     H_    0.897194 0.456016 0.850947 0.277640
H75   H     H_    0.228205 0.672319 0.177552 0.080751
H76   H     H_    0.159504 0.674954 0.217766 0.138359
H77   H     H_    0.204800 0.568108 0.149239 0.203262
H78   H     H_    0.135854 0.572322 0.188143 0.215598
H79   H     H_    0.308212 0.557462 0.921888 0.096320
H80   H     H_    0.102835 0.655687 0.125528 0.270926
H81   H     H_    0.120283 0.590318 0.084893 0.273554
H82   H     H_    0.172032 0.651294 0.086432 0.272175
H83   H     H_    0.521510 0.764395 0.762327 0.124686
H84   H     H_    0.547504 0.710246 0.713339 0.087734
H85   H     H_    0.540679 0.845539 0.691924 0.220259
H86   H     H_    0.566510 0.791818 0.641024 0.208595
H87   H     H_    0.467294 0.741553 0.643246 0.274102
H88   H     H_    0.462232 0.817891 0.621823 0.282018
H89   H     H_    0.440936 0.796695 0.693100 0.269427
H90   H     H_    0.692332 0.440081 0.076126 0.100750
H91   H     H_    0.393218 0.151378 0.099179 0.126052
H92   H     H_    0.318198 0.160272 0.076819 0.076299
H93   H     H_    0.363805 0.063929 0.160224 0.222370
H94   H     H_    0.289102 0.070066 0.133593 0.200889
H95   H     H_    0.326819 0.055536 0.033813 0.272368
H96   H     H_    0.343908 0.994177 0.079990 0.279029
H97   H     H_    0.401205 0.046651 0.061885 0.281605
H98   H     H_    0.219599 0.621055 0.848479 0.100263
H99   H     H_    0.176036 0.644362 0.788177 0.045825
H100  H     H_    0.129908 0.580436 0.895608 0.205140
H101  H     H_    0.442736 0.309526 0.918476 0.093905
H102  H     H_    0.084747 0.604419 0.836818 0.203331
H103  H     H_    0.142339 0.538955 0.770857 0.267380
H104  H     H_    0.109606 0.497731 0.828724 0.278377
H105  H     H_    0.187805 0.514883 0.830023 0.270423
H106  H     H_    0.847444 0.327012 0.037895 0.082568
H107  H     H_    0.792495 0.271639 0.042515 0.096668
H108  H     H_    0.900308 0.253175 0.994984 0.184225
H109  H     H_    0.923243 0.240111 0.066947 0.233997
H110  H     H_    0.847444 0.159118 0.075655 0.256969
H111  H     H_    0.893855 0.147238 0.014471 0.261346
H112  H     H_    0.176930 0.955150 0.609333 0.091120
H113  H     H_    0.545468 0.676813 0.109423 0.090657
H114  H     H_    0.820264 0.175832 0.004930 0.255680
H115  H     H_    0.639559 0.243986 0.213537 0.078027
H116  H     H_    0.638440 0.171073 0.245817 0.140674
H117  H     H_    0.557066 0.213630 0.148795 0.199190
H118  H     H_    0.555443 0.141570 0.181569 0.207002
H119  H     H_    0.530765 0.188044 0.275577 0.268395
H120  H     H_    0.477152 0.206556 0.221511 0.287605
H121  H     H_    0.532196 0.260391 0.242397 0.268763
H122  H     H_    0.303490 0.848437 0.929145 0.093833
H123  H     H_    0.292017 0.906703 0.877075 0.134083
H124  H     H_    0.692628 0.440338 0.925020 0.096501
H125  H     H_    0.412606 0.857116 0.915016 0.200434
H126  H     H_    0.401447 0.913124 0.861443 0.209106
H127  H     H_    0.353337 0.978723 0.933921 0.267138
H128  H     H_    0.427327 0.958039 0.954902 0.279887
H129  H     H_    0.364263 0.922496 0.987782 0.273436
H130  H     H_    0.199715 0.358402 0.164681 0.080764
H131  H     H_    0.130436 0.330701 0.193858 0.132734
H132  H     H_    0.144688 0.397230 0.080277 0.198260
H133  H     H_    0.076091 0.369528 0.109802 0.207239
H134  H     H_    0.088417 0.434865 0.194653 0.276632
H135  H     H_    0.326008 0.537189 0.110557 0.102087
H136  H     H_    0.089700 0.477087 0.129463 0.278822
H137  H     H_    0.158181 0.461905 0.166333 0.267775
H138  H     H_    0.756661 0.599161 0.759288 0.075600
H139  H     H_    0.802696 0.595252 0.695911 0.134376
H140  H     H_    0.721392 0.495747 0.740826 0.204190
H141  H     H_    0.769250 0.491869 0.679403 0.206216
H142  H     H_    0.857839 0.508903 0.742266 0.281357
H143  H     H_    0.815950 0.444403 0.763287 0.272774
H144  H     H_    0.809239 0.511852 0.803689 0.268704
H145  H     H_    0.479607 0.678101 0.297992 0.155883
H146  H     H_    0.534588 0.669344 0.885108 0.103688
H147  H     H_    0.417398 0.632960 0.315926 0.079816
H148  H     H_    0.472781 0.730666 0.391859 0.212413
H149  H     H_    0.410766 0.684527 0.411305 0.203324
H150  H     H_    0.474057 0.594594 0.403200 0.269302
H151  H     H_    0.505358 0.647206 0.452551 0.278936
H152  H     H_    0.536621 0.640002 0.382145 0.276193
H153  H     H_    0.606247 0.160009 0.900934 0.121132
H154  H     H_    0.681516 0.166516 0.923222 0.081277
H155  H     H_    0.629640 0.066705 0.847259 0.222099
H156  H     H_    0.705364 0.071377 0.871439 0.206636
H157  H     H_    0.441892 0.308263 0.076757 0.097499
H158  H     H_    0.670859 0.065767 0.972727 0.272930
H159  H     H_    0.646859 0.002622 0.931758 0.276166
H160  H     H_    0.594759 0.060486 0.948442 0.270569
H161  H     H_    0.723991 0.518031 0.264446 0.115057
H162  H     H_    0.693491 0.557438 0.323409 0.078799
H163  H     H_    0.821926 0.510548 0.312354 0.206701
H164  H     H_    0.794633 0.552961 0.371619 0.224313
H165  H     H_    0.718602 0.475083 0.392047 0.273653
H166  H     H_    0.792756 0.445365 0.392812 0.277145
H167  H     H_    0.745429 0.432207 0.332201 0.267615
H168  H     H_    0.671773 0.535810 0.112711 0.105697
H169  H     H_    0.153688 0.349926 0.941249 0.125187
H170  H     H_    0.184257 0.277454 0.945571 0.078076
H171  H     H_    0.056834 0.307408 0.904970 0.214808
H172  H     H_    0.086997 0.234309 0.914490 0.215238
H173  H     H_    0.102052 0.255777 0.018522 0.294919
H174  H     H_    0.025376 0.261230 0.997153 0.265875
H175  H     H_    0.068391 0.327591 0.008441 0.270088
H176  H     H_    0.309179 0.442786 0.918445 0.099303
H177  H     H_    0.557101 0.308641 0.078382 0.094094
H178  H     H_    0.440472 0.692005 0.924010 0.100631
H179  H     H_    0.307364 0.439639 0.074915 0.096809
H180  H     H_    0.942381 0.808545 0.422027 0.094360
H181  H     H_    0.668808 0.534607 0.883931 0.103532
H182  H     H_    0.452420 0.679088 0.106570 0.093706
H183  H     H_    0.558076 0.308214 0.923246 0.095496
H184  H     H_    0.862733 0.732204 0.295711 0.079462
H185  H     H_    0.859891 0.657443 0.267728 0.139079
H186  H     H_    0.937450 0.699945 0.367795 0.199440
H187  H     H_    0.935368 0.626096 0.339017 0.207834
H188  H     H_    0.970543 0.664921 0.244685 0.269040
H189  H     H_    0.021571 0.682488 0.301360 0.288116
H190  H     H_    0.972985 0.738985 0.274030 0.269624
H191  H     H_    0.046834 0.180201 0.604567 0.095189
H192  H     H_    0.115649 0.274263 0.712030 0.085330
H193  H     H_    0.113502 0.327782 0.769553 0.150926
H194  H     H_    0.006711 0.260582 0.719148 0.207756
H195  H     H_    0.003662 0.311077 0.778395 0.226698
H196  H     H_    0.041550 0.392804 0.716282 0.274645
H197  H     H_    0.974471 0.360420 0.688232 0.277984
H198  H     H_    0.045064 0.342141 0.656599 0.269678
H199  H     H_    0.296388 0.860402 0.337981 0.083868
H200  H     H_    0.364210 0.833865 0.305601 0.120295
H201  H     H_    0.354949 0.896415 0.421724 0.205165
H202  H     H_    0.192282 0.940324 0.423417 0.099308
H203  H     H_    0.422225 0.870996 0.388239 0.205152
H204  H     H_    0.404464 0.939612 0.306204 0.271461
H205  H     H_    0.407047 0.978912 0.372957 0.282054
H206  H     H_    0.336485 0.964422 0.339453 0.269504
H207  H     H_    0.726607 0.169404 0.684321 0.077932
H208  H     H_    0.657755 0.165010 0.724262 0.139534
H209  H     H_    0.714206 0.063463 0.655668 0.200128
H210  H     H_    0.644750 0.060505 0.693720 0.208095
H211  H     H_    0.604333 0.140670 0.631036 0.272782
H212  H     H_    0.628589 0.077487 0.590429 0.274800
H213  H     H_    0.826670 0.036681 0.611385 0.099932
H214  H     H_    0.674103 0.143181 0.592706 0.268506
H215  H     H_    0.020689 0.174262 0.205428 0.150271
H216  H     H_    0.083194 0.130421 0.186971 0.083219
H217  H     H_    0.026061 0.226200 0.110458 0.222696
H218  H     H_    0.087113 0.178900 0.090948 0.194055
H219  H     H_    0.021855 0.089700 0.104517 0.265995
H220  H     H_    0.993454 0.140034 0.051830 0.270865
H221  H     H_    0.960356 0.137956 0.121762 0.295251
H222  H     H_    0.800875 0.664504 0.521704 0.134897
H223  H     H_    0.739510 0.710794 0.538145 0.076004
H224  H     H_    0.048253 0.179269 0.393563 0.098005
H225  H     H_    0.739669 0.573788 0.541580 0.220484
H226  H     H_    0.676582 0.620056 0.556621 0.201513
H227  H     H_    0.680334 0.660705 0.457756 0.265787
H228  H     H_    0.673786 0.581261 0.457295 0.276257
H229  H     H_    0.744425 0.615571 0.442447 0.282167
H230  H     H_    0.748329 0.019392 0.249853 0.124044
H231  H     H_    0.800307 0.053177 0.202687 0.081272
H232  H     H_    0.666250 0.034161 0.178353 0.218982
H233  H     H_    0.719568 0.064912 0.129237 0.208386
H234  H     H_    0.776699 0.970140 0.131032 0.273076
H235  H     H_    0.939667 0.807707 0.575415 0.101449
H236  H     H_    0.700990 0.959134 0.108455 0.278461
H237  H     H_    0.722641 0.938945 0.179753 0.267225
H238  H     H_    0.275498 0.846316 0.692168 0.078842
H239  H     H_    0.338076 0.856664 0.739876 0.140147
H240  H     H_    0.273298 0.954104 0.672722 0.192932
H241  H     H_    0.334261 0.965810 0.721050 0.219313
H242  H     H_    0.399724 0.903510 0.660536 0.276048
H243  H     H_    0.367742 0.962870 0.619703 0.278387
H244  H     H_    0.338615 0.888869 0.612401 0.269558
H245  H     H_    0.083818 0.677452 0.757579 0.107591
H246  H     H_    0.180371 0.047560 0.604908 0.098681
H247  H     H_    0.119208 0.731618 0.712391 0.059471
H248  H     H_    0.988274 0.729662 0.750642 0.206837
H249  H     H_    0.022224 0.787660 0.709365 0.199714
H250  H     H_    0.047094 0.714583 0.632659 0.265703
H251  H     H_    0.968571 0.716392 0.647351 0.277207
H252  H     H_    0.012889 0.656280 0.674320 0.276391
H253  H     H_    0.887054 0.272454 0.275769 0.080121
H254  H     H_    0.886587 0.319939 0.213474 0.143034
H255  H     H_    0.995143 0.258868 0.266553 0.207105
H256  H     H_    0.996198 0.301353 0.201477 0.227371
N1    N     N_R   0.900580 0.056480 0.443850 -0.044106
N2    N     N_R   0.900580 0.943520 0.443850 -0.041628
N3    N     N_R   0.056480 0.900580 0.556150 -0.041375
N4    N     N_R   0.943520 0.099420 0.443850 -0.041708
N5    N     N_R   0.900580 0.943520 0.556150 -0.039871
N6    N     N_R   0.099420 0.056480 0.443850 -0.043489
N7    N     N_R   0.943520 0.099420 0.556150 -0.042263
N8    N     N_R   0.056480 0.900580 0.443850 -0.043728
N9    N     N_R   0.400580 0.556480 0.943850 -0.039976
N10   N     N_R   0.599420 0.443520 0.056150 -0.040884
N11   N     N_R   0.443520 0.400580 0.943850 -0.042845
N12   N     N_R   0.099420 0.943520 0.556150 -0.041577
N13   N     N_R   0.556480 0.599420 0.056150 -0.041510
N14   N     N_R   0.599420 0.443520 0.943850 -0.039670
N15   N     N_R   0.400580 0.556480 0.056150 -0.042675
N16   N     N_R   0.556480 0.599420 0.943850 -0.044694
N17   N     N_R   0.443520 0.400580 0.056150 -0.043517
N18   N     N_R   0.599420 0.556480 0.056150 -0.043813
N19   N     N_R   0.400580 0.443520 0.943850 -0.042113
N20   N     N_R   0.556480 0.400580 0.056150 -0.042036
N21   N     N_R   0.443520 0.599420 0.943850 -0.043062
N22   N     N_R   0.400580 0.443520 0.056150 -0.041010
N23   N     N_R   0.943520 0.900580 0.443850 -0.041497
N24   N     N_R   0.599420 0.556480 0.943850 -0.042948
N25   N     N_R   0.443520 0.599420 0.056150 -0.040830
N26   N     N_R   0.556480 0.400580 0.943850 -0.042656
N27   N     N_R   0.056480 0.099420 0.556150 -0.040983
N28   N     N_R   0.099420 0.943520 0.443850 -0.041844
N29   N     N_R   0.900580 0.056480 0.556150 -0.043535
N30   N     N_R   0.056480 0.099420 0.443850 -0.041874
N31   N     N_R   0.943520 0.900580 0.556150 -0.040177
N32   N     N_R   0.099420 0.056480 0.556150 -0.042619
Ni1   Ni    Ni4+2 0.901480 0.000000 0.500000 0.211786
Ni2   Ni    Ni4+2 0.098520 0.000000 0.500000 0.214999
Ni3   Ni    Ni4+2 0.000000 0.901480 0.500000 0.208295
Ni4   Ni    Ni4+2 0.000000 0.098520 0.500000 0.216070
Ni5   Ni    Ni4+2 0.401480 0.500000 0.000000 0.209968
Ni6   Ni    Ni4+2 0.598520 0.500000 0.000000 0.211236
Ni7   Ni    Ni4+2 0.500000 0.401480 0.000000 0.206730
Ni8   Ni    Ni4+2 0.500000 0.598520 0.000000 0.213014
O1    O     O_3   0.826505 0.667778 0.349684 -0.648995
O2    O     O_3   0.904183 0.230665 0.198418 -0.639596
O3    O     O_3   0.682759 0.838761 0.677709 -0.638650
O4    O     O_3   0.276828 0.117146 0.247862 -0.640094
O5    O     O_3   0.904554 0.224229 0.803554 -0.659158
O6    O     O_3   0.159087 0.682415 0.327172 -0.649455
O7    O     O_3   0.254563 0.099700 0.775894 -0.620569
O8    O     O_3   0.662519 0.804116 0.370717 -0.640850
O9    O     O_3   0.327471 0.173956 0.835949 -0.607248
O10   O     O_3   0.597641 0.739612 0.292056 -0.620317
O11   O     O_3   0.840344 0.287892 0.884608 -0.655597
O12   O     O_3   0.094287 0.240653 0.792232 -0.653152
O13   O     O_3   0.223811 0.617392 0.249049 -0.640893
O14   O     O_3   0.610710 0.770116 0.747009 -0.644483
O15   O     O_3   0.337901 0.177332 0.163294 -0.647330
O16   O     O_3   0.160672 0.688983 0.865823 -0.614953
O17   O     O_3   0.839817 0.293123 0.117959 -0.649138
O18   O     O_3   0.666189 0.173782 0.161374 -0.640985
O19   O     O_3   0.324481 0.826650 0.845623 -0.648326
O20   O     O_3   0.160770 0.289240 0.119681 -0.645603
O21   O     O_3   0.711571 0.593879 0.681698 -0.634331
O22   O     O_3   0.402021 0.724454 0.302341 -0.648449
O23   O     O_3   0.336868 0.790153 0.379748 -0.636447
O24   O     O_3   0.663225 0.178005 0.835363 -0.643325
O25   O     O_3   0.759589 0.600981 0.273219 -0.649665
O26   O     O_3   0.164658 0.310976 0.863454 -0.649833
O27   O     O_3   0.726836 0.113967 0.755803 -0.648710
O28   O     O_3   0.097357 0.222549 0.198711 -0.659937
O29   O     O_3   0.777893 0.661930 0.605988 -0.643115
O30   O     O_3   0.732955 0.107494 0.237601 -0.646576
O31   O     O_3   0.258242 0.892292 0.767690 -0.654992
O32   O     O_3   0.092292 0.759698 0.794750 -0.613958

loop_
_geom_bond_atom_site_label_1
_geom_bond_atom_site_label_2
_ccdc_geom_bond_type
C126  C127  S    
C184  C204  S    
C42   H201  S    
C14   C208  A    
C108  H100  S    
C124  N14   A    
C121  H131  S    
C55   C56   S    
C76   H26   S    
C64   H254  S    
C211  O18   S    
C39   H194  S    
C112  H112  S    
C40   H197  S    
C47   H212  S    
C29   C208  A    
C181  N29   A    
C54   O30   S    
C133  H160  S    
C141  N16   A    
C27   C162  S    
C53   H227  S    
C195  C203  A    
C63   H251  S    
C23   C158  S    
C108  C109  S    
C1    N1    A    
C110  C111  S    
C143  H168  S    
C100  O14   S    
C32   C215  A    
C57   H57   S    
C119  H126  S    
C5    C217  A    
C131  H153  S    
N8    Ni3   S    
C66   H3    S    
C145  H177  S    
C8    C211  A    
C106  H96   S    
C38   H192  S    
C59   C60   S    
C138  O26   S    
N13   Ni8   S    
C183  C202  S    
C115  H115  S    
C120  H129  S    
N2    Ni1   S    
C175  C195  S    
C104  C105  S    
C120  H127  S    
C45   C47   S    
C205  O25   S    
C60   H243  S    
C89   H59   S    
C166  C183  T    
C170  N28   A    
N17   N22   A    
C83   H41   S    
C49   H217  S    
C114  H111  S    
C132  H156  S    
C42   H203  S    
C69   H8    S    
C74   H21   S    
C33   C213  A    
C110  H107  S    
C13   H13   S    
C125  H138  S    
C89   H56   S    
C118  H122  S    
C75   C76   S    
C86   H49   S    
N27   Ni4   S    
C71   H15   S    
N30   Ni4   S    
C12   C20   A    
C207  O22   S    
C113  C199  A    
N20   Ni7   S    
C127  H143  S    
C18   C223  A    
N22   Ni5   S    
C22   C157  S    
C174  C194  S    
C12   O23   S    
C108  H102  S    
C104  H92   S    
C43   H206  S    
C91   H61   S    
C33   C168  S    
C127  H144  S    
C76   H28   S    
C41   H200  S    
C91   C92   S    
C3    O6    S    
C2    H2    S    
C137  H166  S    
C32   C211  A    
C130  H152  S    
C14   C19   A    
C38   H193  S    
C19   C224  A    
C72   C73   S    
N6    N30   A    
C101  N11   A    
C93   H64   S    
N23   Ni3   S    
C139  C140  S    
C31   C216  A    
C121  O20   S    
C26   C161  S    
C45   H209  S    
C122  H132  S    
C86   H51   S    
C107  H99   S    
C41   O23   S    
C46   N6    A    
C6    C213  A    
C103  H87   S    
C50   H219  S    
C104  O15   S    
C99   H81   S    
C96   H73   S    
C69   C70   S    
C98   H78   S    
C88   H55   S    
C84   O8    S    
C59   H241  S    
N10   Ni6   S    
C52   H226  S    
C88   C89   S    
C79   N9    A    
C98   C99   S    
N16   N24   A    
C122  H133  S    
N15   Ni5   S    
C80   H33   S    
C150  C201  A    
C112  N12   A    
C145  N20   A    
C142  C204  A    
C35   N5    A    
N5    Ni1   S    
C63   H252  S    
C136  H164  S    
C7    O2    S    
C156  C175  T    
C81   H37   S    
C4    C216  A    
C138  H169  S    
C182  C201  S    
C55   H232  S    
C169  C189  S    
C128  C129  S    
C109  H105  S    
C97   C98   S    
C113  H113  S    
N2    N23   A    
C135  C201  A    
C85   C86   S    
C2    N2    A    
C89   H58   S    
C218  O11   S    
C177  C188  S    
C61   H245  S    
C84   H45   S    
C24   C187  A    
C78   H31   S    
C85   H48   S    
C36   C37   S    
C38   C39   S    
C78   C80   S    
C39   H195  S    
C115  C116  S    
C102  H86   S    
C65   H255  S    
C116  H118  S    
C49   H218  S    
C69   H9    S    
C109  H104  S    
C16   O12   S    
C10   C209  A    
C220  O9    S    
C126  H141  S    
C73   H18   S    
C15   O1    S    
C70   H12   S    
C48   H215  S    
C107  C108  S    
C134  O25   S    
C186  C197  S    
C181  H213  S    
C161  C179  T    
C26   C205  A    
N3    Ni3   S    
C157  C174  T    
C70   H11   S    
C130  H150  S    
C46   H46   S    
C58   O31   S    
C159  C190  A    
C97   H76   S    
C8    O30   S    
C58   H239  S    
C92   H63   S    
N7    N29   A    
C100  C102  S    
N5    N31   A    
C46   C194  A    
C1    C187  A    
C147  H179  S    
C123  H134  S    
C95   H70   S    
C77   H29   S    
C141  C202  A    
C39   C40   S    
C210  O21   S    
C77   O6    S    
C9    C23   A    
C68   C191  A    
C24   N4    A    
C60   H242  S    
C170  C191  A    
C11   C21   A    
C171  C190  S    
C146  H178  S    
C111  H108  S    
C192  C194  A    
C59   H240  S    
C71   O4    S    
C180  C200  S    
C44   O27   S    
C141  H146  S    
C44   H207  S    
C135  H135  S    
C209  O20   S    
N11   N19   A    
N8    N28   A    
C63   H250  S    
C29   C218  A    
C82   H40   S    
C57   N7    A    
C6    O32   S    
C56   H234  S    
C144  N19   A    
C81   O7    S    
C52   C53   S    
C90   N10   A    
C127  H142  S    
N9    Ni5   S    
C129  C130  S    
C19   C154  S    
C54   C55   S    
N11   Ni7   S    
C12   C207  A    
C94   H67   S    
C121  H130  S    
C30   C165  S    
C136  C137  S    
C164  C180  T    
C117  H120  S    
C124  H124  S    
C40   H196  S    
C40   H198  S    
C103  H89   S    
C133  H159  S    
C113  N13   A    
C71   C72   S    
C123  H137  S    
N27   N32   A    
C73   H20   S    
C115  H116  S    
C47   H214  S    
C107  O16   S    
C144  H176  S    
C74   O5    S    
C34   C36   S    
C102  C103  S    
C125  O21   S    
N26   Ni7   S    
C162  C178  T    
C24   H24   S    
C67   H7    S    
N29   Ni1   S    
C27   C220  A    
C140  H173  S    
C49   C50   S    
C66   H4    S    
C170  H202  S    
N21   Ni8   S    
C88   H54   S    
C149  C202  A    
C99   H80   S    
C28   C163  S    
C37   H190  S    
C87   C88   S    
C148  H180  S    
C20   C155  S    
C149  H181  S    
C15   C18   A    
C41   C42   S    
C30   C209  A    
N28   Ni2   S    
C120  H128  S    
C90   C197  A    
C77   C78   S    
C10   C22   A    
C60   H244  S    
C66   H5    S    
C51   H222  S    
C134  H161  S    
C192  N30   A    
C11   C210  A    
C74   H22   S    
C33   C212  A    
C9    C212  A    
N1    N4    A    
C84   H44   S    
C150  N25   A    
C34   H185  S    
C118  H123  S    
C90   H90   S    
C100  H83   S    
C62   H248  S    
C155  C172  T    
C91   O10   S    
N6    Ni2   S    
C16   C17   A    
N32   Ni2   S    
C47   H211  S    
C139  H172  S    
C56   H236  S    
C142  N17   A    
C181  C193  A    
C54   H230  S    
C35   C195  A    
C53   H229  S    
C223  O8    S    
C64   O2    S    
N14   N26   A    
C8    C25   A    
C43   H205  S    
C29   C164  S    
C38   O12   S    
C71   H14   S    
N16   Ni8   S    
C41   H199  S    
C135  N15   A    
C64   H253  S    
C131  H154  S    
N31   Ni3   S    
C221  O10   S    
C84   C85   S    
C92   H62   S    
C14   O27   S    
C219  O13   S    
C53   H228  S    
C151  H183  S    
C87   O9    S    
C58   C59   S    
C167  C186  T    
C51   C52   S    
C36   H187  S    
C95   H71   S    
C117  H121  S    
C62   C63   S    
N3    N12   A    
C140  H175  S    
C217  O15   S    
C50   H220  S    
C25   C160  S    
C215  O17   S    
N18   Ni6   S    
C3    C20   A    
C96   H74   S    
C121  C122  S    
C15   C205  A    
C106  H95   S    
C93   H66   S    
C48   C49   S    
C28   C219  A    
C68   H68   S    
C173  C193  S    
C125  C126  S    
C212  O19   S    
C17   C152  S    
C80   H34   S    
C42   C43   S    
C185  C196  S    
C131  C132  S    
C79   H79   S    
C75   H23   S    
C44   C45   S    
C94   H69   S    
C176  C187  S    
N4    Ni4   S    
C1    H1    S    
C50   H221  S    
C216  O14   S    
C138  H170  S    
N13   N18   A    
C165  C184  T    
C83   H42   S    
C159  H191  S    
C56   H237  S    
C114  H110  S    
C132  H155  S    
C137  H165  S    
C119  C120  S    
C150  H182  S    
C218  C224  A    
C125  H139  S    
C105  C106  S    
C124  C200  A    
N12   Ni2   S    
C7    C25   A    
C93   H65   S    
C27   C206  A    
C78   H32   S    
C64   C65   S    
C85   H47   S    
C213  O16   S    
N1    Ni1   S    
N9    N21   A    
C31   C210  A    
C179  C199  S    
C92   C93   S    
C111  C114  S    
C203  N31   A    
C115  O18   S    
C94   C95   S    
C109  H103  S    
C138  C139  S    
C214  N32   A    
C3    C219  A    
C82   C83   S    
C32   C167  S    
C153  C169  T    
C48   H216  S    
C28   C207  A    
C34   H184  S    
C129  H149  S    
C75   H25   S    
C76   H27   S    
C148  N23   A    
C7    C215  A    
C123  H136  S    
N10   N20   A    
C130  H151  S    
C48   O28   S    
C67   O3    S    
C111  H109  S    
C95   C96   S    
C97   H75   S    
C2    C189  A    
C110  H106  S    
C61   O32   S    
C114  H114  S    
C220  C222  A    
C81   C82   S    
C143  N18   A    
C128  H145  S    
C45   H210  S    
C222  O7    S    
C86   H50   S    
C147  C204  A    
C192  H224  S    
C158  C177  T    
C149  N24   A    
C16   C206  A    
C70   H10   S    
C103  H88   S    
C9    O31   S    
C51   H223  S    
C116  C117  S    
C99   H82   S    
C87   H53   S    
C11   O29   S    
C98   H77   S    
C203  H235  S    
C118  C119  S    
C17   C222  A    
C52   H225  S    
C44   H208  S    
C67   H6    S    
C132  C133  S    
C13   N3    A    
C72   H16   S    
C80   H36   S    
C151  C200  A    
C136  H163  S    
C178  C198  S    
C159  N27   A    
C118  O19   S    
C13   C188  A    
C104  H91   S    
C163  C182  T    
C160  C176  T    
C61   C62   S    
C142  H157  S    
C137  H167  S    
N24   Ni6   S    
C172  C191  S    
C101  H101  S    
C51   O29   S    
C74   C75   S    
C5    C22   A    
C35   H35   S    
C5    O4    S    
C117  H119  S    
C152  C171  T    
C101  C198  A    
C134  C136  S    
N15   N25   A    
C61   H247  S    
C102  H85   S    
C65   H256  S    
C79   C196  A    
C68   N8    A    
C57   C193  A    
C116  H117  S    
C67   C69   S    
C133  H158  S    
C96   H72   S    
C145  C197  A    
C129  H148  S    
C126  H140  S    
C34   O1    S    
C73   H19   S    
C31   C166  S    
C119  H125  S    
C43   H204  S    
C26   C221  A    
C214  H246  S    
C36   H186  S    
C91   H60   S    
C110  O17   S    
C4    O3    S    
C190  C214  A    
C146  N21   A    
C18   C153  S    
C30   C217  A    
C140  H174  S    
C206  O26   S    
C131  O24   S    
C208  O24   S    
C87   H52   S    
C58   H238  S    
C146  C196  A    
C55   H233  S    
C105  H93   S    
C94   O11   S    
C37   H189  S    
C148  C189  A    
C128  H147  S    
C97   O13   S    
C168  C185  T    
C154  C173  T    
C224  O5    S    
C72   H17   S    
C107  H98   S    
C77   H30   S    
C147  N22   A    
C112  C188  A    
C106  H97   S    
C143  C199  A    
N7    Ni4   S    
C134  H162  S    
C83   H43   S    
C221  C223  A    
C4    C21   A    
C37   H188  S    
C6    C23   A    
C105  H94   S    
C21   C156  S    
C151  N26   A    
N25   Ni8   S    
N14   Ni6   S    
C128  O22   S    
C100  H84   S    
C62   H249  S    
C81   H38   S    
C144  C198  A    
C65   C66   S    
N17   Ni7   S    
C82   H39   S    
C139  H171  S    
C10   O28   S    
N19   Ni5   S    
C122  C123  S    
C54   H231  S    
