data_mof_unit_53508.cif
_audit_creation_date              2012-12-10T17:30:16-0500
_audit_creation_method            fapswitch 2.2
_symmetry_space_group_name_H-M    P1
_symmetry_Int_Tables_number       1
_space_group_crystal_system       triclinic
_cell_length_a                    11.973343
_cell_length_b                    12.810695
_cell_length_c                    15.004602
_cell_angle_alpha                 89.426295
_cell_angle_beta                  86.138132
_cell_angle_gamma                 94.544629
_cell_volume                      2288.79026818

loop_
_atom_site_label
_atom_site_type_symbol
_atom_type_description
_atom_site_fract_x
_atom_site_fract_y
_atom_site_fract_z
_atom_type_partial_charge
C1    C     C_R   0.523370 0.700594 0.495440 0.979928
C2    C     C_R   0.377314 0.139825 0.458051 -0.283408
C3    C     C_R   0.469092 0.872418 0.447632 0.390074
C4    C     C_R   0.530858 0.128538 0.555799 0.307429
C5    C     C_R   0.460669 0.976498 0.473073 -0.009606
C6    C     C_R   0.537902 0.023518 0.532135 -0.009078
C7    C     C_R   0.953484 0.403986 0.416105 -0.322043
C8    C     C_R   0.046486 0.595870 0.584003 -0.313271
C9    C     C_R   0.837306 0.413046 0.424110 0.058045
C10   C     C_R   0.162673 0.586865 0.575959 0.072491
C11   C     C_R   0.858804 0.541032 0.536214 -0.009176
C12   C     C_R   0.476630 0.299505 0.505012 0.955280
C13   C     C_R   0.141187 0.458912 0.463827 -0.022730
C14   C     C_R   0.976098 0.534708 0.530530 0.090448
C15   C     C_R   0.023882 0.465181 0.469550 0.094386
C16   C     C_R   0.500313 0.501011 0.673410 0.937602
C17   C     C_R   0.499424 0.497253 0.326676 0.952523
C18   C     C_R   0.397240 0.497550 0.190435 -0.258284
C19   C     C_R   0.601346 0.492842 0.809811 -0.184524
C20   C     C_R   0.498745 0.493520 0.230831 -0.075840
C21   C     C_R   0.500275 0.499828 0.769374 -0.053628
C22   C     C_R   0.599986 0.487104 0.179657 -0.234239
C23   C     C_R   0.702334 0.483388 0.943115 -0.185203
C24   C     C_R   0.398718 0.504115 0.820583 -0.240242
C25   C     C_R   0.600823 0.486793 0.087467 0.116625
C26   C     C_R   0.397436 0.501401 0.912797 0.118229
C27   C     C_R   0.498857 0.492722 0.046507 0.068723
C28   C     C_R   0.499268 0.494557 0.953760 0.063703
C29   C     C_R   0.396609 0.497646 0.098274 0.115093
C30   C     C_R   0.601594 0.490158 0.901991 0.107159
C31   C     C_R   0.701959 0.481758 0.035732 -0.198918
C32   C     C_R   0.296176 0.505599 0.964536 -0.196512
C33   C     C_R   0.295757 0.503673 0.057155 -0.193672
C34   C     C_R   0.458913 0.187565 0.509386 -0.145534
C35   C     C_R   0.540824 0.812661 0.493303 -0.159292
C36   C     C_R   0.621953 0.965108 0.563373 -0.133291
C37   C     C_R   0.375609 0.034081 0.442658 -0.097244
C38   C     C_R   0.620638 0.859483 0.546788 -0.281566
H1    H     H_    0.318945 0.502026 0.230488 0.174447
H2    H     H_    0.216953 0.507433 0.096553 0.152883
H3    H     H_    0.317889 0.185256 0.426441 0.173534
H4    H     H_    0.679438 0.813474 0.578543 0.173553
H5    H     H_    0.688043 0.998984 0.602055 0.199312
H6    H     H_    0.308881 0.999268 0.404981 0.216272
H7    H     H_    0.179635 0.405958 0.417427 0.115620
H8    H     H_    0.820359 0.593994 0.582606 0.112201
H9    H     H_    0.217071 0.633910 0.617218 0.128544
H10   H     H_    0.782897 0.365961 0.382889 0.126043
H11   H     H_    0.759020 0.185338 0.564862 0.325448
H12   H     H_    0.679788 0.489314 0.769753 0.172246
H13   H     H_    0.447446 0.715621 0.247251 0.384438
H14   H     H_    0.987822 0.349816 0.368641 0.147265
H15   H     H_    0.012136 0.649993 0.631505 0.147323
H16   H     H_    0.678412 0.483400 0.211325 0.162624
H17   H     H_    0.320517 0.509336 0.788895 0.162659
H18   H     H_    0.780542 0.477080 0.066866 0.149828
H19   H     H_    0.217655 0.510693 0.933400 0.150021
H20   H     H_    0.781167 0.479809 0.903716 0.153873
N1    N     N_R   0.207800 0.519350 0.516680 -0.100052
N2    N     N_R   0.792200 0.480650 0.483320 -0.094835
O1    O     O_R   0.421700 0.658830 0.504450 -0.584177
O2    O     O_2   0.612640 0.104734 0.719113 -0.281188
O3    O     O_3   0.732110 0.235089 0.609993 -0.514825
O4    O     O_2   0.285272 0.774001 0.382991 -0.294693
O5    O     O_2   0.394464 0.903382 0.283632 -0.314027
O6    O     O_3   0.475770 0.725712 0.307329 -0.574976
O7    O     O_R   0.578300 0.341170 0.495550 -0.588611
O8    O     O_R   0.609310 0.646410 0.493750 -0.634902
O9    O     O_R   0.390690 0.353590 0.506250 -0.636239
O10   O     O_R   0.406180 0.506230 0.637500 -0.646806
O11   O     O_R   0.593820 0.493770 0.362500 -0.640017
O12   O     O_R   0.593800 0.493820 0.626800 -0.601617
O13   O     O_R   0.406200 0.506180 0.373200 -0.604864
O14   O     O_2   0.538888 0.271086 0.686757 -0.284076
S1    S     S_3+6 0.602934 0.184890 0.646766 0.036824
S2    S     S_3+6 0.401567 0.819576 0.353495 0.012346
Zn1   Zn    Zn3+2 0.374730 0.508290 0.507150 0.997449
Zn2   Zn    Zn3+2 0.625270 0.491710 0.492850 1.000716

loop_
_geom_bond_atom_site_label_1
_geom_bond_atom_site_label_2
_ccdc_geom_bond_type
C25   C31   A    
C23   H20   S    
C12   O9    A    
C26   C32   A    
C16   C21   S    
H11   O3    S    
C5    C37   A    
C27   C29   A    
O9    Zn1   S    
C16   O12   A    
N1    Zn1   S    
C22   H16   S    
C24   H17   S    
N2    Zn2   S    
O5    S2    D    
C19   C21   A    
C24   C26   A    
C7    H14   S    
C38   H4    S    
C5    C6    A    
C11   C14   A    
C2    H3    S    
C29   C33   A    
C1    O8    A    
C4    S1    S    
O12   Zn2   S    
O1    Zn1   S    
C22   C25   A    
C31   H18   S    
C2    C34   A    
C7    C15   A    
O10   Zn1   S    
C17   O13   A    
O7    Zn2   S    
C32   H19   S    
O8    Zn2   S    
C12   O7    A    
C4    C34   A    
C33   H2    S    
O14   S1    D    
C23   C30   A    
C35   C38   A    
C16   O10   A    
C4    C6    A    
H13   O6    S    
C23   C31   A    
C18   H1    S    
C3    C35   A    
O6    S2    S    
O4    S2    D    
C18   C29   A    
C3    S2    S    
C20   C22   A    
C17   O11   A    
C13   C15   A    
O2    S1    D    
C12   C34   S    
C11   N2    A    
C19   H12   S    
C10   H9    S    
C1    C35   S    
C7    C9    A    
C8    C14   A    
C17   C20   S    
C3    C5    A    
C1    O1    A    
C8    H15   S    
C13   N1    A    
C25   C27   A    
C26   C28   A    
C9    N2    A    
C32   C33   A    
C37   H6    S    
C28   C30   A    
C10   N1    A    
C13   H7    S    
C2    C37   A    
O3    S1    S    
C36   C38   A    
C6    C36   A    
C18   C20   A    
C36   H5    S    
C9    H10   S    
C8    C10   A    
C21   C24   A    
C27   C28   A    
O13   Zn1   S    
C14   C15   A    
C11   H8    S    
C19   C30   A    
O11   Zn2   S    
