data_mof_unit_27597.cif
_audit_creation_date              2012-12-11T17:08:35-0500
_audit_creation_method            fapswitch 2.2
_symmetry_space_group_name_H-M    P1
_symmetry_Int_Tables_number       1
_space_group_crystal_system       triclinic
_cell_length_a                    6.965153
_cell_length_b                    14.558759
_cell_length_c                    16.045988
_cell_angle_alpha                 89.938599
_cell_angle_beta                  90.090806
_cell_angle_gamma                 90.037889
_cell_volume                      1627.12377744

loop_
_atom_site_label
_atom_site_type_symbol
_atom_type_description
_atom_site_fract_x
_atom_site_fract_y
_atom_site_fract_z
_atom_type_partial_charge
O1    O     O_R   0.505700 0.583890 0.413310 -0.536675
O2    O     O_R   0.175960 0.594920 0.586080 -0.545786
O3    O     O_R   0.005660 0.416110 0.586690 -0.536682
C1    C     C_R   0.344802 0.615757 0.615723 0.691086
O4    O     O_R   0.175980 0.594920 0.413930 -0.542856
O5    O     O_R   0.005680 0.416110 0.413310 -0.539771
C2    C     C_R   0.344680 0.616919 0.385176 0.694501
O6    O     O_R   0.505680 0.583890 0.586690 -0.536506
O7    O     O_3   0.339200 0.441330 0.500000 -0.369520
V1    V     V_3+5 0.064350 0.510880 0.500000 1.383467
O8    O     O_R   0.675960 0.405080 0.413920 -0.539731
C3    C     C_R   0.844914 0.383257 0.384997 0.691663
O9    O     O_R   0.675940 0.405080 0.586070 -0.544341
C4    C     C_R   0.844694 0.382337 0.614210 0.705650
V2    V     V_3+5 0.564340 0.489120 0.500000 1.391330
O10   O     O_3   0.839360 0.558670 0.500000 -0.371184
C5    C     C_R   0.009774 0.251718 0.688584 0.099489
C6    C     C_R   0.851864 0.310301 0.679461 -0.102656
C7    C     C_R   0.696623 0.296992 0.734215 -0.148649
H1    H     H_    0.572474 0.341012 0.730012 0.135555
C8    C     C_R   0.708127 0.233194 0.800174 -0.182265
H2    H     H_    0.591048 0.228933 0.844087 0.129461
C9    C     C_R   0.876106 0.181529 0.813835 -0.116735
C10   C     C_R   0.022090 0.189421 0.754422 0.104048
C11   C     C_3   0.230514 0.207703 0.766245 -0.420924
C12   C     C_3   0.217562 0.274403 0.693523 -0.398391
H3    H     H_    0.319700 0.146243 0.752669 0.173065
H4    H     H_    0.260109 0.242093 0.826754 0.165985
H5    H     H_    0.297253 0.250910 0.637503 0.172754
H6    H     H_    0.242532 0.347152 0.711260 0.166666
C13   C     C_R   0.727448 0.183076 0.241216 0.102486
C14   C     C_R   0.882018 0.182567 0.185390 -0.113205
C15   C     C_R   0.033516 0.244323 0.201115 -0.181706
H7    H     H_    0.156081 0.246427 0.159991 0.132131
C16   C     C_R   0.022197 0.308511 0.266625 -0.178342
H8    H     H_    0.137084 0.357806 0.274162 0.126961
C17   C     C_R   0.858677 0.313162 0.318201 -0.110872
C18   C     C_R   0.715790 0.246849 0.305794 0.102587
C19   C     C_3   0.505356 0.259229 0.293497 -0.410318
C20   C     C_3   0.517920 0.189364 0.223465 -0.398475
H9    H     H_    0.469591 0.329566 0.271450 0.165631
H10   H     H_    0.420918 0.234528 0.347815 0.176124
H11   H     H_    0.488630 0.218953 0.160830 0.168437
H12   H     H_    0.441507 0.124092 0.237450 0.169060
C21   C     C_R   0.490768 0.675478 0.749919 0.053186
C22   C     C_R   0.351992 0.681147 0.686467 -0.125933
C23   C     C_R   0.207311 0.748404 0.696625 -0.187804
H13   H     H_    0.089878 0.752898 0.652521 0.125559
C24   C     C_R   0.217604 0.813661 0.761704 -0.174111
H14   H     H_    0.107530 0.865921 0.765803 0.120039
C25   C     C_R   0.374811 0.814745 0.817407 -0.098444
C26   C     C_R   0.505155 0.742619 0.810490 0.078751
C27   C     C_3   0.717628 0.736275 0.816014 -0.416396
C28   C     C_3   0.703229 0.657307 0.752879 -0.165358
H15   H     H_    0.766462 0.716343 0.879561 0.175041
H16   H     H_    0.788643 0.798348 0.790087 0.160420
H17   H     H_    0.775549 0.671773 0.692513 0.134651
C29   C     C_R   0.509123 0.747292 0.310639 0.103560
C30   C     C_R   0.352681 0.687439 0.318596 -0.111677
C31   C     C_R   0.200267 0.698079 0.261624 -0.180211
H18   H     H_    0.077006 0.653213 0.265101 0.130557
C32   C     C_R   0.211960 0.761978 0.195761 -0.177981
H19   H     H_    0.096241 0.765279 0.150878 0.131150
C33   C     C_R   0.377038 0.816613 0.184610 -0.110463
C34   C     C_R   0.521075 0.810235 0.245284 0.098737
C35   C     C_3   0.730633 0.793972 0.234703 -0.415011
C36   C     C_3   0.717715 0.725751 0.306184 -0.396362
H20   H     H_    0.817337 0.855846 0.249952 0.172926
H21   H     H_    0.763764 0.761229 0.173881 0.171394
H22   H     H_    0.796365 0.748332 0.362903 0.174204
H23   H     H_    0.744135 0.653527 0.286963 0.166327
O11   O     O_R   0.229000 0.916070 0.913330 -0.538908
O12   O     O_R   0.558770 0.905070 0.086080 -0.538749
O13   O     O_R   0.729000 0.083900 0.086690 -0.536714
C37   C     C_R   0.389784 0.882820 0.114624 0.698227
O14   O     O_R   0.558720 0.905070 0.913930 -0.539086
O15   O     O_R   0.728960 0.083900 0.913310 -0.539904
C38   C     C_R   0.389529 0.884089 0.884493 0.697863
O16   O     O_R   0.229050 0.916070 0.086710 -0.538543
O17   O     O_3   0.395460 0.058650 0.000020 -0.373106
V3    V     V_3+5 0.670340 0.989120 0.000000 1.392557
O18   O     O_R   0.058670 0.094960 0.913900 -0.540774
C39   C     C_R   0.889558 0.116674 0.884923 0.689249
O19   O     O_R   0.058720 0.094960 0.086050 -0.543369
C40   C     C_R   0.890002 0.117019 0.114758 0.693255
V4    V     V_3+5 0.170330 0.010930 0.999970 1.385636
O20   O     O_3   0.895340 0.941350 0.999980 -0.368395
C41   C     C_R   0.761369 0.567038 0.793478 0.139059
C42   C     C_R   0.953634 0.538781 0.787517 -0.134133
C43   C     C_R   0.021212 0.464447 0.834270 -0.132306
C44   C     C_R   0.897327 0.417145 0.887451 -0.061210
C45   C     C_R   0.704892 0.443304 0.893074 -0.138591
C46   C     C_R   0.636691 0.517689 0.846486 -0.144420
H24   H     H_    0.052766 0.576023 0.748514 0.117725
H25   H     H_    0.170402 0.444354 0.830217 0.093757
H26   H     H_    0.950068 0.359803 0.923855 0.094550
H27   H     H_    0.608702 0.406293 0.934059 0.101418
H28   H     H_    0.488434 0.538015 0.854148 0.105615

loop_
_geom_bond_atom_site_label_1
_geom_bond_atom_site_label_2
_ccdc_geom_bond_type
C35   H20   S    
C4    C6    S    
C7    H1    S    
C1    O6    A    
C43   H25   S    
C23   C24   A    
C1    C22   S    
C21   C22   A    
C11   H4    S    
C17   C18   A    
C9    C39   S    
C5    C12   S    
C7    C8    A    
O14   C38   A    
O5    C3    A    
C18   C19   S    
C35   H21   S    
O15   C39   A    
V2    O10   S    
C3    C17   S    
C13   C20   S    
C31   C32   A    
C6    C7    A    
C2    C30   S    
C42   H24   S    
O17   V4    S    
C44   H26   S    
C22   C23   A    
O8    V2    S    
C20   H11   S    
C13   C14   A    
C24   C25   A    
C32   C33   A    
C9    C10   A    
O1    V2    S    
O7    V1    S    
C35   C36   S    
C30   C31   A    
O9    C4    A    
O12   C37   A    
O12   V3    S    
C45   H27   S    
C15   H7    S    
C19   H10   S    
C27   H15   S    
C5    C10   A    
C25   C26   A    
C10   C11   S    
C19   H9    S    
C44   C45   A    
O4    C2    A    
V4    O20   S    
C21   C26   A    
C11   C12   S    
O18   V4    S    
O18   C39   A    
C31   H18   S    
C16   H8    S    
O2    C1    A    
C32   H19   S    
C29   C34   A    
C23   H13   S    
O15   V3    S    
C5    C6    A    
O19   C40   A    
V3    O20   S    
O3    C4    A    
C21   C28   S    
C12   H6    S    
O6    V2    S    
C8    C9    A    
O13   V3    S    
O2    V1    S    
C19   C20   S    
C26   C27   S    
C27   H16   S    
C41   C46   A    
C16   C17   A    
O1    C2    A    
O19   V4    S    
O17   V3    S    
O14   V3    S    
O5    V1    S    
O11   V4    S    
O8    C3    A    
C27   C28   S    
C11   H3    S    
C13   C18   A    
C36   H22   S    
C14   C15   A    
O9    V2    S    
C29   C30   A    
C25   C38   S    
O4    V1    S    
O3    V1    S    
V1    O10   S    
C33   C34   A    
C28   C41   S    
C43   C44   A    
C14   C40   S    
C45   C46   A    
C15   C16   A    
C33   C37   S    
C36   H23   S    
C34   C35   S    
O13   C40   A    
O7    V2    S    
C29   C36   S    
C20   H12   S    
C41   C42   A    
C12   H5    S    
C24   H14   S    
O11   C38   A    
C42   C43   A    
C8    H2    S    
C37   O16   A    
C46   H28   S    
O16   V4    S    
C28   H17   S    
