data_mof_unit_29491.cif
_audit_creation_date              2012-12-10T21:00:34-0500
_audit_creation_method            fapswitch 2.2
_symmetry_space_group_name_H-M    P1
_symmetry_Int_Tables_number       1
_space_group_crystal_system       triclinic
_cell_length_a                    18.126638
_cell_length_b                    18.303329
_cell_length_c                    18.465981
_cell_angle_alpha                 120.430704
_cell_angle_beta                  89.543887
_cell_angle_gamma                 119.953759
_cell_volume                      4324.02554265

loop_
_atom_site_label
_atom_site_type_symbol
_atom_type_description
_atom_site_fract_x
_atom_site_fract_y
_atom_site_fract_z
_atom_type_partial_charge
C1    C     C_R   0.110752 0.220206 0.609861 0.522736
C2    C     C_3   0.449177 0.895943 0.947067 -0.026507
C3    C     C_2   0.832834 0.435697 0.534068 0.618228
C4    C     C_2   0.777011 0.903668 0.039327 0.662803
C5    C     C_2   0.225600 0.091615 0.952570 0.661152
C6    C     C_2   0.005478 0.819048 0.888637 0.580788
C7    C     C_2   0.994265 0.180084 0.110434 0.572946
C8    C     C_2   0.176960 0.780333 0.063012 0.642100
C9    C     C_2   0.824198 0.218738 0.934641 0.643103
C10   C     C_2   0.474166 0.075202 0.907438 0.644724
C11   C     C_2   0.526613 0.925419 0.092466 0.643231
C12   C     C_3   0.476600 0.032647 0.072499 0.181067
C13   C     C_3   0.523529 0.967454 0.927216 0.180446
C14   C     C_3   0.414309 0.436310 0.449356 0.228491
C15   C     C_3   0.585306 0.563179 0.550291 0.228642
C16   C     C_3   0.477677 0.401423 0.442734 -0.194827
C17   C     C_3   0.521963 0.598105 0.556874 -0.193942
C18   C     C_3   0.550988 0.498996 0.448373 0.046389
C19   C     C_3   0.448705 0.500592 0.551318 0.046122
C20   C     C_3   0.486753 0.531631 0.454143 0.220095
C21   C     C_R   0.889594 0.779791 0.390141 0.521127
C22   C     C_3   0.512842 0.467840 0.545453 0.220719
C23   C     C_R   0.145221 0.191032 0.834955 -0.048711
C24   C     C_R   0.860036 0.810709 0.164778 -0.048179
C25   C     C_R   0.392510 0.780654 0.888032 0.555392
C26   C     C_R   0.607517 0.219375 0.111896 0.555994
C27   C     C_R   0.125588 0.141818 0.742942 0.059469
C28   C     C_R   0.879116 0.860532 0.256808 0.058650
C29   C     C_R   0.039808 0.099077 0.690026 -0.030230
C30   C     C_R   0.963532 0.900824 0.310187 -0.030842
C31   C     C_R   0.974015 0.104191 0.730994 0.001401
C32   C     C_3   0.986471 0.434110 0.415221 0.178904
C33   C     C_R   0.028845 0.892951 0.269710 0.001721
C34   C     C_R   0.995458 0.151333 0.823058 -0.036320
C35   C     C_R   0.008059 0.845147 0.177554 -0.037081
C36   C     C_R   0.080249 0.195207 0.875225 0.242327
C37   C     C_R   0.924397 0.803431 0.124905 0.241181
C38   C     C_R   0.966804 0.944009 0.536607 -0.058713
C39   C     C_R   0.035236 0.055985 0.463492 -0.057372
C40   C     C_R   0.946702 0.892240 0.444626 0.067422
C41   C     C_R   0.054779 0.107755 0.555433 0.068397
C42   C     C_R   0.981882 0.949045 0.407374 0.042911
C43   C     C_3   0.013552 0.565870 0.584744 0.178789
C44   C     C_R   0.020369 0.050942 0.592759 0.043175
C45   C     C_R   0.676052 0.638163 0.826291 0.224092
C46   C     C_R   0.321440 0.352998 0.168462 0.217299
C47   C     C_R   0.608135 0.572972 0.844424 0.063448
C48   C     C_R   0.388864 0.421004 0.152352 0.061074
C49   C     C_R   0.110347 0.500465 0.888976 0.515625
C50   C     C_R   0.889654 0.499527 0.111014 0.514894
C51   C     C_R   0.594643 0.616023 0.927907 -0.082316
C52   C     C_R   0.404698 0.381467 0.069872 -0.080620
C53   C     C_R   0.647323 0.725326 0.992173 -0.015458
C54   C     C_3   0.413872 0.964589 0.976597 0.195524
C55   C     C_R   0.354002 0.272553 0.004011 -0.016632
C56   C     C_R   0.715926 0.789894 0.973130 0.037681
C57   C     C_R   0.285508 0.205037 0.020819 0.038680
C58   C     C_R   0.728513 0.746976 0.890028 0.191643
C59   C     C_R   0.271546 0.244694 0.103504 0.195458
C60   C     C_R   0.590182 0.536224 0.004177 0.225519
C61   C     C_R   0.409968 0.464811 0.996762 0.222671
C62   C     C_R   0.549744 0.494634 0.051361 0.109272
C63   C     C_R   0.450307 0.506071 0.949326 0.109849
C64   C     C_R   0.457771 0.452696 0.043468 -0.027399
C65   C     C_3   0.586277 0.035562 0.023123 0.195258
C66   C     C_R   0.542169 0.547642 0.956991 -0.025128
C67   C     C_R   0.094446 0.795546 0.968561 0.235932
C68   C     C_R   0.906127 0.203368 0.029345 0.231948
C69   C     C_R   0.099364 0.732396 0.988157 0.091255
C70   C     C_R   0.901105 0.266772 0.010215 0.090104
C71   C     C_R   0.029927 0.625139 0.937114 -0.076761
C72   C     C_R   0.969743 0.374323 0.062362 -0.078073
C73   C     C_R   0.392167 0.500081 0.608026 0.568473
C74   C     C_R   0.607784 0.499833 0.391923 0.568407
C75   C     C_R   0.961334 0.581430 0.863951 -0.038897
C76   C     C_3   0.487736 0.035401 0.955743 0.020288
C77   C     C_R   0.037762 0.417924 0.135978 -0.039609
C78   C     C_R   0.955459 0.642094 0.843235 0.264811
C79   C     C_R   0.043887 0.356980 0.156140 0.265146
C80   C     C_R   0.020313 0.751085 0.897899 0.065419
C81   C     C_R   0.979665 0.247868 0.100646 0.065970
C82   C     C_R   0.963875 0.557058 0.021872 -0.093633
C83   C     C_R   0.036191 0.442986 0.978148 -0.091161
C84   C     C_R   0.946219 0.498018 0.054634 0.052904
C85   C     C_R   0.053809 0.501985 0.945366 0.054370
C86   C     C_R   0.982785 0.439728 0.032112 0.004649
C87   C     C_3   0.512446 0.964760 0.043998 0.021612
C88   C     C_R   0.017173 0.560182 0.967796 0.004492
C89   C     C_R   0.394170 0.502526 0.890821 0.626398
C90   C     C_R   0.605828 0.497634 0.109348 0.629264
C91   C     C_R   0.109390 0.500527 0.608078 0.604914
C92   C     C_R   0.890615 0.499472 0.391918 0.604956
C93   C     C_3   0.079831 0.530028 0.484916 -0.018812
C94   C     C_3   0.920191 0.469958 0.515058 -0.017631
C95   C     C_3   0.039853 0.593927 0.518670 0.166071
C96   C     C_3   0.960167 0.406054 0.481297 0.166487
C97   C     C_3   0.946835 0.498294 0.448255 0.024745
C98   C     C_3   0.550940 0.104144 0.052672 -0.026947
C99   C     C_3   0.053182 0.501692 0.551719 0.024815
C100  C     C_2   0.197844 0.141489 0.704705 0.599651
C101  C     C_2   0.807661 0.864552 0.294592 0.601127
C102  C     C_2   0.883081 0.063587 0.681136 0.587185
C103  C     C_2   0.118619 0.931563 0.320217 0.587743
C104  C     C_2   0.557330 0.458754 0.778589 0.662777
C105  C     C_2   0.437104 0.534382 0.219606 0.663076
C106  C     C_2   0.632731 0.771028 0.080261 0.659645
C107  C     C_2   0.370514 0.230235 0.916653 0.656887
C108  C     C_2   0.167212 0.564325 0.465958 0.619986
H1    H     H_    0.211194 0.225812 0.875570 0.173116
H2    H     H_    0.064124 0.398277 0.961758 0.165813
H3    H     H_    0.459986 0.321833 0.396387 0.143192
H4    H     H_    0.539678 0.677707 0.603216 0.144203
H5    H     H_    0.138014 0.737543 0.587355 0.360229
H6    H     H_    0.861992 0.262447 0.412642 0.360420
H7    H     H_    0.159817 0.267966 0.992892 0.337279
H8    H     H_    0.846031 0.731254 0.006792 0.339557
H9    H     H_    0.330221 0.219121 0.719635 0.368982
H10   H     H_    0.675110 0.793147 0.277913 0.344891
H11   H     H_    0.755061 0.015812 0.678253 0.366604
H12   H     H_    0.795026 0.777989 0.123851 0.173940
H13   H     H_    0.245864 0.974841 0.323431 0.367562
H14   H     H_    0.771939 0.783018 0.808666 0.330240
H15   H     H_    0.229230 0.205421 0.183248 0.331028
H16   H     H_    0.754733 0.639609 0.753921 0.350449
H17   H     H_    0.240538 0.346277 0.238445 0.348512
H18   H     H_    0.560079 0.336872 0.689732 0.352615
H19   H     H_    0.555297 0.674315 0.292860 0.347159
H20   H     H_    0.684280 0.888767 0.210479 0.364593
H21   H     H_    0.321076 0.116633 0.785317 0.365715
H22   H     H_    0.290569 0.593374 0.489526 0.353642
H23   H     H_    0.946517 0.156237 0.855510 0.196947
H24   H     H_    0.709550 0.406873 0.510700 0.352175
H25   H     H_    0.790681 0.038163 0.124066 0.366915
H26   H     H_    0.213646 0.958716 0.865682 0.367014
H27   H     H_    0.686902 0.561002 0.951238 0.325836
H28   H     H_    0.313141 0.439161 0.049409 0.326636
H29   H     H_    0.990064 0.861553 0.811333 0.384519
H30   H     H_    0.007191 0.136506 0.187661 0.382397
H31   H     H_    0.159581 0.933738 0.994277 0.363263
H32   H     H_    0.842063 0.064195 0.001550 0.362417
H33   H     H_    0.309559 0.888513 0.132955 0.378515
H34   H     H_    0.056592 0.838094 0.145429 0.195199
H35   H     H_    0.691940 0.109966 0.863340 0.377200
H36   H     H_    0.885429 0.639490 0.760779 0.353351
H37   H     H_    0.114896 0.358851 0.237249 0.353631
H38   H     H_    0.004439 0.334830 0.327393 0.374474
H39   H     H_    0.996124 0.665678 0.672535 0.373820
H40   H     H_    0.477016 0.078106 0.799811 0.353986
H41   H     H_    0.522568 0.921154 0.199389 0.354397
H42   H     H_    0.320559 0.986264 0.993938 0.371410
H43   H     H_    0.680243 0.015100 0.004420 0.374045
H44   H     H_    0.431578 0.107944 0.148573 0.340685
H45   H     H_    0.940747 0.901307 0.565735 0.155203
H46   H     H_    0.567982 0.891599 0.850797 0.340620
H47   H     H_    0.319200 0.320259 0.338578 0.337670
H48   H     H_    0.680220 0.679092 0.661006 0.335182
H49   H     H_    0.430037 0.581117 0.423284 0.369138
H50   H     H_    0.567398 0.415373 0.574395 0.365517
H51   H     H_    0.061445 0.098686 0.434375 0.155336
H52   H     H_    0.908215 0.499259 0.825320 0.185649
H53   H     H_    0.090386 0.500289 0.175348 0.187174
H54   H     H_    0.935927 0.601738 0.038232 0.167547
O1    O     O_3   0.251620 0.500000 0.748430 -0.495243
O2    O     O_R   0.570330 0.268390 0.136490 -0.540011
O3    O     O_R   0.134680 0.268390 0.572240 -0.535268
O4    O     O_R   0.865320 0.731610 0.427760 -0.535889
O5    O     O_R   0.306670 0.731630 0.863510 -0.478171
O6    O     O_R   0.693330 0.268370 0.136490 -0.478398
O7    O     O_R   0.135450 0.439270 0.865360 -0.544551
O8    O     O_R   0.864550 0.560730 0.134640 -0.545051
O9    O     O_R   0.429670 0.560710 0.692610 -0.535484
O10   O     O_R   0.570330 0.439290 0.307390 -0.533177
O11   O     O_R   0.308540 0.439240 0.865360 -0.456814
O12   O     O_3   0.748380 0.500000 0.251570 -0.495192
O13   O     O_R   0.691460 0.560760 0.134640 -0.457807
O14   O     O_R   0.133580 0.439310 0.571150 -0.490433
O15   O     O_R   0.866420 0.560690 0.428850 -0.490466
O16   O     O_R   0.430770 0.560690 0.864590 -0.534669
O17   O     O_R   0.569230 0.439310 0.135410 -0.528625
O18   O     O_R   0.133580 0.560760 0.692610 -0.497584
O19   O     O_R   0.866420 0.439240 0.307390 -0.497133
O20   O     O_3   0.080447 0.692949 0.538780 -0.627453
O21   O     O_3   0.919578 0.307035 0.461191 -0.627082
O22   O     O_3   0.097733 0.242268 0.965492 -0.672697
O23   O     O_R   0.134680 0.560740 0.864590 -0.542596
O24   O     O_3   0.907402 0.755495 0.034593 -0.677997
O25   O     O_2   0.180011 0.065652 0.632398 -0.473697
O26   O     O_R   0.286937 0.228613 0.752040 -0.657769
O27   O     O_2   0.826764 0.941555 0.366578 -0.476887
O28   O     O_R   0.717786 0.779758 0.246971 -0.664686
O29   O     O_2   0.868925 0.050886 0.609709 -0.474503
O30   O     O_R   0.813394 0.041884 0.717441 -0.655090
O31   O     O_2   0.131771 0.945814 0.392453 -0.471612
O32   O     O_R   0.188384 0.949766 0.283706 -0.654778
O33   O     O_3   0.791975 0.814116 0.872836 -0.625441
O34   O     O_R   0.865320 0.439260 0.135410 -0.541747
O35   O     O_3   0.209417 0.175051 0.119180 -0.622780
O36   O     O_3   0.691216 0.593022 0.746714 -0.611774
O37   O     O_3   0.304086 0.394996 0.247282 -0.622141
O38   O     O_2   0.476685 0.402841 0.764293 -0.516813
O39   O     O_R   0.601863 0.415037 0.732767 -0.602547
O40   O     O_2   0.395181 0.570365 0.255202 -0.421010
O41   O     O_R   0.530468 0.599929 0.243314 -0.683956
O42   O     O_2   0.557285 0.729270 0.085607 -0.487647
O43   O     O_R   0.704368 0.862732 0.156920 -0.656172
O44   O     O_2   0.446640 0.273519 0.913171 -0.487073
O45   O     O_R   0.306670 0.439270 0.571150 -0.482318
O46   O     O_R   0.299886 0.139936 0.838528 -0.658328
O47   O     O_2   0.178564 0.587608 0.413432 -0.401604
O48   O     O_R   0.235186 0.569855 0.508328 -0.682403
O49   O     O_2   0.821469 0.412303 0.586517 -0.406065
O50   O     O_R   0.764903 0.430346 0.491845 -0.682887
O51   O     O_2   0.858540 0.946649 0.058328 -0.419772
O52   O     O_R   0.741911 0.961649 0.079448 -0.644808
O53   O     O_2   0.143927 0.047441 0.933093 -0.423676
O54   O     O_R   0.261818 0.035248 0.911100 -0.642918
O55   O     O_3   0.677349 0.565462 0.005675 -0.679156
O56   O     O_R   0.693330 0.560730 0.428850 -0.482595
O57   O     O_3   0.322971 0.436056 0.995526 -0.679531
O58   O     O_2   0.995638 0.880604 0.950301 -0.351226
O59   O     O_R   0.003527 0.813615 0.810363 -0.710059
O60   O     O_2   0.005991 0.119799 0.049784 -0.355389
O61   O     O_R   0.994039 0.184461 0.188195 -0.710652
O62   O     O_3   0.160103 0.901084 0.023367 -0.616626
O63   O     O_3   0.841149 0.097691 0.973514 -0.619030
O64   O     O_2   0.166797 0.748009 0.108815 -0.514138
O65   O     O_R   0.262365 0.863002 0.081104 -0.576379
O66   O     O_2   0.835059 0.251307 0.888969 -0.515923
O67   O     O_R   0.135450 0.268370 0.694460 -0.547591
O68   O     O_R   0.738648 0.135618 0.915684 -0.577413
O69   O     O_3   0.881108 0.591484 0.773396 -0.616082
O70   O     O_3   0.117808 0.407601 0.226473 -0.612266
O71   O     O_3   0.970651 0.363313 0.326019 -0.621806
O72   O     O_3   0.029378 0.636665 0.673939 -0.624828
O73   O     O_2   0.451720 0.134605 0.940789 -0.462288
O74   O     O_R   0.488143 0.045517 0.825438 -0.621625
O75   O     O_2   0.551508 0.868336 0.060186 -0.459661
O76   O     O_R   0.510712 0.953140 0.173511 -0.623534
O77   O     O_3   0.323023 0.926734 0.952269 -0.595043
O78   O     O_R   0.864550 0.731630 0.305540 -0.547422
O79   O     O_3   0.677198 0.073651 0.047569 -0.595591
O80   O     O_3   0.451402 0.066344 0.148573 -0.615675
O81   O     O_3   0.548755 0.933810 0.851153 -0.615408
O82   O     O_3   0.323527 0.372012 0.397943 -0.626099
O83   O     O_3   0.676041 0.627407 0.601728 -0.628196
O84   O     O_3   0.473379 0.563428 0.403895 -0.612203
O85   O     O_3   0.525952 0.435710 0.595485 -0.611069
O86   O     O_R   0.429670 0.731610 0.863510 -0.540058
Zn1   Zn    Zn3+2 0.207400 0.586780 0.791530 1.025184
Zn2   Zn    Zn3+2 0.792600 0.413220 0.208470 1.025661
Zn3   Zn    Zn3+2 0.208510 0.413230 0.792630 1.004937
Zn4   Zn    Zn3+2 0.791490 0.586770 0.207370 1.003241
Zn5   Zn    Zn3+2 0.383150 0.586740 0.791530 1.001687
Zn6   Zn    Zn3+2 0.616850 0.413260 0.208470 1.002433
Zn7   Zn    Zn3+2 0.207400 0.413250 0.618010 1.038893
Zn8   Zn    Zn3+2 0.792600 0.586750 0.381990 1.037278

loop_
_geom_bond_atom_site_label_1
_geom_bond_atom_site_label_2
_ccdc_geom_bond_type
C75   H52   S    
H31   O62   S    
C15   C18   S    
C38   C40   A    
H33   O65   S    
H16   O36   S    
C46   C59   A    
C27   C29   A    
H36   O69   S    
H24   O50   S    
C89   O11   A    
H14   O33   S    
C17   C20   S    
C106  O43   S    
H7    O22   S    
O13   Zn4   S    
C50   C84   S    
C39   C41   A    
H28   O57   S    
C13   C65   S    
C25   O5    A    
C11   O76   S    
C38   C44   A    
C67   C69   A    
O10   Zn6   S    
C8    C69   S    
C85   C88   A    
H25   O52   S    
C100  O26   S    
C43   C99   S    
C65   C98   S    
C101  O27   D    
O19   Zn2   S    
C93   C108  S    
C22   O85   S    
C33   C35   A    
C78   C80   A    
C57   C59   A    
O23   Zn1   S    
C76   C98   S    
H6    O21   S    
H27   O55   S    
C96   C99   S    
H29   O59   S    
C58   O33   S    
C43   C94   S    
H26   O54   S    
C32   C97   S    
C68   O63   S    
C60   C62   A    
C46   O37   S    
C69   C71   A    
C2    C13   S    
O45   Zn7   S    
C107  O44   D    
C62   C64   A    
H41   O76   S    
C90   O17   A    
O17   Zn6   S    
C6    C80   S    
C28   C101  S    
O12   Zn6   S    
C15   C22   S    
C15   O83   S    
C11   C87   S    
H5    O20   S    
O4    Zn8   S    
C43   C95   S    
C36   O22   S    
C103  O32   S    
C23   C27   A    
C73   O9    A    
H49   O84   S    
C93   C99   S    
C12   C98   S    
C30   C33   A    
C52   C55   A    
C6    O59   S    
C39   H51   S    
H47   O82   S    
C40   C42   A    
C32   C93   S    
C73   O45   A    
C63   C66   A    
C60   C66   A    
C93   C95   S    
C10   O73   D    
C71   C75   A    
C4    C56   S    
C3    O49   D    
C104  O38   D    
C74   O56   A    
C10   C76   S    
C95   O20   S    
C53   C106  S    
H38   O71   S    
C8    O65   S    
C92   C97   S    
C65   C87   S    
C39   C42   A    
C61   O57   S    
C32   O71   S    
C45   C47   A    
H18   O39   S    
C77   H53   S    
C23   H1    S    
C46   C48   A    
C27   C100  S    
C24   H12   S    
C4    O52   S    
C31   C102  S    
C14   C20   S    
O1    Zn1   S    
C19   C22   S    
C77   C79   A    
C9    C70   S    
C24   C37   A    
C101  O28   S    
C52   C64   S    
O16   Zn5   S    
H21   O46   S    
C8    O64   D    
O86   Zn5   S    
O12   Zn2   S    
C47   C51   A    
C82   H54   S    
C94   C97   S    
C78   O69   S    
C5    O54   S    
C65   O79   S    
C90   O13   A    
H9    O26   S    
O11   Zn3   S    
C21   O4    A    
C55   C107  S    
C9    O68   S    
C51   C53   A    
C51   C66   S    
C61   C64   A    
C94   C96   S    
H39   O72   S    
H44   O80   S    
C72   C77   A    
C49   C85   S    
H43   O79   S    
C7    O61   S    
O18   Zn1   S    
C18   C74   S    
C102  O30   S    
C48   C105  S    
C13   C76   S    
C1    O3    A    
C26   O6    A    
C91   O18   A    
O9    Zn5   S    
C61   C63   A    
C102  O29   D    
H32   O63   S    
C83   H2    S    
O8    Zn4   S    
C2    C87   S    
C50   O8    A    
C89   O16   A    
H11   O30   S    
O1    Zn7   S    
C21   O78   A    
C107  O46   S    
O67   Zn3   S    
C26   C98   S    
C14   O82   S    
C100  O25   D    
C19   C73   S    
O12   Zn8   S    
C83   C85   A    
H37   O70   S    
O1    Zn5   S    
C34   H23   S    
O78   Zn4   S    
C12   O80   S    
C55   C57   A    
C29   C44   S    
C2    C54   S    
C50   O34   A    
C41   C44   A    
C54   C76   S    
H22   O48   S    
H20   O43   S    
C68   C81   A    
C96   O21   S    
C45   C58   A    
H42   O77   S    
C17   H4    S    
H13   O32   S    
C4    O51   D    
C31   C34   A    
C35   C37   A    
C79   C81   A    
C53   C56   A    
C1    C41   S    
C3    O50   S    
C15   C17   S    
O15   Zn8   S    
H46   O81   S    
C16   C22   S    
C47   C104  S    
C12   C87   S    
C7    C81   S    
C14   C16   S    
C33   C103  S    
C74   O10   A    
C14   C19   S    
H15   O35   S    
O2    Zn6   S    
C67   C80   A    
C24   C28   A    
C84   C86   A    
C7    O60   D    
C43   O72   S    
C54   O77   S    
C108  O48   S    
C95   C97   S    
C37   O24   S    
C72   C86   S    
C11   O75   D    
O6    Zn2   S    
C9    O66   D    
C108  O47   D    
C10   O74   S    
O5    Zn1   S    
C5    C57   S    
H48   O83   S    
C91   C99   S    
C104  O39   S    
O7    Zn3   S    
O1    Zn3   S    
C45   O36   S    
C28   C30   A    
C29   C31   A    
C60   O55   S    
O14   Zn7   S    
C49   O7    A    
C32   C96   S    
H10   O28   S    
O12   Zn4   S    
C105  O40   D    
C13   O81   S    
C21   C40   S    
H8    O24   S    
H30   O61   S    
C59   O35   S    
C82   C88   A    
C62   C90   S    
C20   O84   S    
C17   C19   S    
C34   C36   A    
C56   C58   A    
C91   O14   A    
C3    C94   S    
C18   C20   S    
C63   C89   S    
H35   O68   S    
C67   O62   S    
C75   C78   A    
C79   O70   S    
C26   O2    A    
C105  O41   S    
C92   O15   A    
C35   H34   S    
C106  O42   D    
C71   C88   S    
C25   O86   A    
C1    O67   A    
C48   C52   A    
C83   C86   A    
C49   O23   A    
H17   O37   S    
C16   C18   S    
C23   C36   A    
H50   O85   S    
O34   Zn2   S    
C68   C70   A    
O56   Zn8   S    
C30   C42   S    
C70   C72   A    
C6    O58   D    
C103  O31   D    
C38   H45   S    
H40   O74   S    
C92   O19   A    
H19   O41   S    
C82   C84   A    
C12   C54   S    
C2    C25   S    
C16   H3    S    
O3    Zn7   S    
C5    O53   D    
