data_mof_unit_14347.cif
_audit_creation_date              2012-12-10T17:48:50-0500
_audit_creation_method            fapswitch 2.2
_symmetry_space_group_name_H-M    P1
_symmetry_Int_Tables_number       1
_space_group_crystal_system       triclinic
_cell_length_a                    10.887468
_cell_length_b                    14.760684
_cell_length_c                    14.693446
_cell_angle_alpha                 64.360617
_cell_angle_beta                  105.409595
_cell_angle_gamma                 103.517976
_cell_volume                      2033.04080912

loop_
_atom_site_label
_atom_site_type_symbol
_atom_type_description
_atom_site_fract_x
_atom_site_fract_y
_atom_site_fract_z
_atom_type_partial_charge
C1    C     C_R   0.478241 0.119861 0.311345 0.800152
C2    C     C_3   0.877393 0.997999 0.498879 -0.101723
C3    C     C_3   0.943170 0.920281 0.607563 0.145977
C4    C     C_3   0.955570 0.108659 0.473442 -0.212000
C5    C     C_R   0.461327 0.186525 0.201095 -0.061224
C6    C     C_R   0.514766 0.810025 0.798441 -0.122950
C7    C     C_R   0.424850 0.210747 0.022447 -0.121435
C8    C     C_R   0.439153 0.146707 0.126406 -0.182902
C9    C     C_R   0.462435 0.290476 0.169866 -0.249980
C10   C     C_R   0.433200 0.354401 0.065208 0.081447
C11   C     C_R   0.428443 0.316226 0.990422 0.131673
C12   C     C_R   0.259370 0.001696 0.495190 0.754941
C13   C     C_R   0.417553 0.457287 0.034268 0.007597
C14   C     C_R   0.436882 0.527095 0.935003 0.050627
C15   C     C_R   0.432068 0.488453 0.860948 -0.273025
C16   C     C_R   0.425742 0.384666 0.886606 -0.031974
C17   C     C_R   0.376053 0.492459 0.096031 0.132761
C18   C     C_R   0.397601 0.597709 0.074384 0.150423
C19   C     C_R   0.458265 0.666066 0.990461 0.041912
C20   C     C_R   0.461769 0.632774 0.914126 0.018583
C21   C     C_R   0.511210 0.767635 0.978086 0.172046
C22   C     C_R   0.524863 0.842039 0.878760 0.124199
C23   C     C_R   0.518594 0.879803 0.689040 0.788653
C24   C     C_R   0.495412 0.705840 0.821033 -0.261790
C25   C     C_R   0.725246 0.294938 0.660426 -0.222268
C26   C     C_R   0.690232 0.209431 0.636709 0.146824
C27   C     C_R   0.511456 0.282614 0.512739 0.007789
C28   C     C_R   0.537590 0.367652 0.541786 0.000536
C29   C     C_R   0.651735 0.373638 0.613168 0.135370
C30   C     C_R   0.460457 0.449433 0.500151 0.065063
C31   C     C_R   0.511139 0.539614 0.520454 0.027028
C32   C     C_R   0.628475 0.541401 0.589292 -0.237205
C33   C     C_R   0.694732 0.458793 0.637001 -0.155759
C34   C     C_R   0.739542 0.000986 0.497841 0.741741
C35   C     C_R   0.333421 0.445093 0.442417 0.118299
C36   C     C_R   0.277268 0.533936 0.383314 -0.213909
C37   C     C_R   0.332219 0.624182 0.395233 0.115889
C38   C     C_R   0.443069 0.625704 0.470873 -0.020588
C39   C     C_R   0.272812 0.711672 0.336350 -0.297473
C40   C     C_R   0.318647 0.797961 0.357678 0.087853
C41   C     C_R   0.479345 0.713719 0.493630 0.025655
C42   C     C_3   0.025985 0.956237 0.413153 -0.048309
C43   C     C_3   0.885435 0.971191 0.405999 -0.147336
C44   C     C_3   0.090771 0.929092 0.604607 -0.145837
C45   C     C_3   0.093375 0.109785 0.459789 -0.179194
C46   C     C_3   0.120193 0.998718 0.493650 -0.041530
Cu1   Cu    Cu3+1 0.465900 0.918260 0.475680 0.944394
Cu2   Cu    Cu3+1 0.534100 0.081740 0.524320 0.930016
H1    H     H_    0.505029 0.683538 0.762978 0.164540
H2    H     H_    0.409227 0.175851 0.968489 0.201295
H3    H     H_    0.435493 0.066124 0.148281 0.173959
H4    H     H_    0.485023 0.321601 0.227796 0.171120
H5    H     H_    0.050852 0.005500 0.336167 0.169961
H6    H     H_    0.431861 0.537423 0.781239 0.130756
H7    H     H_    0.783692 0.463176 0.690891 0.144368
H8    H     H_    0.556520 0.718650 0.555297 0.107360
H9    H     H_    0.275598 0.866569 0.310578 0.114606
H10   H     H_    0.184272 0.530607 0.333438 0.159370
H11   H     H_    0.810608 0.300246 0.717276 0.187317
H12   H     H_    0.434365 0.278669 0.450565 0.134599
H13   H     H_    0.867272 0.041248 0.335280 0.179875
H14   H     H_    0.672865 0.606219 0.607655 0.134825
H15   H     H_    0.190719 0.712939 0.275122 0.145081
H16   H     H_    0.110107 0.852960 0.619648 0.102139
H17   H     H_    0.164376 0.143879 0.509167 0.221428
H18   H     H_    0.901272 0.157876 0.399497 0.164405
N1    N     N_R   0.585360 0.204570 0.560800 -0.216053
N2    N     N_R   0.414550 0.795430 0.439160 -0.172314
O1    O     O_R   0.455060 0.022100 0.338110 -0.572015
O2    O     O_R   0.512640 0.160150 0.379180 -0.594288
O3    O     O_R   0.288900 0.930980 0.479450 -0.582136
O4    O     O_R   0.346480 0.069030 0.520520 -0.567246
O5    O     O_R   0.487360 0.839850 0.620820 -0.589103
O6    O     O_R   0.544940 0.977900 0.661890 -0.597932
O7    O     O_R   0.653520 0.930970 0.479480 -0.566300
O8    O     O_R   0.711100 0.069020 0.520550 -0.635770
C47   C     C_3   0.040534 0.848620 0.424972 -0.825870
H19   H     H_    0.056174 0.792009 0.504741 0.233569
H20   H     H_    0.959260 0.816484 0.379218 0.217909
H21   H     H_    0.121548 0.853713 0.390912 0.241957
C48   C     C_2   0.959249 0.161567 0.543055 0.389486
H22   H     H_    0.887909 0.210939 0.522821 0.073625
O9    O     O_2   0.042868 0.153823 0.619074 -0.439300
C49   C     C_2   0.188878 0.948632 0.691871 0.465147
H23   H     H_    0.216419 0.884573 0.762570 0.050701
O10   O     O_2   0.235374 0.034050 0.686355 -0.476214
C50   C     C_2   0.914563 0.936757 0.695853 0.443412
H24   H     H_    0.815728 0.919474 0.706631 0.025978
O11   O     O_2   0.996257 0.961829 0.758689 -0.471451
C51   C     C_2   0.425873 0.354702 0.802091 0.380424
H25   H     H_    0.379778 0.397974 0.724297 0.085510
O12   O     O_2   0.484094 0.287053 0.816169 -0.534491
C52   C     C_3   0.551431 0.953331 0.860412 -0.749178
H26   H     H_    0.478033 0.995374 0.796936 0.269292
H27   H     H_    0.546644 0.967833 0.927153 0.238554
H28   H     H_    0.649028 0.984478 0.842858 0.236765
C53   C     C_3   0.343556 0.636753 0.133990 -0.838574
H29   H     H_    0.399936 0.615652 0.213405 0.245369
H30   H     H_    0.342094 0.719624 0.097087 0.241677
H31   H     H_    0.241005 0.606157 0.136445 0.229846
C54   C     C_3   0.293892 0.421356 0.175235 -0.831175
H32   H     H_    0.263793 0.345104 0.173445 0.245587
H33   H     H_    0.346875 0.414832 0.253035 0.223771
H34   H     H_    0.201116 0.449045 0.159095 0.251957
C55   C     C_3   0.575050 0.792730 0.071257 -0.816334
H35   H     H_    0.672693 0.835101 0.061584 0.250441
H36   H     H_    0.518084 0.839742 0.081587 0.240321
H37   H     H_    0.589478 0.723406 0.142644 0.240201
C56   C     C_2   0.770556 0.126704 0.696792 0.366540
H38   H     H_    0.748298 0.057322 0.686874 0.124822
O13   O     O_2   0.865022 0.134853 0.761311 -0.508196
C57   C     C_3   0.244622 0.347943 0.456408 -0.857164
H39   H     H_    0.234950 0.330173 0.389231 0.226587
H40   H     H_    0.278698 0.285811 0.529565 0.264825
H41   H     H_    0.147688 0.355746 0.461197 0.250384
C58   C     C_2   0.782104 0.891989 0.379613 0.435649
H42   H     H_    0.767218 0.814510 0.434384 0.084500
O14   O     O_2   0.712651 0.915087 0.294794 -0.550104
C59   C     C_3   0.881001 0.808348 0.629593 -0.997907
H43   H     H_    0.775504 0.798167 0.624389 0.234012
H44   H     H_    0.899901 0.778582 0.578655 0.244868
H45   H     H_    0.922206 0.757866 0.708764 0.236315
C60   C     C_2   0.119188 0.176611 0.351369 0.231745
H46   H     H_    0.214593 0.186232 0.336022 0.084391
O15   O     O_2   0.036767 0.220208 0.280878 -0.543066

loop_
_geom_bond_atom_site_label_1
_geom_bond_atom_site_label_2
_ccdc_geom_bond_type
C33   H7    S    
C50   H24   S    
C16   C51   S    
C52   H26   S    
Cu2   O8    S    
C35   C36   A    
C57   H40   S    
C53   H29   S    
C7    C8    A    
C47   H19   S    
C45   C60   S    
C7    C11   A    
C55   H36   S    
C54   H32   S    
C30   C35   A    
C1    C5    S    
C26   N1    A    
C28   C29   A    
C19   C21   A    
C49   O10   D    
C36   H10   S    
C27   H12   S    
C56   O13   D    
C42   H5    S    
C30   C31   A    
C60   O15   D    
C15   C16   A    
C6    C22   A    
C29   C33   A    
C58   H42   S    
C18   C19   A    
C42   C46   S    
C17   C54   S    
Cu1   O1    S    
C53   H30   S    
C4    C48   S    
C19   C20   A    
C18   C53   S    
C9    C10   A    
C34   O7    A    
C2    C34   S    
C59   H44   S    
C12   O4    A    
C52   H27   S    
C21   C22   A    
C9    H4    S    
C23   O5    A    
C57   H39   S    
C48   O9    D    
C44   C46   S    
C48   H22   S    
C41   N2    A    
C4    C45   S    
C47   H20   S    
C25   C29   A    
C55   H37   S    
C3    C44   S    
C3    C50   S    
C15   H6    S    
Cu2   O6    S    
C60   H46   S    
C49   H23   S    
Cu1   O5    S    
C38   C41   A    
C12   C46   S    
C39   C40   A    
C25   C26   A    
C45   C46   S    
C44   H16   S    
C2    C4    S    
C41   H8    S    
C5    C9    A    
C37   C38   A    
C14   C20   A    
C43   C58   S    
C11   C16   A    
C51   O12   D    
Cu1   Cu2   S    
C26   C56   S    
C2    C43   S    
C6    C24   A    
C17   C18   A    
C8    H3    S    
Cu1   O3    S    
C3    C59   S    
C12   O3    A    
C52   H28   S    
C50   O11   D    
C45   H17   S    
C22   C52   S    
C42   C43   S    
Cu2   O4    S    
C23   O6    A    
Cu1   N2    S    
C53   H31   S    
C43   H13   S    
C47   H21   S    
C24   H1    S    
C36   C37   A    
C40   H9    S    
C31   C32   A    
C7    H2    S    
Cu2   O2    S    
C44   C49   S    
C10   C13   A    
C5    C8    A    
C59   H43   S    
C54   H34   S    
C39   H15   S    
C55   H35   S    
C1    O2    A    
C31   C38   A    
C13   C17   A    
C32   C33   A    
C28   C30   A    
C2    C3    S    
Cu1   O7    S    
C37   C39   A    
C56   H38   S    
C4    H18   S    
C51   H25   S    
C6    C23   S    
C59   H45   S    
C58   O14   D    
Cu2   N1    S    
C1    O1    A    
C27   N1    A    
C10   C11   A    
C32   H14   S    
C42   C47   S    
C54   H33   S    
C40   N2    A    
C27   C28   A    
C14   C15   A    
C25   H11   S    
C13   C14   A    
C20   C24   A    
C57   H41   S    
C21   C55   S    
C35   C57   S    
C34   O8    A    
