data_mof_unit_27386.cif
_audit_creation_date              2013-03-05T15:52:25-0500
_audit_creation_method            fapswitch 2.2
_symmetry_space_group_name_H-M    P1
_symmetry_Int_Tables_number       1
_space_group_crystal_system       triclinic
_cell_length_a                    27.803011
_cell_length_b                    10.846883
_cell_length_c                    9.788078
_cell_angle_alpha                 88.258702
_cell_angle_beta                  89.071283
_cell_angle_gamma                 92.268998
_cell_volume                      2947.72504779

loop_
_atom_site_label
_atom_site_type_symbol
_atom_site_description
_atom_site_fract_x
_atom_site_fract_y
_atom_site_fract_z
_atom_type_partial_charge
O1    O     O_R   0.500000 0.319640 0.618810 -0.595171
O2    O     O_R   0.500000 0.319660 0.381240 -0.532045
C1    C     C_R   0.500560 0.262054 0.502204 0.833751
O3    O     O_R   0.430260 0.500010 0.618770 -0.573924
O4    O     O_R   0.430270 0.500030 0.381200 -0.531864
C2    C     C_R   0.407740 0.499076 0.500395 0.804101
Cu1   Cu    Cu3+1 0.500000 0.499990 0.640660 0.978184
Cu2   Cu    Cu3+1 0.500000 0.500010 0.359340 1.037665
O5    O     O_R   0.500000 0.680340 0.618760 -0.600801
O6    O     O_R   0.500000 0.680360 0.381190 -0.551580
O7    O     O_R   0.569730 0.499970 0.618800 -0.578068
O8    O     O_R   0.569740 0.499990 0.381230 -0.571385
C3    C     C_R   0.494177 0.735468 0.499620 0.790345
C4    C     C_R   0.592201 0.505153 0.499954 0.857853
C5    C     C_R   0.176141 0.424546 0.462069 0.590926
O9    O     O_2   0.199131 0.320040 0.438793 -0.467954
N1    N     N_R   0.202587 0.533541 0.467329 -0.472913
C6    C     C_R   0.180413 0.643740 0.469267 0.635141
C7    C     C_R   0.285676 0.591688 0.380599 0.238594
C8    C     C_R   0.335438 0.584205 0.394578 -0.258145
C9    C     C_R   0.323232 0.438370 0.585518 0.158023
C10   C     C_R   0.273868 0.455441 0.580170 -0.139782
C11   C     C_R   0.254327 0.530087 0.477266 0.217117
C12   C     C_R   0.102269 0.535804 0.473297 -0.154210
C13   C     C_R   0.125445 0.422135 0.476192 -0.108890
C14   C     C_R   0.097048 0.310996 0.484802 0.172444
C15   C     C_R   0.130066 0.647136 0.458813 -0.045620
C16   C     C_R   0.354914 0.508388 0.497120 -0.117347
H1    H     H_    0.249984 0.403020 0.650778 0.189027
C17   C     C_R   0.645292 0.516584 0.504055 -0.165670
C18   C     C_R   0.973680 0.429779 0.529974 0.031124
C19   C     C_R   0.977697 0.656699 0.504048 0.029444
C20   C     C_R   0.950546 0.543706 0.519908 -0.053035
C21   C     C_R   0.946941 0.325797 0.587073 0.376926
C22   C     C_R   0.896059 0.325632 0.589842 0.115672
C23   C     C_R   0.873161 0.431682 0.543188 -0.116009
C24   C     C_R   0.899828 0.543901 0.530972 -0.127472
C25   C     C_R   0.875432 0.654976 0.530898 -0.102592
C26   C     C_R   0.824809 0.647582 0.550613 0.626362
N2    N     N_R   0.799299 0.539095 0.528460 -0.453240
C27   C     C_R   0.823715 0.432167 0.517585 0.690423
C28   C     C_R   0.719795 0.439610 0.595446 0.468349
C29   C     C_R   0.670229 0.424963 0.572377 -0.301734
C30   C     C_R   0.670886 0.625714 0.462481 0.006758
C31   C     C_R   0.721455 0.626801 0.451841 0.167484
C32   C     C_R   0.746879 0.535346 0.524531 0.172256
O10   O     O_2   0.800883 0.327614 0.477718 -0.444971
C33   C     C_R   0.023714 0.426517 0.499940 0.002746
C34   C     C_R   0.051368 0.538563 0.486172 0.013404
C35   C     C_R   0.028443 0.653209 0.480213 0.054027
C36   C     C_R   0.046916 0.314953 0.476681 0.191454
H2    H     H_    0.650821 0.344529 0.613543 0.191486
O11   O     O_2   0.206862 0.749240 0.484637 -0.424129
C37   C     C_R   0.107049 0.757562 0.429453 0.438156
H3    H     H_    0.359046 0.634400 0.321309 0.184375
C38   C     C_R   0.953208 0.768436 0.520234 0.351510
C39   C     C_R   0.902417 0.767610 0.518766 0.110962
O12   O     O_2   0.801705 0.745215 0.597145 -0.459727
C40   C     C_R   0.056672 0.758842 0.437403 -0.207830
H4    H     H_    0.040241 0.842205 0.402800 0.217641
H5    H     H_    0.462873 0.122211 0.311949 0.216964
C41   C     C_R   0.517431 0.099740 0.753661 0.126570
C42   C     C_R   0.493498 0.052259 0.872248 0.162132
C43   C     C_R   0.461552 0.949160 0.862777 0.185172
C44   C     C_R   0.462976 0.879950 0.745678 -0.209359
H6    H     H_    0.440200 0.796837 0.741270 0.187978
C45   C     C_R   0.486881 0.929025 0.627719 0.000233
C46   C     C_R   0.503923 0.052589 0.627201 0.011567
C47   C     C_R   0.497915 0.125647 0.506339 -0.168000
C48   C     C_R   0.477912 0.067530 0.392982 -0.117616
C49   C     C_R   0.473144 0.939396 0.388017 0.448612
C50   C     C_R   0.484625 0.868281 0.503633 -0.196170
C51   C     C_R   0.573942 0.632722 0.127696 0.141432
C52   C     C_R   0.617752 0.645316 0.053155 0.393345
C53   C     C_R   0.615425 0.660804 0.912343 -0.161422
H7    H     H_    0.646360 0.697038 0.853123 0.206506
C54   C     C_R   0.572195 0.634390 0.849073 -0.162553
H8    H     H_    0.569630 0.665766 0.745178 0.223381
C55   C     C_R   0.535110 0.566542 0.920929 0.114868
C56   C     C_R   0.535937 0.564320 0.068672 0.000850
N3    N     N_R   0.500460 0.501210 0.147910 -0.222629
C57   C     C_R   0.465249 0.438587 0.079615 0.535865
C58   C     C_R   0.465954 0.435866 0.932212 0.385271
N4    N     N_R   0.500480 0.501290 0.852040 -0.246555
I1    I     I_    0.343488 0.282942 0.702879 -0.207586
I2    I     I_    0.261209 0.684473 0.202170 -0.152508
O13   O     O_3   0.134036 0.860756 0.383636 -0.624911
H9    H     H_    0.112182 0.924421 0.349722 0.347035
O14   O     O_3   0.979029 0.875741 0.548684 -0.708775
H10   H     H_    0.957805 0.932774 0.595702 0.356857
I3    I     I_    0.635419 0.795861 0.454580 -0.230965
I4    I     I_    0.870088 0.936078 0.459093 -0.120619
I5    I     I_    0.756070 0.754455 0.307168 -0.085891
I6    I     I_    0.583182 0.204245 0.769821 -0.278531
I7    I     I_    0.506337 0.137961 0.058085 -0.216208
I8    I     I_    0.404402 0.904346 0.001915 -0.187500
O15   O     O_3   0.452677 0.888623 0.275213 -0.665656
H11   H     H_    0.436588 0.808298 0.302527 0.331182
O16   O     O_3   0.430466 0.372881 0.157136 -0.674936
H12   H     H_    0.405606 0.336396 0.097739 0.371290
I9    I     I_    0.556524 0.818109 0.157223 -0.182764
O17   O     O_3   0.660768 0.671720 0.114145 -0.657189
H13   H     H_    0.656943 0.642717 0.210077 0.340596
O18   O     O_3   0.431536 0.362019 0.873853 -0.720320
H14   H     H_    0.443678 0.339911 0.783922 0.389023
I10   I     I_    0.125156 0.136077 0.540897 -0.087499
O19   O     O_3   0.742316 0.361646 0.686152 -0.656293
H15   H     H_    0.718177 0.301289 0.727580 0.356021
I11   I     I_    0.854492 0.190063 0.710302 -0.105993
O20   O     O_3   0.971538 0.233905 0.653385 -0.688809
H16   H     H_    0.950608 0.158397 0.663753 0.353992
I12   I     I_    0.010948 0.166807 0.372526 -0.237107

loop_
_geom_bond_atom_site_label_1
_geom_bond_atom_site_label_2
_geom_bond_distance
_ccdc_geom_bond_type
H5    C48   1.075883 S    
O13   H9    0.991018 S    
C36   I12   2.151028 S    
C10   H1    1.083167 S    
C57   O16   1.381196 S    
C7    C8    1.397779 A    
C12   C15   1.409896 A    
C7    I2    2.124089 S    
C31   I5    2.140065 S    
C14   I10   2.140111 S    
O15   H11   0.990859 S    
C15   C37   1.404464 A    
Cu1   Cu2   2.753576 S    
C31   C32   1.420886 A    
Cu1   O7    1.947035 S    
C49   O15   1.370668 S    
C24   C25   1.405820 A    
O4    C2    1.314812 A    
C35   C40   1.411854 A    
C23   C24   1.400895 A    
C1    C47   1.477796 S    
C21   C22   1.414428 A    
C8    H3    1.083660 S    
C28   C32   1.415819 A    
C55   N4    1.370671 A    
O7    C4    1.310103 A    
C29   H2    1.071918 S    
C5    C13   1.413150 A    
C5    O9    1.346779 S    
C42   I7    2.097096 S    
C38   C39   1.412120 A    
Cu1   O5    1.961459 S    
C45   C50   1.400385 A    
C51   C52   1.409460 A    
O5    C3    1.309616 A    
O20   H16   0.987443 S    
C6    O11   1.349201 S    
C33   C36   1.416390 A    
C2    C16   1.476962 S    
O16   H12   0.988795 S    
C46   C47   1.419615 A    
C44   C45   1.402826 A    
O19   H15   0.991836 S    
C18   C20   1.417066 A    
C48   C49   1.393325 A    
C28   O19   1.381953 S    
C22   I11   2.145700 S    
C55   C56   1.446168 A    
C52   O17   1.369385 S    
C51   I9    2.114120 S    
Cu1   N4    2.069737 S    
C40   H4    1.077107 S    
C9    C10   1.393746 A    
C17   C30   1.402771 A    
C23   C27   1.401577 A    
C47   C48   1.404459 A    
C4    C17   1.477700 S    
O3    Cu1   1.954243 S    
O18   H14   0.977712 S    
N3    C57   1.364844 A    
C37   C40   1.402171 A    
C54   C55   1.408665 A    
C9    I1    2.111285 S    
C52   C53   1.386264 A    
Cu2   N3    2.068968 S    
C12   C13   1.413343 A    
C43   I8    2.108131 S    
O3    C2    1.326030 A    
C58   O18   1.366914 S    
C26   N2    1.374475 A    
C8    C16   1.406997 A    
C13   C14   1.414228 A    
C54   H8    1.066912 S    
C26   O12   1.347328 S    
C20   C24   1.412586 A    
C45   C46   1.403608 A    
O1    C1    1.317797 A    
C22   C23   1.404465 A    
C7    C11   1.410731 A    
C53   H7    1.083250 S    
C41   C42   1.402440 A    
C25   C39   1.409019 A    
C58   N4    1.388759 A    
Cu2   O8    1.954238 S    
N1    C6    1.366963 A    
C27   O10   1.348811 S    
C18   C21   1.420903 A    
N1    C11   1.445257 S    
C53   C54   1.384876 A    
C19   C35   1.428488 A    
C30   I3    2.126585 S    
C37   O13   1.381708 S    
N2    C27   1.372905 A    
C9    C16   1.408466 A    
O8    C4    1.329754 A    
C57   C58   1.443814 A    
C18   C33   1.419197 A    
C41   I6    2.123201 S    
C21   O20   1.382586 S    
C17   C29   1.394541 A    
C28   C29   1.403670 A    
N2    C32   1.457552 S    
C30   C31   1.407689 A    
C12   C34   1.420340 A    
C5    N1    1.370080 A    
C38   O14   1.381182 S    
O1    Cu1   1.974341 S    
O2    Cu2   1.961459 S    
C6    C15   1.407039 A    
C56   N3    1.390161 A    
O6    C3    1.330772 A    
O4    Cu2   1.947037 S    
C3    C50   1.476756 S    
C41   C46   1.404675 A    
C19   C20   1.416863 A    
O2    C1    1.322480 A    
C49   C50   1.398473 A    
C14   C36   1.399651 A    
C43   C44   1.389975 A    
C25   C26   1.416318 A    
C33   C34   1.413893 A    
C51   C56   1.408735 A    
C39   I4    2.137870 S    
C44   H6    1.083351 S    
O17   H13   0.983940 S    
C42   C43   1.406561 A    
Cu2   O6    1.974341 S    
C34   C35   1.419736 A    
C10   C11   1.402958 A    
O14   H10   0.989990 S    
C19   C38   1.425175 A    
