data_mof_unit_10727.cif
_audit_creation_date              2012-12-11T15:09:01-0500
_audit_creation_method            fapswitch 2.2
_symmetry_space_group_name_H-M    P1
_symmetry_Int_Tables_number       1
_space_group_crystal_system       triclinic
_cell_length_a                    20.212417
_cell_length_b                    11.471788
_cell_length_c                    18.655564
_cell_angle_alpha                 89.306985
_cell_angle_beta                  89.725201
_cell_angle_gamma                 90.923516
_cell_volume                      4324.78126361

loop_
_atom_site_label
_atom_site_type_symbol
_atom_type_description
_atom_site_fract_x
_atom_site_fract_y
_atom_site_fract_z
_atom_type_partial_charge
C1    C     C_R   0.288158 0.000847 0.863165 0.528292
C2    C     C_R   0.722805 0.029634 0.141320 0.529087
C3    C     C_R   0.787823 0.501048 0.863241 0.527198
C4    C     C_R   0.223453 0.531392 0.141915 0.533571
C5    C     C_3   0.527835 0.737256 0.961344 0.032959
C6    C     C_3   0.489937 0.725224 0.031981 0.033029
C7    C     C_3   0.027645 0.239106 0.961074 0.031321
C8    C     C_3   0.989868 0.226617 0.031688 0.031767
C9    C     C_3   0.310499 0.530513 0.042650 -0.232885
C10   C     C_3   0.701080 0.486140 0.966235 -0.234737
C11   C     C_3   0.810741 0.030640 0.042723 -0.234237
C12   C     C_3   0.201608 0.989568 0.965209 -0.233512
C13   C     C_3   0.322162 0.546054 0.959594 -0.074467
C14   C     C_3   0.683637 0.520010 0.045835 -0.090821
C15   C     C_3   0.822716 0.046500 0.959687 -0.073527
C16   C     C_3   0.183953 0.022717 0.044824 -0.091711
C17   C     C_3   0.194872 0.472890 0.017381 -0.225922
C18   C     C_3   0.818884 0.470742 0.999061 -0.259901
C19   C     C_3   0.695381 0.972791 0.015534 -0.232499
C20   C     C_3   0.318555 0.968548 0.999285 -0.261889
C21   C     C_3   0.224409 0.673614 0.044209 -0.278896
C22   C     C_3   0.779088 0.654169 0.951946 -0.249592
C23   C     C_3   0.724428 0.172986 0.044193 -0.277564
C24   C     C_3   0.284465 0.154612 0.952929 -0.247449
C25   C     C_3   0.238544 0.551377 0.063323 0.028566
C26   C     C_3   0.771868 0.524939 0.943000 0.017028
C27   C     C_3   0.738487 0.050637 0.062799 0.027466
C28   C     C_3   0.273050 0.025613 0.942842 0.019886
C29   C     C_3   0.254785 0.586070 0.923688 0.091508
C30   C     C_3   0.745793 0.586441 0.077412 0.104402
C31   C     C_3   0.755565 0.087087 0.923571 0.098993
C32   C     C_3   0.246159 0.087883 0.076854 0.104040
C33   C     C_3   0.200256 0.495563 0.933976 -0.101029
C34   C     C_3   0.809578 0.517083 0.076494 -0.092544
C35   C     C_3   0.701111 0.997157 0.932398 -0.098642
C36   C     C_3   0.309500 0.016498 0.076494 -0.092116
C37   C     C_3   0.230399 0.692844 0.964669 -0.259237
C38   C     C_3   0.755953 0.690320 0.025163 -0.277729
C39   C     C_3   0.731091 0.193100 0.964875 -0.260459
C40   C     C_3   0.257569 0.191820 0.024346 -0.279643
C41   C     C_3   0.496991 0.706998 0.460856 -0.261797
C42   C     C_3   0.501433 0.708448 0.540341 -0.258111
C43   C     C_3   0.023926 0.219109 0.466208 -0.237969
C44   C     C_3   0.010245 0.217577 0.544344 -0.249446
C45   C     C_R   0.449492 0.818054 0.861924 0.529040
C46   C     C_R   0.555904 0.818425 0.137993 0.541166
C47   C     C_R   0.949267 0.318273 0.861919 0.525589
C48   C     C_R   0.055777 0.318592 0.137936 0.541111
C49   C     C_3   0.566059 0.891773 0.472060 -0.222448
C50   C     C_3   0.432911 0.889376 0.525383 -0.223163
C51   C     C_3   0.049377 0.435004 0.467445 -0.216564
C52   C     C_3   0.929481 0.378349 0.528290 -0.209899
C53   C     C_3   0.448055 0.902060 0.443970 -0.256651
C54   C     C_3   0.550960 0.906425 0.553033 -0.260531
C55   C     C_3   0.936264 0.363080 0.445906 -0.266873
C56   C     C_3   0.046521 0.424404 0.551051 -0.261495
C57   C     C_3   0.509831 0.831134 0.429857 0.065880
C58   C     C_3   0.489006 0.832941 0.568941 0.064035
C59   C     C_3   0.008550 0.335766 0.430312 0.059420
C60   C     C_3   0.990213 0.337476 0.570160 0.062903
C61   C     C_3   0.182059 0.638498 0.461358 -0.254319
C62   C     C_3   0.812621 0.660282 0.542125 -0.262483
C63   C     C_3   0.686491 0.156012 0.457512 -0.256901
C64   C     C_3   0.312006 0.158263 0.541592 -0.261412
C65   C     C_3   0.184124 0.646181 0.541281 -0.239573
C66   C     C_3   0.813148 0.659176 0.461701 -0.237946
C67   C     C_3   0.685952 0.154998 0.538156 -0.240358
C68   C     C_3   0.314081 0.156223 0.461395 -0.232816
C69   C     C_3   0.231448 0.439835 0.487299 -0.245878
C70   C     C_3   0.764664 0.458403 0.524607 -0.230483
C71   C     C_3   0.736107 0.957288 0.477579 -0.231262
C72   C     C_3   0.266387 0.953260 0.525862 -0.221307
C73   C     C_3   0.303847 0.605485 0.441307 -0.078674
C74   C     C_3   0.689964 0.619490 0.559439 -0.093797
C75   C     C_3   0.808316 0.125466 0.439502 -0.094907
C76   C     C_3   0.189870 0.113403 0.556651 -0.097971
C77   C     C_3   0.233613 0.548695 0.435199 0.070253
C78   C     C_3   0.759857 0.570325 0.570592 0.076606
C79   C     C_3   0.739570 0.069117 0.429705 0.077181
C80   C     C_3   0.259990 0.067204 0.569981 0.078918
C81   C     C_3   0.252558 0.603224 0.569310 0.063213
C82   C     C_3   0.745514 0.608191 0.433145 0.065093
C83   C     C_3   0.753784 0.109493 0.566905 0.061249
C84   C     C_3   0.248562 0.100327 0.431351 0.063235
C85   C     C_3   0.253836 0.470816 0.563733 -0.245884
C86   C     C_3   0.745220 0.477200 0.445660 -0.260149
C87   C     C_3   0.755062 0.978414 0.556311 -0.255528
C88   C     C_3   0.253947 0.969422 0.444352 -0.266513
C89   C     C_R   0.260907 0.633195 0.849718 0.530148
C90   C     C_R   0.737115 0.640143 0.147573 0.548459
C91   C     C_R   0.761475 0.134879 0.850208 0.534893
C92   C     C_R   0.237016 0.141040 0.147154 0.548687
C93   C     C_3   0.309358 0.650642 0.519530 -0.221876
C94   C     C_3   0.686579 0.654328 0.478375 -0.212191
C95   C     C_3   0.811708 0.160187 0.519943 -0.214418
C96   C     C_3   0.186261 0.136131 0.474257 -0.208529
C97   C     C_R   0.274454 0.040946 0.645801 0.554770
C98   C     C_R   0.724829 0.038913 0.354607 0.541001
C99   C     C_R   0.774713 0.540781 0.645732 0.552125
C100  C     C_R   0.217118 0.518096 0.360264 0.546590
C101  C     C_R   0.468384 0.824159 0.645675 0.541379
C102  C     C_R   0.531053 0.822788 0.353723 0.543371
C103  C     C_R   0.970347 0.325283 0.647091 0.534299
C104  C     C_R   0.029377 0.323915 0.353134 0.527696
C105  C     C_R   0.262136 0.644134 0.643550 0.535157
C106  C     C_R   0.737731 0.642959 0.356866 0.528666
C107  C     C_R   0.762247 0.144800 0.642991 0.529229
C108  C     C_R   0.239163 0.138390 0.355318 0.521749
C109  C     C_3   0.482862 0.917425 0.036265 0.027240
C110  C     C_3   0.520382 0.926873 0.964746 0.032633
C111  C     C_3   0.982688 0.418696 0.036395 0.027955
C112  C     C_3   0.020061 0.428921 0.964682 0.034180
C113  C     C_3   0.439639 0.815412 0.004683 -0.181010
C114  C     C_3   0.569736 0.835719 0.993890 -0.175338
C115  C     C_3   0.939460 0.316774 0.004643 -0.179844
C116  C     C_3   0.069519 0.337632 0.993684 -0.172663
C117  C     C_3   0.478952 0.826558 0.933815 0.043611
C118  C     C_3   0.530322 0.825317 0.064228 0.044257
C119  C     C_3   0.978669 0.328188 0.933717 0.042307
C120  C     C_3   0.030201 0.326424 0.064089 0.042070
Cr1   Cr    Cr6+3 0.229620 0.836040 0.749110 0.956465
Cr2   Cr    Cr6+3 0.770380 0.836040 0.250890 0.960503
Cr3   Cr    Cr6+3 0.729620 0.336040 0.749110 0.959383
Cr4   Cr    Cr6+3 0.270380 0.336040 0.250890 0.955686
Cr5   Cr    Cr6+3 0.387630 0.990680 0.750730 0.968615
Cr6   Cr    Cr6+3 0.612370 0.990680 0.249270 0.961546
Cr7   Cr    Cr6+3 0.887630 0.490680 0.750730 0.968244
Cr8   Cr    Cr6+3 0.112370 0.490680 0.249270 0.960746
Cr9   Cr    Cr6+3 0.386020 0.676590 0.749210 0.951047
Cr10  Cr    Cr6+3 0.613980 0.676590 0.250790 0.948394
Cr11  Cr    Cr6+3 0.886020 0.176590 0.749210 0.948565
Cr12  Cr    Cr6+3 0.113980 0.176590 0.250790 0.947913
H1    H     H_    0.388730 0.783572 0.010650 0.067771
H2    H     H_    0.620998 0.816101 0.994800 0.075099
H3    H     H_    0.888796 0.283934 0.010774 0.067357
H4    H     H_    0.120556 0.317219 0.995050 0.078118
H5    H     H_    0.172432 0.690303 0.060269 0.137253
H6    H     H_    0.832052 0.679471 0.944832 0.135966
H7    H     H_    0.672270 0.189165 0.059770 0.137454
H8    H     H_    0.338476 0.175078 0.950859 0.128379
H9    H     H_    0.261468 0.727931 0.071831 0.104588
H10   H     H_    0.748718 0.693928 0.910185 0.132615
H11   H     H_    0.761277 0.227186 0.072264 0.105341
H12   H     H_    0.261455 0.201178 0.908311 0.137087
H13   H     H_    0.264382 0.762456 0.949450 0.110159
H14   H     H_    0.706840 0.723581 0.016060 0.090743
H15   H     H_    0.765494 0.262480 0.950512 0.106958
H16   H     H_    0.208929 0.224486 0.011644 0.090019
H17   H     H_    0.179906 0.717679 0.946741 0.130184
H18   H     H_    0.790439 0.758182 0.045596 0.127835
H19   H     H_    0.680641 0.217701 0.946680 0.130403
H20   H     H_    0.290651 0.260772 0.045879 0.129820
H21   H     H_    0.644744 0.987000 0.033082 0.107311
H22   H     H_    0.368881 0.979555 0.979896 0.109777
H23   H     H_    0.144335 0.488781 0.034698 0.107731
H24   H     H_    0.869008 0.483631 0.979396 0.110269
H25   H     H_    0.155886 0.539741 0.918662 0.145280
H26   H     H_    0.846856 0.584924 0.086100 0.150372
H27   H     H_    0.656874 0.041560 0.917073 0.140619
H28   H     H_    0.347220 0.083676 0.085850 0.150447
H29   H     H_    0.529646 0.636963 0.441861 0.138443
H30   H     H_    0.468752 0.636638 0.560693 0.142658
H31   H     H_    0.075677 0.208467 0.458724 0.131063
H32   H     H_    0.972799 0.147489 0.555180 0.139590
H33   H     H_    0.446228 0.683474 0.447588 0.143044
H34   H     H_    0.552108 0.689058 0.554356 0.146012
H35   H     H_    0.999065 0.144143 0.440668 0.136303
H36   H     H_    0.055756 0.199125 0.573147 0.137652
H37   H     H_    0.605560 0.830680 0.466468 0.108462
H38   H     H_    0.393289 0.825543 0.531996 0.109620
H39   H     H_    0.099039 0.434261 0.445497 0.123847
H40   H     H_    0.889103 0.327314 0.550824 0.109846
H41   H     H_    0.593445 0.877024 0.585974 0.093907
H42   H     H_    0.405734 0.868976 0.411809 0.091855
H43   H     H_    0.094187 0.393373 0.572950 0.098586
H44   H     H_    0.903720 0.291953 0.428728 0.119090
H45   H     H_    0.456966 0.995230 0.429127 0.120609
H46   H     H_    0.541965 0.999532 0.565235 0.120513
H47   H     H_    0.921358 0.443419 0.416800 0.101597
H48   H     H_    0.036468 0.510964 0.574605 0.117562
H49   H     H_    0.420411 0.975579 0.547443 0.130052
H50   H     H_    0.579180 0.977273 0.447900 0.134890
H51   H     H_    0.921255 0.471808 0.539814 0.124607
H52   H     H_    0.029149 0.521120 0.451329 0.120495
H53   H     H_    0.130406 0.618416 0.446335 0.132976
H54   H     H_    0.864170 0.641716 0.558596 0.141121
H55   H     H_    0.635034 0.137128 0.440907 0.138693
H56   H     H_    0.363537 0.142623 0.559115 0.140183
H57   H     H_    0.193580 0.725298 0.436946 0.118138
H58   H     H_    0.801026 0.748149 0.562127 0.110001
H59   H     H_    0.698128 0.244724 0.436536 0.109441
H60   H     H_    0.299202 0.245655 0.561030 0.109038
H61   H     H_    0.171499 0.736611 0.554651 0.127797
H62   H     H_    0.827314 0.747856 0.443400 0.133221
H63   H     H_    0.671853 0.242974 0.555099 0.129879
H64   H     H_    0.327902 0.244331 0.442530 0.130247
H65   H     H_    0.144126 0.591380 0.565674 0.126773
H66   H     H_    0.854173 0.603992 0.442348 0.117434
H67   H     H_    0.645460 0.096769 0.558564 0.122018
H68   H     H_    0.356705 0.103451 0.443528 0.117417
H69   H     H_    0.685310 0.931926 0.478729 0.106709
H70   H     H_    0.316104 0.929171 0.532898 0.105023
H71   H     H_    0.182300 0.404191 0.494650 0.093559
H72   H     H_    0.815801 0.437878 0.523469 0.107572
H73   H     H_    0.719721 0.932383 0.593305 0.094860
H74   H     H_    0.294903 0.932488 0.412328 0.097130
H75   H     H_    0.220537 0.428764 0.604551 0.095550
H76   H     H_    0.780835 0.433908 0.409284 0.093587
H77   H     H_    0.305683 0.683266 0.404900 0.121569
H78   H     H_    0.686112 0.701136 0.590836 0.111602
H79   H     H_    0.809308 0.206459 0.405977 0.109416
H80   H     H_    0.185177 0.199206 0.583283 0.109885
H81   H     H_    0.303342 0.744035 0.516057 0.084629
H82   H     H_    0.692080 0.747619 0.475135 0.087011
H83   H     H_    0.804527 0.252570 0.519521 0.088728
H84   H     H_    0.177846 0.228692 0.463232 0.090751
H85   H     H_    0.358164 0.632836 0.543423 0.127591
H86   H     H_    0.638711 0.628957 0.454284 0.129572
H87   H     H_    0.859950 0.139331 0.544408 0.131992
H88   H     H_    0.145135 0.083020 0.451725 0.130156
H89   H     H_    0.259764 0.368712 0.466195 0.115712
H90   H     H_    0.737841 0.384541 0.548517 0.123282
H91   H     H_    0.764064 0.886197 0.455060 0.121890
H92   H     H_    0.236488 0.881214 0.547708 0.122780
H93   H     H_    0.304882 0.439788 0.573531 0.123719
H94   H     H_    0.694971 0.440280 0.435643 0.120080
H95   H     H_    0.805516 0.945439 0.567168 0.122630
H96   H     H_    0.207617 0.923387 0.428497 0.111142
H97   H     H_    0.327012 0.444588 0.063109 0.136644
H98   H     H_    0.694154 0.394397 0.959277 0.117262
H99   H     H_    0.827306 0.944667 0.063185 0.136811
H100  H     H_    0.193730 0.897510 0.957395 0.117143
H101  H     H_    0.337945 0.596324 0.072752 0.092052
H102  H     H_    0.666998 0.515579 0.925866 0.136153
H103  H     H_    0.837989 0.096382 0.073113 0.092650
H104  H     H_    0.168415 0.021237 0.924680 0.137040
H105  H     H_    0.358107 0.618669 0.950343 0.138994
H106  H     H_    0.642888 0.582062 0.042140 0.133020
H107  H     H_    0.858665 0.119066 0.950409 0.137411
H108  H     H_    0.143461 0.085380 0.041518 0.131119
H109  H     H_    0.710958 0.888984 0.030533 0.112152
H110  H     H_    0.306572 0.879084 0.006077 0.112681
H111  H     H_    0.208846 0.388472 0.034378 0.108214
H112  H     H_    0.807964 0.380907 0.005574 0.113529
O1    O     O_R   0.214130 0.708570 0.829890 -0.550011
O2    O     O_R   0.785870 0.708570 0.170110 -0.547591
O3    O     O_R   0.714130 0.208570 0.829890 -0.546015
O4    O     O_R   0.285870 0.208570 0.170110 -0.548403
O5    O     O_R   0.446360 0.919990 0.675230 -0.509780
O6    O     O_R   0.553640 0.919990 0.324770 -0.511314
O7    O     O_R   0.946360 0.419990 0.675230 -0.509666
O8    O     O_R   0.053640 0.419990 0.324770 -0.514648
O9    O     O_R   0.457170 0.717300 0.668380 -0.540209
O10   O     O_R   0.542830 0.717300 0.331620 -0.539937
O11   O     O_R   0.957170 0.217300 0.668380 -0.540995
O12   O     O_R   0.042830 0.217300 0.331620 -0.538606
O13   O     O_R   0.320870 0.624890 0.673130 -0.517745
O14   O     O_R   0.679130 0.624890 0.326870 -0.522552
O15   O     O_R   0.820870 0.124890 0.673130 -0.519700
O16   O     O_R   0.179130 0.124890 0.326870 -0.521223
O17   O     O_3   0.334430 0.834430 0.749680 -0.298072
O18   O     O_3   0.665570 0.834430 0.250320 -0.291163
O19   O     O_3   0.834430 0.334430 0.749680 -0.297233
O20   O     O_3   0.165570 0.334430 0.250320 -0.295673
O21   O     O_R   0.236050 0.959150 0.825270 -0.511272
O22   O     O_R   0.763950 0.959150 0.174730 -0.516239
O23   O     O_R   0.736050 0.459150 0.825270 -0.511230
O24   O     O_R   0.263950 0.459150 0.174730 -0.514770
O25   O     O_R   0.332100 0.076650 0.832310 -0.542963
O26   O     O_R   0.667900 0.076650 0.167690 -0.550462
O27   O     O_R   0.832100 0.576650 0.832310 -0.543320
O28   O     O_R   0.167900 0.576650 0.167690 -0.548588
O29   O     O_R   0.446500 0.918620 0.826240 -0.522286
O30   O     O_R   0.553500 0.918620 0.173760 -0.513548
O31   O     O_R   0.946500 0.418620 0.826240 -0.524326
O32   O     O_R   0.053500 0.418620 0.173760 -0.513465
O33   O     O_R   0.457310 0.715830 0.831280 -0.539445
O34   O     O_R   0.542690 0.715830 0.168720 -0.533091
O35   O     O_R   0.957310 0.215830 0.831280 -0.538696
O36   O     O_R   0.042690 0.215830 0.168720 -0.532610
O37   O     O_R   0.321000 0.623520 0.824130 -0.526305
O38   O     O_R   0.679000 0.623520 0.175870 -0.532058
O39   O     O_R   0.821000 0.123520 0.824130 -0.529471
O40   O     O_R   0.179000 0.123520 0.175870 -0.531049
O41   O     O_R   0.213990 0.710040 0.667000 -0.542972
O42   O     O_R   0.786010 0.710040 0.333000 -0.540626
O43   O     O_R   0.713990 0.210040 0.667000 -0.539285
O44   O     O_R   0.286010 0.210040 0.333000 -0.543152
O45   O     O_R   0.235920 0.960520 0.674260 -0.513369
O46   O     O_R   0.764080 0.960520 0.325740 -0.516338
O47   O     O_R   0.735920 0.460520 0.674260 -0.517984
O48   O     O_R   0.264080 0.460520 0.325740 -0.514764
O49   O     O_R   0.331960 0.078120 0.669410 -0.537508
O50   O     O_R   0.668040 0.078120 0.330590 -0.539791
O51   O     O_R   0.831960 0.578120 0.669410 -0.535155
O52   O     O_R   0.168040 0.578120 0.330590 -0.536584
C121  C     C_3   0.467138 0.031727 0.075733 -0.259091
C122  C     C_3   0.524168 0.116170 0.093674 -0.394059
H113  H     H_    0.519395 0.146163 0.149847 0.144789
H114  H     H_    0.572071 0.075530 0.087591 0.190635
H115  H     H_    0.523917 0.195367 0.058883 0.097835
H116  H     H_    0.436465 0.083957 0.040038 0.126355
H117  H     H_    0.442568 0.007900 0.126441 0.164868
C123  C     C_3   0.536031 0.043265 0.924805 -0.256812
C124  C     C_3   0.478211 0.122966 0.907120 -0.401072
H118  H     H_    0.485557 0.162741 0.853022 0.138231
H119  H     H_    0.431085 0.075111 0.907466 0.193466
H120  H     H_    0.474908 0.195816 0.945466 0.104524
H121  H     H_    0.569538 0.096480 0.958136 0.121202
H122  H     H_    0.559294 0.020810 0.873325 0.154711
C125  C     C_3   0.966948 0.532354 0.076608 -0.259053
C126  C     C_3   0.023707 0.617100 0.094993 -0.394637
H123  H     H_    0.018938 0.646002 0.151393 0.144876
H124  H     H_    0.071718 0.577202 0.088538 0.190694
H125  H     H_    0.023131 0.696951 0.060781 0.097862
H126  H     H_    0.936216 0.584880 0.041299 0.127662
H127  H     H_    0.942520 0.507724 0.127210 0.165426
C127  C     C_3   0.035187 0.547233 0.925775 -0.256641
C128  C     C_3   0.977025 0.626414 0.908617 -0.405116
H128  H     H_    0.985175 0.669773 0.855667 0.134609
H129  H     H_    0.930419 0.577370 0.906380 0.196129
H130  H     H_    0.972265 0.696861 0.948396 0.106222
H131  H     H_    0.068656 0.600036 0.959449 0.121126
H132  H     H_    0.058839 0.529042 0.873893 0.154529
C129  C     C_3   0.362593 0.523262 0.420166 -0.264595
C130  C     C_3   0.398142 0.559085 0.349554 -0.417215
H133  H     H_    0.373953 0.521186 0.301954 0.184102
H134  H     H_    0.400356 0.655061 0.341402 0.142121
H135  H     H_    0.449464 0.525983 0.350326 0.133819
H136  H     H_    0.399454 0.516547 0.463724 0.106152
H137  H     H_    0.347109 0.431757 0.414128 0.169433
C131  C     C_3   0.632406 0.533042 0.584156 -0.270249
C132  C     C_3   0.600607 0.566060 0.656355 -0.424481
H138  H     H_    0.630228 0.536358 0.702595 0.182307
H139  H     H_    0.594863 0.661589 0.661578 0.142079
H140  H     H_    0.551001 0.523592 0.661216 0.138193
H141  H     H_    0.593707 0.524843 0.542666 0.107549
H142  H     H_    0.647429 0.441653 0.589631 0.169937
C133  C     C_3   0.867917 0.048570 0.415909 -0.271151
C134  C     C_3   0.896706 0.082452 0.341948 -0.418007
H143  H     H_    0.859553 0.075845 0.298847 0.179764
H144  H     H_    0.915843 0.172942 0.340700 0.148533
H145  H     H_    0.938163 0.023900 0.328853 0.136695
H146  H     H_    0.907946 0.053237 0.455648 0.114483
H147  H     H_    0.855434 0.954715 0.414764 0.165288
C135  C     C_3   0.132141 0.029283 0.584762 -0.268911
C136  C     C_3   0.105483 0.058170 0.660233 -0.414023
H148  H     H_    0.124907 0.998942 0.702129 0.180192
H149  H     H_    0.116839 0.149513 0.675605 0.137220
H150  H     H_    0.050926 0.045031 0.661546 0.139364
H151  H     H_    0.089985 0.029199 0.547091 0.109641
H152  H     H_    0.145053 0.936445 0.585212 0.161660
C137  C     C_3   0.565672 0.654707 0.913340 -0.241230
C138  C     C_3   0.538148 0.530577 0.914037 -0.421993
H153  H     H_    0.484649 0.531530 0.923452 0.170479
H154  H     H_    0.548635 0.488103 0.862126 0.131477
H155  H     H_    0.560625 0.478272 0.957280 0.125510
H156  H     H_    0.569258 0.689283 0.857678 0.174867
H157  H     H_    0.616517 0.659011 0.931536 0.098221
C139  C     C_3   0.460421 0.615622 0.068047 -0.258221
C140  C     C_3   0.505263 0.519770 0.093202 -0.412862
H158  H     H_    0.555384 0.553845 0.094246 0.201312
H159  H     H_    0.490450 0.490331 0.148008 0.136126
H160  H     H_    0.502124 0.442295 0.058232 0.106429
H161  H     H_    0.430517 0.644342 0.114522 0.157690
H162  H     H_    0.431434 0.574743 0.026715 0.129288
C141  C     C_3   0.065444 0.156839 0.912924 -0.239676
C142  C     C_3   0.038057 0.032701 0.912914 -0.421116
H163  H     H_    0.984266 0.033682 0.920503 0.172120
H164  H     H_    0.049872 0.990346 0.861301 0.130582
H165  H     H_    0.059866 0.980544 0.956649 0.126128
H166  H     H_    0.069430 0.191650 0.857397 0.174809
H167  H     H_    0.115917 0.161057 0.931635 0.100068
C143  C     C_3   0.960573 0.116775 0.067658 -0.258383
C144  C     C_3   0.005546 0.020957 0.092518 -0.412336
H168  H     H_    0.055707 0.054948 0.092869 0.200972
H169  H     H_    0.991190 0.991929 0.147542 0.137461
H170  H     H_    0.002007 0.943224 0.057789 0.105918
H171  H     H_    0.930667 0.145153 0.114213 0.156791
H172  H     H_    0.931659 0.076008 0.026328 0.129843
C145  C     C_3   0.355888 0.432667 0.932965 -0.292814
C146  C     C_3   0.382514 0.423673 0.855824 -0.399914
H173  H     H_    0.414370 0.498896 0.840393 0.192420
H174  H     H_    0.412907 0.344283 0.851882 0.109280
H175  H     H_    0.343215 0.415011 0.815209 0.163780
H176  H     H_    0.398531 0.413471 0.968238 0.113215
H177  H     H_    0.321462 0.361510 0.943461 0.149821
C147  C     C_3   0.656103 0.411689 0.086885 -0.300759
C148  C     C_3   0.638845 0.404305 0.167302 -0.394557
H178  H     H_    0.600711 0.465681 0.184508 0.170024
H179  H     H_    0.618930 0.315392 0.179416 0.128604
H180  H     H_    0.683217 0.415681 0.201272 0.164611
H181  H     H_    0.614804 0.371772 0.056165 0.116471
H182  H     H_    0.697105 0.358491 0.083286 0.164546
C149  C     C_3   0.856530 0.933113 0.933460 -0.289309
C150  C     C_3   0.879554 0.920868 0.855294 -0.397072
H183  H     H_    0.912930 0.993195 0.838140 0.187535
H184  H     H_    0.907482 0.838871 0.850389 0.111306
H185  H     H_    0.838203 0.915014 0.816931 0.166186
H186  H     H_    0.900760 0.916768 0.966860 0.111667
H187  H     H_    0.823454 0.861501 0.947452 0.145273
C151  C     C_3   0.156484 0.913573 0.085049 -0.300256
C152  C     C_3   0.139027 0.904484 0.165390 -0.394534
H188  H     H_    0.100794 0.965370 0.182949 0.169867
H189  H     H_    0.119199 0.815278 0.176771 0.129246
H190  H     H_    0.183184 0.915458 0.199690 0.165482
H191  H     H_    0.115267 0.874097 0.053987 0.116312
H192  H     H_    0.197683 0.860714 0.080872 0.164835
C153  C     C_3   0.700723 0.895975 0.877371 -0.311966
C154  C     C_3   0.679347 0.928577 0.800615 -0.429085
H193  H     H_    0.658900 0.850064 0.773696 0.130323
H194  H     H_    0.641430 0.996851 0.799077 0.156830
H195  H     H_    0.722453 0.959654 0.768179 0.161636
H196  H     H_    0.749430 0.860483 0.870844 0.161277
H197  H     H_    0.667440 0.825335 0.895048 0.137854
C155  C     C_3   0.320223 0.923626 0.138189 -0.313580
C156  C     C_3   0.336428 0.972853 0.212451 -0.416534
H198  H     H_    0.361987 0.905576 0.244948 0.127443
H199  H     H_    0.368855 0.051570 0.209457 0.167296
H200  H     H_    0.290413 0.994456 0.241606 0.168690
H201  H     H_    0.278421 0.863900 0.146824 0.143644
H202  H     H_    0.361753 0.867085 0.122860 0.146570
C157  C     C_3   0.200523 0.392375 0.880414 -0.308186
C158  C     C_3   0.160107 0.410215 0.811719 -0.459673
H203  H     H_    0.107564 0.385540 0.821079 0.151399
H204  H     H_    0.163689 0.501116 0.791163 0.176240
H205  H     H_    0.178611 0.351828 0.769211 0.137277
H206  H     H_    0.250244 0.375142 0.861542 0.164627
H207  H     H_    0.181002 0.312932 0.905430 0.137203
C159  C     C_3   0.820697 0.423778 0.137924 -0.314244
C160  C     C_3   0.836748 0.472608 0.212371 -0.418358
H208  H     H_    0.862668 0.405434 0.244605 0.126109
H209  H     H_    0.868776 0.551840 0.209627 0.168148
H210  H     H_    0.790683 0.493377 0.241722 0.168528
H211  H     H_    0.779068 0.363778 0.146586 0.142655
H212  H     H_    0.862273 0.367526 0.122432 0.146190

loop_
_geom_bond_atom_site_label_1
_geom_bond_atom_site_label_2
_ccdc_geom_bond_type
C4    O28   A    
C82   C94   S    
C55   C59   S    
C90   O38   A    
C73   C93   S    
C42   C58   S    
C29   C89   S    
C75   C95   S    
C62   H58   S    
Cr5   O29   S    
C132  H138  S    
C24   H8    S    
C123  H122  S    
C57   C102  S    
C46   O30   A    
C127  H131  S    
C59   C104  S    
C16   C151  S    
C152  H189  S    
C5    C137  S    
C5    C6    S    
Cr11  O11   S    
Cr4   O20   S    
C147  H182  S    
C22   C38   S    
C15   H107  S    
C30   C38   S    
C77   C100  S    
C44   H36   S    
C9    C13   S    
C87   H73   S    
Cr10  O14   S    
C11   C15   S    
C12   C16   S    
C95   H87   S    
C121  H116  S    
C130  H133  S    
C21   H5    S    
C60   C103  S    
C100  O52   A    
Cr2   O2    S    
C113  H1    S    
C61   H57   S    
C23   H11   S    
C142  H163  S    
C64   H60   S    
C47   O35   A    
C109  C118  S    
C48   O36   A    
C11   H103  S    
C140  H160  S    
C94   H82   S    
C50   C53   S    
C9    H101  S    
C7    C119  S    
C134  H143  S    
C48   C120  S    
Cr1   O21   S    
C62   C66   S    
Cr2   O18   S    
C13   H105  S    
C20   C28   S    
C96   H88   S    
Cr4   O24   S    
C54   H46   S    
C76   C135  S    
C153  H197  S    
C101  O9    A    
C43   C44   S    
C66   C82   S    
C11   C27   S    
C130  H135  S    
C8    C143  S    
C58   C101  S    
C151  H192  S    
Cr10  O10   S    
C141  H166  S    
C45   O33   A    
C145  C146  S    
C19   H21   S    
C122  H113  S    
C17   H23   S    
C18   H24   S    
Cr7   O51   S    
C132  H140  S    
Cr8   O52   S    
C11   H99   S    
Cr6   O26   S    
C3    C26   S    
C84   C88   S    
C31   C91   S    
C150  H184  S    
Cr4   O48   S    
C53   H45   S    
C144  H168  S    
C67   H67   S    
C96   H84   S    
C17   C25   S    
C155  C156  S    
Cr5   O5    S    
C103  O7    A    
C100  O48   A    
C19   C35   S    
C76   C96   S    
C32   C92   S    
C2    O26   A    
C72   H92   S    
C89   O1    A    
C129  H137  S    
C69   H89   S    
C143  H171  S    
C19   H109  S    
C21   H9    S    
C61   C65   S    
C17   H111  S    
Cr5   O25   S    
C78   C99   S    
C73   C77   S    
C153  C154  S    
C75   C79   S    
C142  H165  S    
Cr6   O50   S    
C73   C129  S    
C128  H129  S    
Cr2   O22   S    
C67   C83   S    
C104  O8    A    
C29   C33   S    
C80   C97   S    
C69   C77   S    
C111  C112  S    
Cr2   O46   S    
C134  H145  S    
C30   C34   S    
C52   H40   S    
C71   C79   S    
C4    C25   S    
C92   O4    A    
C7    C8    S    
C160  H209  S    
C64   C68   S    
C73   H77   S    
C24   H12   S    
Cr9   O13   S    
C1    O25   A    
C112  C127  S    
C2    O22   A    
C39   H19   S    
C10   H98   S    
C49   C57   S    
C126  H123  S    
C40   H20   S    
C93   H85   S    
C143  C144  S    
C38   H14   S    
C99   O47   A    
C52   C60   S    
C84   C108  S    
C145  H176  S    
C61   C77   S    
C147  C148  S    
C124  H119  S    
C148  H180  S    
C91   O39   A    
C155  H202  S    
C110  C114  S    
C97   O45   A    
C43   C59   S    
C62   H54   S    
C76   H80   S    
C133  H146  S    
Cr6   O30   S    
Cr7   O27   S    
C88   H74   S    
Cr8   O28   S    
C139  C140  S    
C156  H199  S    
C7    C141  S    
Cr11  O19   S    
Cr12  O36   S    
C81   C105  S    
C36   C155  S    
C131  C132  S    
C10   C14   S    
Cr12  O12   S    
C105  O41   A    
C116  C120  S    
C7    C116  S    
Cr4   O4    S    
C107  O43   A    
C108  O44   A    
C149  H186  S    
C160  H208  S    
C22   H10   S    
C61   H53   S    
C114  H2    S    
C66   H66   S    
C154  H193  S    
C137  H157  S    
C113  C117  S    
C48   O32   A    
C158  H203  S    
Cr9   O9    S    
C63   H55   S    
C74   C78   S    
C85   H93   S    
C112  C116  S    
C69   C85   S    
C85   H75   S    
C72   H70   S    
C151  C152  S    
C56   H48   S    
C144  H170  S    
C45   C117  S    
C21   C25   S    
C149  H187  S    
C55   H47   S    
C62   C78   S    
C101  O5    A    
C76   C80   S    
C131  H141  S    
C42   H30   S    
C15   C31   S    
C43   H35   S    
C16   C32   S    
C115  C119  S    
C126  H125  S    
C127  H132  S    
C92   O40   A    
C136  H150  S    
C139  H162  S    
C88   H96   S    
C115  H3    S    
C45   O29   A    
C111  C125  S    
C82   C106  S    
C55   H44   S    
C16   H108  S    
C138  H153  S    
Cr5   O17   S    
C31   C39   S    
C130  H134  S    
C159  H211  S    
C81   C85   S    
C83   C87   S    
C146  H173  S    
C34   C159  S    
C41   H29   S    
C103  O11   A    
C41   C42   S    
C74   C94   S    
C18   C26   S    
C30   C90   S    
C75   C133  S    
C142  H164  S    
C137  C138  S    
C9    C25   S    
C20   H110  S    
C140  H159  S    
C75   H79   S    
C17   C33   S    
C12   C28   S    
C97   O49   A    
C13   C29   S    
C98   O46   A    
C134  H144  S    
C99   O51   A    
C18   H112  S    
C46   C118  S    
C71   H69   S    
C153  H196  S    
C66   H62   S    
C158  H205  S    
C141  C142  S    
C1    C28   S    
C52   H51   S    
C2    C27   S    
Cr3   O47   S    
Cr11  O35   S    
C52   C55   S    
Cr12  O20   S    
Cr1   O1    S    
C70   H72   S    
C64   C80   S    
C122  H114  S    
Cr9   O17   S    
C110  C117  S    
Cr11  O39   S    
C33   H25   S    
C65   H61   S    
C132  H139  S    
C123  H121  S    
C133  H147  S    
C91   O3    A    
C10   H102  S    
C3    O23   A    
C40   H16   S    
C93   H81   S    
C50   C58   S    
C24   C28   S    
C135  H151  S    
C152  H190  S    
C150  H183  S    
Cr12  O16   S    
C51   H52   S    
C86   H76   S    
C136  H148  S    
C14   H106  S    
C53   C57   S    
C146  H175  S    
C147  H181  S    
C82   C86   S    
C56   C60   S    
C102  O10   A    
C122  H115  S    
C68   C84   S    
C33   C157  S    
C65   C81   S    
C133  C134  S    
C38   H18   S    
C121  H117  S    
C129  H136  S    
C68   H64   S    
C143  H172  S    
Cr10  O18   S    
Cr3   O43   S    
Cr11  O15   S    
Cr4   O44   S    
Cr12  O40   S    
C87   H95   S    
C31   C35   S    
C32   C36   S    
C23   H7    S    
C105  O13   A    
C106  O42   A    
C37   H17   S    
C112  C119  S    
C149  C150  S    
C135  H152  S    
C116  H4    S    
C6    C139  S    
C4    O24   A    
C22   H6    S    
C89   O37   A    
C68   H68   S    
Cr6   O6    S    
C13   C145  S    
C41   C57   S    
C109  C110  S    
C49   H37   S    
C44   C60   S    
C63   H59   S    
C125  H127  S    
C46   O34   A    
Cr7   O19   S    
C15   C149  S    
Cr8   O20   S    
C129  C130  S    
C128  H128  S    
C20   C36   S    
Cr3   O23   S    
C21   C37   S    
C72   C80   S    
C124  H118  S    
C22   C26   S    
C29   C37   S    
C148  H179  S    
C44   H32   S    
C42   H34   S    
C43   H31   S    
C125  C126  S    
C110  C123  S    
C5    C114  S    
C70   C78   S    
C95   H83   S    
C121  C122  S    
C79   C98   S    
C152  H188  S    
C150  H185  S    
C70   H90   S    
C156  H198  S    
C3    O27   A    
C63   C79   S    
Cr8   O8    S    
C20   H22   S    
C74   H78   S    
C54   H41   S    
C107  O15   A    
C47   O31   A    
C49   C54   S    
C94   H86   S    
Cr6   O18   S    
C9    H97   S    
C51   C56   S    
C84   C96   S    
C159  C160  S    
Cr8   O32   S    
C8    C115  S    
Cr1   O17   S    
C35   C153  S    
Cr3   O19   S    
C41   H33   S    
C14   C147  S    
Cr9   O33   S    
C23   C27   S    
C19   C27   S    
C154  H194  S    
C137  H156  S    
C126  H124  S    
C109  C113  S    
C157  H207  S    
C10   C26   S    
C47   C119  S    
C128  H130  S    
C125  H126  S    
C98   O50   A    
C14   C30   S    
C67   H63   S    
C72   C88   S    
C53   H42   S    
C12   H100  S    
C160  H210  S    
C144  H169  S    
C63   C67   S    
C151  H191  S    
C71   H91   S    
C56   H43   S    
C154  H195  S    
C50   H38   S    
C90   O2    A    
C131  H142  S    
C157  C158  S    
Cr1   O41   S    
C5    C117  S    
C111  C120  S    
Cr10  O34   S    
C6    C113  S    
C127  C128  S    
C136  H149  S    
C81   C93   S    
C145  H177  S    
C124  H120  S    
C83   C95   S    
C64   H56   S    
C155  H201  S    
Cr9   O37   S    
C18   C34   S    
C114  C118  S    
C74   C131  S    
C65   H65   S    
C34   H26   S    
C123  C124  S    
C109  C121  S    
C69   H71   S    
C138  H154  S    
C86   H94   S    
C71   C87   S    
C108  O16   A    
C50   H49   S    
C51   C59   S    
C70   C86   S    
C159  H212  S    
C156  H200  S    
C8    C120  S    
C54   C58   S    
C12   H104  S    
C146  H174  S    
C102  O6    A    
Cr7   O31   S    
Cr5   O49   S    
C157  H206  S    
C138  H155  S    
C140  H158  S    
C104  O12   A    
C141  H167  S    
Cr1   O45   S    
C51   H39   S    
Cr2   O42   S    
Cr10  O38   S    
Cr3   O3    S    
C135  C136  S    
C148  H178  S    
C23   C39   S    
C139  H161  S    
C158  H204  S    
C24   C40   S    
C83   C107  S    
Cr7   O7    S    
C32   C40   S    
C35   H27   S    
C36   H28   S    
C49   H50   S    
C1    O21   A    
C39   H15   S    
C106  O14   A    
C111  C115  S    
C37   H13   S    
C6    C118  S    
