data_mof_unit_24678.cif
_audit_creation_date              2012-12-11T18:09:19-0500
_audit_creation_method            fapswitch 2.2
_symmetry_space_group_name_H-M    P1
_symmetry_Int_Tables_number       1
_space_group_crystal_system       triclinic
_cell_length_a                    8.266527
_cell_length_b                    12.664768
_cell_length_c                    18.98519
_cell_angle_alpha                 99.577845
_cell_angle_beta                  91.417591
_cell_angle_gamma                 98.518583
_cell_volume                      1935.81282386

loop_
_atom_site_label
_atom_site_type_symbol
_atom_type_description
_atom_site_fract_x
_atom_site_fract_y
_atom_site_fract_z
_atom_type_partial_charge
Ba1   Ba    Ba6+2 0.853180 0.547790 0.465300 1.654820
Ba2   Ba    Ba6+2 0.336650 0.452300 0.534710 1.658145
C1    C     C_3   0.629516 0.900027 0.240936 -0.373128
C2    C     C_R   0.024008 0.539769 0.726314 0.057993
C3    C     C_R   0.856240 0.403276 0.808736 -0.149889
C4    C     C_3   0.144279 0.782213 0.270035 0.378441
C5    C     C_R   0.788404 0.414425 0.742665 -0.002511
C6    C     C_R   0.343017 0.589049 0.188183 -0.177926
C7    C     C_R   0.409542 0.578931 0.254651 0.006265
C8    C     C_R   0.133238 0.438806 0.197670 -0.143091
C9    C     C_R   0.171453 0.455955 0.272390 0.055349
C10   C     C_R   0.988710 0.479978 0.843344 0.006502
C11   C     C_R   0.882360 0.472043 0.698891 -0.204946
C12   C     C_3   0.664388 0.824365 0.291840 0.306243
C13   C     C_R   0.212310 0.511190 0.153540 -0.002571
C14   C     C_R   0.316382 0.521092 0.298895 -0.240502
C15   C     C_R   0.763295 0.425243 0.961048 -0.087979
C16   C     C_3   0.113433 0.812977 0.197120 0.232785
C17   C     C_R   0.660192 0.389811 0.011853 -0.079780
C18   C     C_R   0.711209 0.416242 0.083048 -0.056795
C19   C     C_R   0.868567 0.470458 0.101588 -0.082557
C20   C     C_R   0.988688 0.477744 0.050679 0.015230
C21   C     C_R   0.933431 0.461146 0.976687 0.042109
C22   C     C_R   0.157470 0.506781 0.073812 -0.014553
C23   C     C_3   0.465850 0.282083 0.317277 0.308197
C24   C     C_R   0.269823 0.528652 0.019458 0.041599
C25   C     C_R   0.215061 0.512574 0.945174 0.013391
C26   C     C_R   0.045633 0.482993 0.922319 -0.015773
C27   C     C_R   0.439175 0.565519 0.035814 -0.072170
C28   C     C_3   0.243048 0.789959 0.621351 0.295524
C29   C     C_R   0.542825 0.602029 0.985653 -0.074049
C30   C     C_R   0.493054 0.577282 0.914306 -0.070303
C31   C     C_R   0.336149 0.522877 0.894328 -0.071426
C32   C     C_R   0.763077 0.182622 0.526824 -0.271286
C33   C     C_R   0.429495 0.807137 0.470376 -0.284344
C34   C     C_3   0.443759 0.250664 0.236395 -0.341745
C35   C     C_R   0.403819 0.983365 0.443882 -0.090890
C36   C     C_R   0.339655 0.875001 0.440838 -0.013165
C37   C     C_R   0.577979 0.848482 0.508907 0.057671
C38   C     C_R   0.643082 0.960235 0.515003 -0.064781
C39   C     C_R   0.554820 0.027798 0.480996 -0.060567
C40   C     C_3   0.277592 0.912937 0.639697 -0.361264
C41   C     C_R   0.617647 0.138867 0.486842 0.041902
C42   C     C_R   0.854478 0.116854 0.557484 -0.026077
C43   C     C_R   0.793698 0.006650 0.552930 -0.077785
C44   C     C_3   0.959281 0.209837 0.380675 0.283245
C45   C     C_3   0.983558 0.147066 0.723637 0.827225
C46   C     C_3   0.958686 0.088348 0.366565 -0.303651
C47   C     C_3   0.735115 0.702436 0.677553 0.318632
C48   C     C_3   0.759676 0.734862 0.758425 -0.390508
C49   C     C_3   0.747872 0.027215 0.735640 0.123575
C50   C     C_3   0.049276 0.187468 0.800981 -0.273429
C51   C     C_3   0.485781 0.214184 0.764914 0.315458
C52   C     C_3   0.479192 0.187548 0.840457 -0.404404
C53   C     C_R   0.065029 0.554460 0.800460 -0.151163
Cl1   Cl    Cl    0.207547 0.948514 0.195476 -0.717745
H1    H     H_    0.758138 0.867944 0.333531 0.088406
H2    H     H_    0.850299 0.680745 0.655563 0.010607
H3    H     H_    0.637077 0.631424 0.665046 0.097087
H4    H     H_    0.585316 0.972331 0.271058 0.129756
H5    H     H_    0.863610 0.802316 0.772180 0.135421
H6    H     H_    0.787037 0.665385 0.782694 0.067728
H7    H     H_    0.646562 0.760746 0.781285 0.121627
H8    H     H_    0.549965 0.803555 0.319571 -0.056406
H9    H     H_    0.533864 0.857452 0.199662 0.151279
H10   H     H_    0.351542 0.308311 0.338183 0.006704
H11   H     H_    0.568452 0.350594 0.329762 0.073155
H12   H     H_    0.369000 0.938480 0.685489 0.092002
H13   H     H_    0.335262 0.186942 0.221814 0.188588
H14   H     H_    0.425061 0.322423 0.212482 0.039775
H15   H     H_    0.554425 0.219889 0.214378 0.134306
H16   H     H_    0.742448 0.926551 0.214036 0.143875
H17   H     H_    0.164435 0.757540 0.154891 -0.002400
H18   H     H_    0.894764 0.200376 0.710569 -0.194033
H19   H     H_    0.123496 0.269119 0.805826 0.100926
H20   H     H_    0.949157 0.193323 0.838442 0.039256
H21   H     H_    0.126193 0.130134 0.817340 0.104428
H22   H     H_    0.611645 0.212319 0.746572 -0.073904
H23   H     H_    0.325990 0.947793 0.593290 0.074908
H24   H     H_    0.404388 0.149708 0.728328 0.085659
H25   H     H_    0.376112 0.219138 0.868897 0.134527
H26   H     H_    0.593881 0.224448 0.872103 0.100024
H27   H     H_    0.085200 0.696940 0.268431 -0.007787
H28   H     H_    0.464016 0.098416 0.838108 0.081285
H29   H     H_    0.160404 0.620288 0.822877 0.072784
H30   H     H_    0.802155 0.336281 0.832607 0.050440
H31   H     H_    0.397724 0.656310 0.164140 0.069174
H32   H     H_    0.037067 0.373220 0.175730 0.079758
H33   H     H_    0.836417 0.472158 0.645019 0.051336
H34   H     H_    0.162664 0.944692 0.654196 0.180079
H35   H     H_    0.361436 0.522283 0.353073 0.063053
H36   H     H_    0.700451 0.430513 0.912346 0.076475
H37   H     H_    0.533393 0.356056 0.997020 0.080237
H38   H     H_    0.624731 0.402597 0.123643 0.094949
H39   H     H_    0.278500 0.789014 0.280329 -0.066066
H40   H     H_    0.896847 0.507475 0.156053 0.125641
H41   H     H_    0.500721 0.560922 0.084978 0.075551
H42   H     H_    0.669160 0.636324 0.001109 0.082735
H43   H     H_    0.580698 0.593405 0.874692 0.101454
H44   H     H_    0.310988 0.489560 0.838606 0.136978
H45   H     H_    0.834123 0.226553 0.391032 -0.010186
H46   H     H_    0.331061 0.032209 0.418966 0.106796
H47   H     H_    0.866879 0.958913 0.578521 0.136702
H48   H     H_    0.811009 0.267723 0.530272 0.058272
H49   H     H_    0.377950 0.722746 0.467425 0.065924
H50   H     H_    0.980007 0.806119 0.184936 0.096728
H51   H     H_    0.358498 0.759203 0.607537 0.007292
H52   H     H_    0.153020 0.766685 0.574929 0.064638
H53   H     H_    0.705716 0.943768 0.743912 0.121306
H54   H     H_    0.668556 0.044432 0.692227 0.013166
H55   H     H_    0.732816 0.078667 0.787453 0.007138
H56   H     H_    0.042570 0.244818 0.428261 0.068903
H57   H     H_    0.882725 0.051555 0.317327 0.127090
H58   H     H_    0.908182 0.051681 0.411905 0.062181
H59   H     H_    0.085548 0.071206 0.359174 0.165100
O1    O     O_2   0.875110 0.423180 0.326290 -0.458983
O2    O     O_2   0.188892 0.123004 0.547639 -0.478258
O3    O     O_3   0.119321 0.154502 0.680415 -0.603759
O4    O     O_3   0.123410 0.433040 0.414950 -0.500181
O5    O     O_3   0.577950 0.634370 0.536140 -0.496824
O6    O     O_2   0.341900 0.231310 0.465740 -0.463701
O7    O     O_3   0.499958 0.192519 0.346488 -0.634418
O8    O     O_2   0.519721 0.511474 0.747029 -0.509642
O9    O     O_3   0.428899 0.313308 0.764090 -0.579115
O10   O     O_3   0.661010 0.625070 0.369680 -0.464553
O11   O     O_2   0.719285 0.524163 0.245881 -0.504662
O12   O     O_3   0.691853 0.789709 0.648814 -0.642237
O13   O     O_3   0.010437 0.250593 0.319527 -0.620292
O14   O     O_3   0.725630 0.734832 0.253180 -0.594470
O15   O     O_2   0.847800 0.768730 0.534310 -0.466723
O16   O     O_3   0.082250 0.684470 0.405440 -0.483086
O17   O     O_2   0.009595 0.878478 0.456402 -0.486244
O18   O     O_3   0.912367 0.036638 0.716318 -0.668073
O19   O     O_3   0.076581 0.851793 0.322625 -0.582566
O20   O     O_2   0.314600 0.576860 0.673750 -0.448065
O21   O     O_3   0.066300 0.567050 0.585060 -0.503668
O22   O     O_3   0.528700 0.375020 0.630330 -0.453887
O23   O     O_3   0.181023 0.749649 0.681129 -0.630129
O24   O     O_3   0.611760 0.365720 0.463870 -0.486890
O25   O     O_3   0.107460 0.315620 0.594570 -0.466640
P1    P     P_3+3 0.042930 0.392230 0.337410 0.984895
P2    P     P_3+3 0.672230 0.754900 0.555730 0.967373
P3    P     P_3+3 0.128546 0.823384 0.406546 0.959661
P4    P     P_3+3 0.146790 0.607860 0.662600 0.977997
P5    P     P_3+3 0.063191 0.175793 0.594935 0.981911
P6    P     P_3+3 0.627946 0.616342 0.278803 0.946643
P7    P     P_3+3 0.520557 0.229965 0.439660 0.938673
P8    P     P_3+3 0.567287 0.398479 0.722515 0.949937

loop_
_geom_bond_atom_site_label_1
_geom_bond_atom_site_label_2
_ccdc_geom_bond_type
C38   C39   A    
C28   O23   S    
C44   H56   S    
C28   H51   S    
Ba2   P4    S    
C36   P3    S    
O22   P8    S    
C17   C18   A    
C23   H11   S    
C50   H19   S    
C52   H28   S    
O11   P6    D    
C51   C52   S    
C25   C31   A    
O9    P8    S    
O24   P7    S    
C24   C25   A    
C15   C21   A    
C10   C26   S    
Ba2   O24   S    
C44   O13   S    
C7    C14   A    
Ba1   O10   S    
O10   P6    S    
C35   H46   S    
O21   P4    S    
C7    P6    S    
O2    P5    D    
Ba1   Ba2   S    
Ba1   O4    S    
C29   H42   S    
C2    C11   A    
Ba1   P2    S    
C43   H47   S    
O19   P3    S    
C45   O3    S    
C6    C7    A    
O6    P7    D    
C41   P7    S    
Ba1   O1    S    
Ba1   O21   S    
O13   P1    S    
C17   H37   S    
C34   H15   S    
C16   Cl1   S    
C8    H32   S    
C11   H33   S    
C1    H4    S    
O17   P3    D    
C40   H23   S    
C49   H53   S    
C19   C20   A    
C45   O18   S    
C40   H12   S    
C48   H7    S    
C39   C41   A    
C1    H9    S    
C15   H36   S    
C47   O12   S    
C34   H14   S    
C38   C43   A    
C4    C16   S    
C44   H45   S    
C44   C46   S    
C42   C43   A    
C32   C41   A    
C33   C36   A    
C32   C42   A    
C3    C10   A    
Ba1   O15   S    
C37   C38   A    
C3    C5    A    
Ba2   O5    S    
C6    C13   A    
Ba1   O16   S    
O7    P7    S    
C32   H48   S    
C47   H2    S    
C40   H34   S    
Ba1   O5    S    
C53   H29   S    
C33   C37   A    
C16   H50   S    
C35   C36   A    
C33   H49   S    
C9    C14   A    
C29   C30   A    
C37   P2    S    
C12   H8    S    
C51   H24   S    
C42   P5    S    
O5    P2    S    
C21   C26   A    
O8    P8    D    
C9    P1    S    
O14   P6    S    
C1    C12   S    
C24   C27   A    
C46   H59   S    
C3    H30   S    
C13   C22   S    
C4    H39   S    
C49   H54   S    
C2    C53   A    
O4    P1    S    
C20   C22   A    
C50   H21   S    
C52   H26   S    
O16   P3    S    
C34   H13   S    
C46   H58   S    
C5    P8    S    
C23   O7    S    
Ba2   O6    S    
C12   H1    S    
C18   H38   S    
O20   P4    D    
C49   H55   S    
C4    H27   S    
C28   H52   S    
Ba2   O22   S    
O3    P5    S    
C23   H10   S    
C45   H18   S    
C22   C24   A    
C50   H20   S    
C51   O9    S    
Ba1   O24   S    
O25   P5    S    
C2    P4    S    
Ba2   O4    S    
C45   C50   S    
C19   H40   S    
C16   H17   S    
Ba2   O20   S    
C47   H3    S    
C30   H43   S    
C27   H41   S    
C8    C13   A    
C6    H31   S    
Ba2   O25   S    
C30   C31   A    
C31   H44   S    
C1    H16   S    
C27   C29   A    
O23   P4    S    
C49   O18   S    
C48   H6    S    
C15   C17   A    
C51   H22   S    
C35   C39   A    
O15   P2    D    
Ba2   O21   S    
C10   C53   A    
Ba1   P1    S    
C8    C9    A    
C23   C34   S    
O1    P1    D    
C5    C11   A    
C18   C19   A    
C14   H35   S    
C4    O19   S    
C47   C48   S    
C25   C26   A    
C48   H5    S    
C20   C21   A    
C28   C40   S    
O12   P2    S    
C52   H25   S    
C46   H57   S    
C12   O14   S    
