data_mof_unit_40647.cif
_audit_creation_date              2012-12-10T17:45:32-0500
_audit_creation_method            fapswitch 2.2
_symmetry_space_group_name_H-M    P1
_symmetry_Int_Tables_number       1
_space_group_crystal_system       triclinic
_cell_length_a                    11.537053
_cell_length_b                    10.639734
_cell_length_c                    9.997784
_cell_angle_alpha                 90.455317
_cell_angle_beta                  90.530342
_cell_angle_gamma                 93.450418
_cell_volume                      1224.91812594

loop_
_atom_site_label
_atom_site_type_symbol
_atom_type_description
_atom_site_fract_x
_atom_site_fract_y
_atom_site_fract_z
_atom_type_partial_charge
C1    C     C_R   0.502883 0.260943 0.499744 0.870240
C2    C     C_R   0.791621 0.085998 0.680269 -0.132828
C3    C     C_R   0.791393 0.955203 0.681244 -0.140789
C4    C     C_R   0.699321 0.882923 0.622736 -0.188765
C5    C     C_R   0.604813 0.941299 0.563319 0.097589
C6    C     C_R   0.605007 0.073196 0.562288 0.092177
C7    C     C_R   0.511052 0.128904 0.499334 -0.098199
C8    C     C_R   0.421296 0.057917 0.435787 -0.201519
C9    C     C_R   0.421311 0.929530 0.436360 -0.211348
C10   C     C_R   0.510808 0.872062 0.501213 -0.087036
C11   C     C_R   0.339960 0.324013 0.126079 0.484943
C12   C     C_R   0.282254 0.499801 0.499544 0.912505
C13   C     C_R   0.269697 0.241229 0.045097 -0.275036
C14   C     C_R   0.274561 0.246178 0.908809 -0.263760
C15   C     C_R   0.349868 0.333051 0.849569 -0.132675
C16   C     C_R   0.425186 0.416530 0.923941 0.101504
C17   C     C_R   0.423328 0.414684 0.068347 0.104499
C18   C     C_R   0.571714 0.579697 0.072796 -0.114118
C19   C     C_R   0.571612 0.579668 0.930442 -0.097920
C20   C     C_R   0.503596 0.739253 0.500471 0.848525
C21   C     C_R   0.717771 0.500765 0.500506 0.858757
C22   C     C_1   0.161633 0.499461 0.498821 -0.194093
C23   C     C_1   0.059357 0.499400 0.499481 -0.005713
C24   C     C_1   0.940587 0.499728 0.500799 -0.003191
C25   C     C_1   0.838344 0.500234 0.501343 -0.189709
C26   C     C_R   0.699753 0.145012 0.620833 -0.172253
H1    H     H_    0.349531 0.101711 0.388522 0.161327
H2    H     H_    0.218681 0.182625 0.848198 0.168526
H3    H     H_    0.345552 0.331235 0.744018 0.218480
H4    H     H_    0.630455 0.645285 0.878737 0.142031
H5    H     H_    0.704666 0.246678 0.619802 0.150732
H6    H     H_    0.863690 0.141964 0.724647 0.137961
H7    H     H_    0.863274 0.909595 0.726389 0.136784
H8    H     H_    0.703863 0.781702 0.623078 0.140632
H9    H     H_    0.350100 0.874529 0.388470 0.151986
H10   H     H_    0.630585 0.645228 0.126898 0.146757
H11   H     H_    0.209094 0.171781 0.088815 0.145981
N1    N     N_R   0.498930 0.498800 0.142780 -0.101873
N2    N     N_R   0.498900 0.498720 0.857170 -0.110300
O1    O     O_R   0.500000 0.316780 0.614690 -0.651309
O2    O     O_R   0.499990 0.316750 0.385360 -0.539742
O3    O     O_R   0.334450 0.500030 0.614670 -0.639317
O4    O     O_R   0.334440 0.500000 0.385330 -0.543563
O5    O     O_R   0.500010 0.683250 0.614640 -0.615173
O6    O     O_R   0.500000 0.683220 0.385310 -0.616682
O7    O     O_R   0.665560 0.500000 0.614670 -0.624050
O8    O     O_R   0.665550 0.499970 0.385330 -0.608496
Zn1   Zn    Zn3+2 0.500010 0.500020 0.653130 0.935663
Zn2   Zn    Zn3+2 0.499990 0.499980 0.346870 0.990490
O9    O     O_3   0.324570 0.313182 0.260223 -0.733811
H12   H     H_    0.252411 0.261742 0.280971 0.295178

loop_
_geom_bond_atom_site_label_1
_geom_bond_atom_site_label_2
_ccdc_geom_bond_type
C8    C9    A    
C12   O3    A    
C23   C24   S    
C6    C7    A    
O8    Zn2   S    
C9    C10   A    
N2    Zn1   S    
C13   H11   S    
C20   O6    A    
O6    Zn2   S    
C2    C3    A    
C18   N1    A    
O4    Zn2   S    
C26   H5    S    
C2    C26   A    
N1    Zn2   S    
O3    Zn1   S    
C13   C14   A    
C11   C13   A    
C6    C26   A    
C19   N2    A    
C1    O2    A    
C20   O5    A    
C15   H3    S    
C12   O4    A    
O7    Zn1   S    
C17   N1    A    
C22   C23   T    
C5    C6    A    
C4    H8    S    
C7    C8    A    
C3    H7    S    
C16   N2    A    
C9    H9    S    
C15   C16   A    
C12   C22   S    
C5    C10   A    
C18   C19   A    
C24   C25   T    
C2    H6    S    
C21   O7    A    
O2    Zn2   S    
C11   O9    S    
C8    H1    S    
O1    Zn1   S    
C14   C15   A    
C16   C17   A    
C21   C25   S    
O9    H12   S    
C1    O1    A    
C14   H2    S    
C1    C7    S    
C19   H4    S    
C18   H10   S    
C11   C17   A    
C3    C4    A    
O5    Zn1   S    
C10   C20   S    
C4    C5    A    
C21   O8    A    
