data_mof_unit_60022.cif
_audit_creation_date              2012-12-10T18:40:32-0500
_audit_creation_method            fapswitch 2.2
_symmetry_space_group_name_H-M    P1
_symmetry_Int_Tables_number       1
_space_group_crystal_system       triclinic
_cell_length_a                    10.7766
_cell_length_b                    11.575664
_cell_length_c                    16.716182
_cell_angle_alpha                 89.997317
_cell_angle_beta                  85.265049
_cell_angle_gamma                 89.992814
_cell_volume                      2078.16523571

loop_
_atom_site_label
_atom_site_type_symbol
_atom_type_description
_atom_site_fract_x
_atom_site_fract_y
_atom_site_fract_z
_atom_type_partial_charge
C1    C     C_R   0.499996 0.718847 0.499984 0.917117
C2    C     C_R   0.516919 0.494329 0.346231 0.858248
C3    C     C_R   0.472576 0.477100 0.740090 -0.040177
C4    C     C_R   0.526781 0.454884 0.263359 -0.034674
C5    C     C_R   0.579779 0.479426 0.781952 -0.206296
C6    C     C_R   0.427131 0.392937 0.235466 -0.202887
C7    C     C_R   0.574126 0.443631 0.861198 -0.146367
C8    C     C_R   0.437902 0.344972 0.159404 -0.158782
C9    C     C_R   0.461134 0.403786 0.899378 0.204543
C10   C     C_R   0.547160 0.361465 0.109296 0.203447
C11   C     C_R   0.352996 0.405710 0.858528 -0.178535
C12   C     C_R   0.500007 0.281154 0.499982 0.913862
C13   C     C_R   0.649272 0.417873 0.138361 -0.167219
C14   C     C_R   0.358556 0.441948 0.779098 -0.193509
C15   C     C_R   0.639302 0.464309 0.215423 -0.196521
C16   C     C_2   0.450501 0.373468 0.984499 -0.228801
C17   C     C_2   0.548646 0.340342 0.023161 -0.241427
C18   C     C_1   0.499988 0.838971 0.499954 -0.193047
C19   C     C_1   0.500016 0.161043 0.499937 -0.188830
C20   C     C_1   0.499995 0.940854 0.499929 0.005022
C21   C     C_1   0.500009 0.059163 0.499919 0.005265
C22   C     C_1   0.930245 0.499994 0.500005 0.029855
C23   C     C_1   0.069755 0.499994 0.499996 0.028565
C24   C     C_R   0.482972 0.498340 0.654032 0.862178
H1    H     H_    0.718317 0.508944 0.237031 0.152189
H2    H     H_    0.341204 0.380092 0.272800 0.160316
H3    H     H_    0.274598 0.439301 0.747714 0.158872
H4    H     H_    0.637385 0.320921 0.990418 0.147627
H5    H     H_    0.362219 0.393631 0.017720 0.150729
H6    H     H_    0.264518 0.378376 0.887987 0.127820
H7    H     H_    0.734124 0.431256 0.100023 0.124890
H8    H     H_    0.359253 0.298791 0.138653 0.131191
H9    H     H_    0.657849 0.449774 0.892426 0.125020
H10   H     H_    0.668432 0.507486 0.753180 0.158022
N1    N     N_1   0.819370 0.500000 0.500010 -0.080543
N2    N     N_1   0.180630 0.500000 0.499990 -0.081426
O1    O     O_R   0.397470 0.665550 0.500010 -0.603060
O2    O     O_R   0.602530 0.334450 0.499990 -0.604410
O3    O     O_R   0.602530 0.665550 0.499990 -0.605685
O4    O     O_R   0.397470 0.334450 0.500010 -0.609781
O5    O     O_R   0.385350 0.500000 0.615800 -0.616022
O6    O     O_R   0.614650 0.500000 0.384200 -0.611959
O7    O     O_R   0.590410 0.500000 0.615800 -0.613792
O8    O     O_R   0.409590 0.500000 0.384200 -0.615038
Zn1   Zn    Zn3+2 0.363080 0.500000 0.500000 0.975055
Zn2   Zn    Zn3+2 0.636920 0.500000 0.500000 0.978956

loop_
_geom_bond_atom_site_label_1
_geom_bond_atom_site_label_2
_ccdc_geom_bond_type
C12   O4    A    
C2    C4    S    
C24   O5    A    
C14   H3    S    
C9    C11   A    
N1    Zn2   S    
C1    O1    A    
C5    H10   S    
C4    C15   A    
C3    C24   S    
N2    Zn1   S    
C20   C21   S    
C22   N1    T    
C7    H9    S    
C1    C18   S    
C6    H2    S    
C3    C14   A    
C2    O6    A    
O3    Zn2   S    
C12   C19   S    
C4    C6    A    
C19   C21   T    
C9    C16   S    
C18   C20   T    
C13   C15   A    
C12   O2    A    
O4    Zn1   S    
O7    Zn2   S    
C15   H1    S    
O2    Zn2   S    
C1    O3    A    
C10   C17   S    
O1    Zn1   S    
C8    H8    S    
C7    C9    A    
O8    Zn1   S    
C8    C10   A    
C23   N2    T    
O6    Zn2   S    
C11   C14   A    
C5    C7    A    
C24   O7    A    
O5    Zn1   S    
C22   C23   S    
C6    C8    A    
C16   H5    S    
C17   H4    S    
C13   H7    S    
C11   H6    S    
C2    O8    A    
C16   C17   D    
C3    C5    A    
C10   C13   A    
