data_mof_unit_41039.cif
_audit_creation_date              2012-12-11T18:13:35-0500
_audit_creation_method            fapswitch 2.2
_symmetry_space_group_name_H-M    P1
_symmetry_Int_Tables_number       1
_space_group_crystal_system       triclinic
_cell_length_a                    8.197334
_cell_length_b                    12.722102
_cell_length_c                    18.726451
_cell_angle_alpha                 99.816691
_cell_angle_beta                  91.176909
_cell_angle_gamma                 98.669006
_cell_volume                      1900.20829429

loop_
_atom_site_label
_atom_site_type_symbol
_atom_type_description
_atom_site_fract_x
_atom_site_fract_y
_atom_site_fract_z
_atom_type_partial_charge
Ba1   Ba    Ba6+2 0.852780 0.548340 0.465070 1.671984
Ba2   Ba    Ba6+2 0.337060 0.451750 0.534940 1.665455
C1    C     C_3   0.583470 0.895405 0.248242 -0.413050
C2    C     C_R   0.892163 0.394344 0.094539 0.033223
C3    C     C_R   0.728754 0.349174 0.071423 -0.084749
C4    C     C_3   0.129120 0.755747 0.261655 0.353296
C5    C     C_R   0.667571 0.355105 0.002175 -0.090699
C6    C     C_R   0.769447 0.404568 0.954048 0.032951
C7    C     C_R   0.933485 0.450516 0.976428 0.014758
C8    C     C_R   0.710037 0.407036 0.883690 -0.115771
C9    C     C_R   0.814018 0.450728 0.833280 -0.043397
C10   C     C_R   0.977694 0.500148 0.856065 -0.007012
C11   C     C_R   0.036202 0.500452 0.928148 -0.008419
C12   C     C_3   0.632034 0.817291 0.294928 0.356936
C13   C     C_R   0.760424 0.444586 0.760291 -0.006351
C14   C     C_R   0.869736 0.483297 0.710825 -0.299194
C15   C     C_R   0.027614 0.539083 0.732770 0.053665
C16   C     C_3   0.107511 0.778233 0.185095 -0.354014
C17   C     C_R   0.082528 0.549597 0.807190 -0.044254
C18   C     C_R   0.157282 0.493799 0.070523 -0.009036
C19   C     C_R   0.216241 0.493364 0.142443 -0.004742
C20   C     C_R   0.111060 0.444061 0.191308 -0.044506
C21   C     C_R   0.953001 0.389613 0.164554 -0.043087
C22   C     C_R   0.239077 0.606223 0.834515 -0.037546
C23   C     C_3   0.460267 0.273542 0.314337 0.313216
C24   C     C_R   0.300052 0.601686 0.904550 0.032743
C25   C     C_R   0.198670 0.548444 0.951568 0.005743
C26   C     C_R   0.259619 0.544423 0.022395 0.013692
C27   C     C_R   0.462847 0.648097 0.927907 -0.083834
C28   C     C_3   0.302351 0.799147 0.658848 0.249876
C29   C     C_R   0.524225 0.642127 0.997128 -0.089586
C30   C     C_R   0.423088 0.591497 0.045010 0.031899
C31   C     C_R   0.379849 0.543288 0.165356 -0.043523
C32   C     C_R   0.482694 0.588960 0.115338 -0.110844
C33   C     C_R   0.434283 0.548234 0.238146 0.000154
C34   C     C_3   0.437110 0.236243 0.232702 -0.402650
C35   C     C_R   0.326207 0.506590 0.287034 -0.301351
C36   C     C_R   0.166764 0.453140 0.265371 0.035868
C37   C     C_R   0.761723 0.182993 0.530543 -0.277655
C38   C     C_R   0.437256 0.805977 0.463604 -0.237153
C39   C     C_R   0.405237 0.983258 0.442081 -0.079058
C40   C     C_3   0.394454 0.890600 0.715289 -0.450447
C41   C     C_R   0.344161 0.874093 0.435185 0.037584
C42   C     C_R   0.580711 0.847995 0.507357 0.015211
C43   C     C_R   0.643073 0.960430 0.516246 -0.066963
C44   C     C_R   0.554714 0.028018 0.481824 -0.045464
C45   C     C_3   0.078159 0.239032 0.734979 0.371407
C46   C     C_R   0.616391 0.139390 0.489417 0.044730
C47   C     C_R   0.854197 0.117236 0.560674 -0.015552
C48   C     C_R   0.792829 0.007330 0.556243 -0.096223
C49   C     C_3   0.959923 0.214178 0.381576 0.285884
C50   C     C_3   0.931790 0.091619 0.364250 -0.368165
C51   C     C_3   0.734649 0.706431 0.681794 0.306308
C52   C     C_3   0.781293 0.747021 0.761968 -0.404066
C53   C     C_2   0.226005 0.834538 0.595877 0.785279
C54   C     C_3   0.099737 0.213476 0.810781 -0.370751
C55   C     C_3   0.582612 0.184700 0.713332 0.346548
C56   C     C_3   0.654084 0.133898 0.772342 -0.428286
C57   C     C_R   0.994370 0.446482 0.047261 0.006213
H1    H     H_    0.720716 0.862160 0.339315 0.068267
H2    H     H_    0.839559 0.673011 0.655407 0.037128
H3    H     H_    0.625403 0.642101 0.676765 0.054406
H4    H     H_    0.526659 0.959584 0.281988 0.096536
H5    H     H_    0.895597 0.807635 0.768242 0.144254
H6    H     H_    0.802499 0.679324 0.789304 0.056347
H7    H     H_    0.680337 0.784837 0.789091 0.103833
H8    H     H_    0.518869 0.783443 0.319822 -0.072774
H9    H     H_    0.492857 0.851409 0.204374 0.113721
H10   H     H_    0.342437 0.296115 0.335284 0.014897
H11   H     H_    0.559022 0.345139 0.325079 0.059054
H12   H     H_    0.446760 0.856510 0.759724 0.130919
H13   H     H_    0.334853 0.166940 0.220144 0.127391
H14   H     H_    0.406715 0.302985 0.206227 0.056525
H15   H     H_    0.552637 0.210940 0.210648 0.117640
H16   H     H_    0.693979 0.933024 0.223204 0.130301
H17   H     H_    0.183758 0.856227 0.179899 0.108472
H18   H     H_    0.163067 0.314169 0.731184 0.101686
H19   H     H_    0.949457 0.252954 0.727023 -0.080543
H20   H     H_    0.067149 0.279986 0.851746 0.070925
H21   H     H_    0.018181 0.137323 0.815742 0.111380
H22   H     H_    0.229671 0.204036 0.821959 0.150231
H23   H     H_    0.497422 0.935606 0.689969 0.082846
H24   H     H_    0.685386 0.220099 0.682737 -0.051167
H25   H     H_    0.506612 0.120660 0.673765 0.043625
H26   H     H_    0.732827 0.196875 0.811853 0.112388
H27   H     H_    0.730252 0.073186 0.747829 0.095563
H28   H     H_    0.049260 0.678636 0.265788 0.088448
H29   H     H_    0.553055 0.094008 0.801664 0.128239
H30   H     H_    0.647471 0.310057 0.107193 0.061837
H31   H     H_    0.540702 0.319901 0.985974 0.070265
H32   H     H_    0.827522 0.475407 0.654776 0.064346
H33   H     H_    0.583183 0.371786 0.868421 0.106139
H34   H     H_    0.309870 0.945890 0.739720 0.127425
H35   H     H_    0.873271 0.345617 0.198265 0.097627
H36   H     H_    0.318198 0.651290 0.801194 0.094975
H37   H     H_    0.543522 0.688135 0.892303 0.059793
H38   H     H_    0.650652 0.678218 0.013510 0.070506
H39   H     H_    0.609321 0.624619 0.130608 0.108933
H40   H     H_    0.260015 0.747372 0.271101 -0.084564
H41   H     H_    0.368926 0.513113 0.342903 0.069673
H42   H     H_    0.330857 0.032384 0.418052 0.090152
H43   H     H_    0.866302 0.959807 0.582189 0.140483
H44   H     H_    0.809503 0.268023 0.534753 0.059018
H45   H     H_    0.846307 0.242738 0.401836 0.000972
H46   H     H_    0.389705 0.720619 0.456935 0.084623
H47   H     H_    0.147165 0.712991 0.145361 0.069933
H48   H     H_    0.975920 0.782265 0.172505 0.148596
H49   H     H_    0.393009 0.747021 0.637965 0.019394
H50   H     H_    0.279613 0.996780 0.631344 0.288299
H51   H     H_    0.060732 0.240609 0.423956 0.081470
H52   H     H_    0.825562 0.063290 0.324650 0.111688
H53   H     H_    0.905029 0.057417 0.413972 0.085310
H54   H     H_    0.043782 0.062558 0.340950 0.144448
O1    O     O_2   0.873090 0.425890 0.325140 -0.466000
O2    O     O_2   0.190772 0.123580 0.547919 -0.426292
O3    O     O_3   0.114424 0.152635 0.683504 -0.592107
O4    O     O_3   0.122420 0.434370 0.414380 -0.492720
O5    O     O_3   0.578370 0.633800 0.536380 -0.497048
O6    O     O_2   0.341510 0.231850 0.465510 -0.468788
O7    O     O_3   0.504389 0.188992 0.346051 -0.652121
O8    O     O_2   0.421156 0.455573 0.757014 -0.502741
O9    O     O_3   0.480033 0.257641 0.744808 -0.594565
O10   O     O_3   0.659500 0.627100 0.368810 -0.477462
O11   O     O_2   0.774793 0.544118 0.244005 -0.496456
O12   O     O_3   0.698442 0.793077 0.650501 -0.651833
O13   O     O_3   0.000054 0.253579 0.317950 -0.640229
O14   O     O_3   0.708802 0.738958 0.251675 -0.596739
O15   O     O_2   0.848200 0.768190 0.534530 -0.400215
O16   O     O_3   0.081160 0.685950 0.404810 -0.446679
O17   O     O_2   0.006977 0.880144 0.446605 -0.436189
O18   O     O_2   0.158578 0.763936 0.547957 -0.539511
O19   O     O_R   0.223440 0.941818 0.589692 -0.729039
O20   O     O_3   0.084049 0.841239 0.311253 -0.613792
O21   O     O_2   0.316610 0.574140 0.674900 -0.488658
O22   O     O_3   0.067290 0.565720 0.585630 -0.450446
O23   O     O_3   0.530210 0.372990 0.631200 -0.461063
O24   O     O_3   0.173369 0.745295 0.692284 -0.655349
O25   O     O_3   0.611340 0.366290 0.463630 -0.479787
O26   O     O_3   0.108550 0.314140 0.595200 -0.497980
P1    P     P_3+3 0.041040 0.394770 0.336330 0.971608
P2    P     P_3+3 0.672880 0.754030 0.556100 0.975937
P3    P     P_3+3 0.130472 0.822113 0.399309 1.029808
P4    P     P_3+3 0.148670 0.605320 0.663680 0.998675
P5    P     P_3+3 0.065152 0.175941 0.596705 0.988770
P6    P     P_3+3 0.643542 0.612160 0.274736 0.947597
P7    P     P_3+3 0.522249 0.230047 0.440309 0.933672
P8    P     P_3+3 0.548857 0.385656 0.724797 0.948639

loop_
_geom_bond_atom_site_label_1
_geom_bond_atom_site_label_2
_ccdc_geom_bond_type
C6    C7    A    
C56   H26   S    
O7    P7    S    
C55   O9    S    
C40   H34   S    
C1    H9    S    
C40   H23   S    
Ba1   O15   S    
C32   H39   S    
O5    P2    S    
C16   H47   S    
Ba2   O5    S    
C54   H22   S    
C52   H6    S    
C51   C52   S    
O6    P7    D    
O13   P1    S    
O20   P3    S    
Ba2   O21   S    
C54   H20   S    
Ba2   O26   S    
C33   C35   A    
C22   C24   A    
C4    O20   S    
Ba1   O16   S    
C19   C31   A    
C50   H53   S    
C13   C14   A    
C20   C36   A    
C47   P5    S    
C10   C17   A    
Ba1   Ba2   S    
C33   P6    S    
C7    C11   A    
C16   H48   S    
C15   C17   A    
O21   P4    D    
O3    P5    S    
C51   H2    S    
C38   C41   A    
O10   P6    S    
Ba2   O6    S    
O12   P2    S    
C42   P2    S    
C46   P7    S    
C39   C44   A    
C55   H24   S    
O1    P1    D    
C1    H16   S    
O15   P2    D    
O22   P4    S    
O24   P4    S    
C8    H33   S    
C28   O24   S    
C19   C20   A    
Ba2   P4    S    
C39   C41   A    
C9    C13   A    
C56   H27   S    
Ba2   O4    S    
C45   O3    S    
C4    C16   S    
C44   C46   A    
C49   C50   S    
Ba2   O25   S    
C5    C6    A    
C8    C9    A    
C22   H36   S    
C3    C5    A    
C2    C21   A    
C14   C15   A    
O16   P3    S    
C18   C26   A    
C50   H52   S    
C49   H45   S    
C50   H54   S    
C5    H31   S    
Ba2   O23   S    
C4    H28   S    
C7    C57   A    
C30   C32   A    
Ba1   O10   S    
C35   C36   A    
O26   P5    S    
C29   C30   A    
C53   O19   S    
C26   C30   A    
C12   H8    S    
H50   O19   S    
O8    P8    D    
C31   C32   A    
C24   C25   A    
C55   H25   S    
Ba1   O4    S    
O9    P8    S    
C10   C11   A    
C18   C57   A    
C1    C12   S    
Ba1   P1    S    
C51   O12   S    
O14   P6    S    
C51   H3    S    
C37   C47   A    
C45   C54   S    
C48   H43   S    
C49   H51   S    
C53   O18   D    
C38   H46   S    
O4    P1    S    
C23   H10   S    
Ba1   O1    S    
C45   H18   S    
C23   O7    S    
C42   C43   A    
O11   P6    D    
O2    P5    D    
C34   H15   S    
C16   H17   S    
C28   H49   S    
C49   O13   S    
C28   C40   S    
C2    C3    A    
C56   H29   S    
C27   H37   S    
C9    C10   A    
C37   H44   S    
C52   H7    S    
C1    H4    S    
C12   H1    S    
C28   C53   S    
Ba2   O22   S    
C54   H21   S    
C21   H35   S    
C15   P4    S    
C4    H40   S    
C17   C22   A    
C27   C29   A    
C13   P8    S    
C55   C56   S    
C52   H5    S    
C43   C48   A    
O25   P7    S    
C2    C57   A    
C40   H12   S    
C31   C33   A    
C39   H42   S    
Ba1   O5    S    
C29   H38   S    
O17   P3    D    
O23   P8    S    
Ba1   P2    S    
C34   H14   S    
C12   O14   S    
C23   C34   S    
C43   C44   A    
C14   H32   S    
C38   C42   A    
C18   C19   A    
C24   C27   A    
C6    C8    A    
C47   C48   A    
C25   C26   A    
C36   P1    S    
C20   C21   A    
C11   C25   A    
C41   P3    S    
C23   H11   S    
C45   H19   S    
Ba1   O22   S    
C35   H41   S    
C3    H30   S    
Ba1   O25   S    
C34   H13   S    
C37   C46   A    
