data_mof_unit_41182.cif
_audit_creation_date              2012-12-11T15:09:07-0500
_audit_creation_method            fapswitch 2.2
_symmetry_space_group_name_H-M    P1
_symmetry_Int_Tables_number       1
_space_group_crystal_system       triclinic
_cell_length_a                    25.868711
_cell_length_b                    27.909237
_cell_length_c                    8.43268
_cell_angle_alpha                 90.0
_cell_angle_beta                  96.055518
_cell_angle_gamma                 89.999884
_cell_volume                      6054.22121804

loop_
_atom_site_label
_atom_site_type_symbol
_atom_type_description
_atom_site_fract_x
_atom_site_fract_y
_atom_site_fract_z
_atom_type_partial_charge
Ba1   Ba    Ba6+2 0.999910 0.465960 0.844870 1.598852
Ba2   Ba    Ba6+2 0.999910 0.534040 0.344870 1.602633
Ba3   Ba    Ba6+2 0.499910 0.965960 0.844870 1.602631
Ba4   Ba    Ba6+2 0.499910 0.034040 0.344870 1.598854
C1    C     C_3   0.041043 0.244038 0.603225 -0.376594
C2    C     C_R   0.844761 0.641855 0.601131 -0.141190
C3    C     C_3   0.516294 0.206585 0.103170 0.351766
C4    C     C_R   0.899207 0.392955 0.325095 -0.221941
C5    C     C_R   0.899328 0.607309 0.823907 -0.222303
C6    C     C_R   0.399325 0.892694 0.323911 -0.222296
C7    C     C_R   0.399210 0.107046 0.825092 -0.221947
C8    C     C_3   0.725822 0.524629 0.193944 -0.493205
C9    C     C_3   0.757091 0.436240 0.718369 -0.461216
C10   C     C_3   0.257066 0.063758 0.218284 -0.461261
C11   C     C_3   0.225771 0.975439 0.693824 -0.493049
C12   C     C_3   0.921107 0.437186 0.407958 -0.233289
C13   C     C_R   0.344756 0.858149 0.101137 -0.141190
C14   C     C_3   0.922104 0.563483 0.907219 -0.220416
C15   C     C_3   0.422107 0.936517 0.407221 -0.220418
C16   C     C_3   0.421113 0.062816 0.907954 -0.233291
C17   C     C_R   0.345681 0.142278 0.601579 -0.149870
C18   C     C_R   0.834025 0.318200 0.197654 -0.005532
C19   C     C_R   0.833540 0.681633 0.696868 -0.008527
C20   C     C_R   0.333536 0.818370 0.196875 -0.008521
C21   C     C_R   0.334025 0.181799 0.697653 -0.005530
C22   C     C_R   0.861060 0.314309 0.352157 -0.143572
C23   C     C_R   0.861013 0.685824 0.850791 -0.142397
C24   C     C_R   0.361009 0.814179 0.350796 -0.142396
C25   C     C_3   0.041416 0.755984 0.104330 -0.375852
C26   C     C_R   0.361060 0.185691 0.852154 -0.143572
C27   C     C_R   0.894252 0.351146 0.414650 0.036506
C28   C     C_R   0.894418 0.649140 0.913271 0.035551
C29   C     C_R   0.394414 0.850863 0.413275 0.035556
C30   C     C_R   0.394253 0.148855 0.914648 0.036485
C31   C     C_R   0.796965 0.233387 0.181813 -0.079481
C32   C     C_R   0.796810 0.766526 0.680185 -0.079044
C33   C     C_R   0.296808 0.733476 0.180188 -0.079044
C34   C     C_R   0.296964 0.266612 0.681813 -0.079481
C35   C     C_R   0.256695 0.700678 0.133085 -0.073417
C36   C     C_3   0.541414 0.744017 0.604314 -0.375854
C37   C     C_R   0.256803 0.299358 0.634462 -0.073341
C38   C     C_R   0.756804 0.200642 0.134462 -0.073341
C39   C     C_R   0.756696 0.799324 0.633084 -0.073418
C40   C     C_R   0.210388 0.715622 0.043502 0.060770
C41   C     C_R   0.210727 0.284446 0.543476 0.060652
C42   C     C_R   0.710728 0.215553 0.043476 0.060652
C43   C     C_R   0.710390 0.784380 0.543499 0.060770
C44   C     C_R   0.205867 0.764517 0.002074 -0.078590
C45   C     C_R   0.206555 0.235613 0.500788 -0.078436
C46   C     C_R   0.706556 0.264386 0.000788 -0.078436
C47   C     C_3   0.541045 0.255962 0.103233 -0.376592
C48   C     C_R   0.705871 0.735484 0.502069 -0.078589
C49   C     C_R   0.746718 0.297054 0.047688 -0.074469
C50   C     C_R   0.745958 0.702756 0.548853 -0.074233
C51   C     C_R   0.245954 0.797246 0.048860 -0.074234
C52   C     C_R   0.246717 0.202945 0.547689 -0.074467
C53   C     C_3   0.983294 0.291677 0.090597 0.347768
C54   C     C_3   0.983233 0.708313 0.590383 0.348491
C55   C     C_3   0.483234 0.791687 0.090384 0.348487
C56   C     C_3   0.483294 0.208323 0.590599 0.347769
C57   C     C_R   0.792598 0.282256 0.139701 0.061588
C58   C     C_R   0.879311 0.394616 0.163266 0.025696
C59   C     C_R   0.792111 0.717582 0.639306 0.061066
C60   C     C_R   0.292108 0.782420 0.139311 0.061064
C61   C     C_R   0.292596 0.217743 0.639701 0.061589
C62   C     C_R   0.138267 0.685525 0.840313 -0.134028
C63   C     C_R   0.138468 0.314518 0.340270 -0.133838
C64   C     C_R   0.638469 0.185481 0.840270 -0.133838
C65   C     C_R   0.638268 0.814475 0.340311 -0.134029
C66   C     C_R   0.098691 0.652783 0.789456 0.012937
C67   C     C_R   0.098802 0.347209 0.289524 0.012643
C68   C     C_R   0.598803 0.152790 0.789525 0.012644
C69   C     C_R   0.878822 0.605282 0.662447 0.032154
C70   C     C_R   0.598691 0.847216 0.289455 0.012935
C71   C     C_R   0.115646 0.608759 0.037724 0.065636
C72   C     C_R   0.115718 0.391219 0.537810 0.065541
C73   C     C_R   0.615719 0.108781 0.037810 0.065540
C74   C     C_R   0.615646 0.891240 0.537724 0.065638
C75   C     C_R   0.155834 0.641308 0.088538 -0.127336
C76   C     C_R   0.155965 0.358704 0.588580 -0.127087
C77   C     C_R   0.655966 0.141295 0.088579 -0.127087
C78   C     C_R   0.655834 0.858692 0.588536 -0.127336
C79   C     C_R   0.167341 0.680648 0.991367 -0.014636
C80   C     C_R   0.378817 0.894721 0.162453 0.032116
C81   C     C_R   0.167566 0.319384 0.491356 -0.014394
C82   C     C_R   0.667567 0.180615 0.991356 -0.014395
C83   C     C_R   0.667342 0.819352 0.491365 -0.014635
C84   C     C_R   0.086544 0.615779 0.890541 -0.280905
C85   C     C_R   0.086603 0.384169 0.390690 -0.280822
C86   C     C_R   0.586603 0.115831 0.890690 -0.280822
C87   C     C_R   0.586544 0.884220 0.390541 -0.280904
C88   C     C_3   0.958619 0.242274 0.074305 -0.365992
C89   C     C_3   0.958545 0.757708 0.574019 -0.365667
C90   C     C_3   0.458544 0.742292 0.074018 -0.365665
C91   C     C_R   0.379313 0.105384 0.663264 0.025710
C92   C     C_3   0.458619 0.257725 0.574310 -0.365993
C93   C     C_3   0.147890 0.470528 0.223289 0.314763
C94   C     C_3   0.147864 0.529482 0.723293 0.314712
C95   C     C_3   0.647864 0.970518 0.223293 0.314713
C96   C     C_3   0.647891 0.029471 0.723289 0.314761
C97   C     C_3   0.197255 0.440582 0.246456 -0.395929
C98   C     C_3   0.197218 0.559444 0.746490 -0.395992
C99   C     C_3   0.697218 0.940556 0.246491 -0.395992
C100  C     C_3   0.697256 0.059417 0.746456 -0.395930
C101  C     C_3   0.805266 0.483683 0.103403 0.251493
C102  C     C_R   0.845682 0.357720 0.101579 -0.149869
C103  C     C_3   0.817006 0.499761 0.623336 0.225792
C104  C     C_3   0.317003 0.000251 0.123290 0.225793
C105  C     C_3   0.305266 0.016328 0.603403 0.251530
C106  C     C_3   0.768833 0.526968 0.083969 -0.167789
C107  C     C_3   0.781497 0.456933 0.576842 -0.195335
C108  C     C_3   0.281550 0.043122 0.076823 -0.195254
C109  C     C_3   0.268826 0.973051 0.583951 -0.167564
C110  C     C_3   0.016293 0.293415 0.603167 0.351765
C111  C     C_3   0.016525 0.706653 0.103240 0.351651
C112  C     C_3   0.516524 0.793347 0.603235 0.351650
H1    H     H_    0.038766 0.315416 0.696348 0.096215
H2    H     H_    0.188504 0.596003 0.786675 0.066375
H3    H     H_    0.456651 0.269963 0.448469 0.142577
H4    H     H_    0.981928 0.216334 0.151995 0.110195
H5    H     H_    0.981833 0.783658 0.651726 0.110161
H6    H     H_    0.481833 0.716342 0.151722 0.110162
H7    H     H_    0.481928 0.283665 0.652002 0.110195
H8    H     H_    0.131566 0.473767 0.338934 0.014838
H9    H     H_    0.131529 0.526243 0.838918 0.014974
H10   H     H_    0.631528 0.973757 0.338917 0.014975
H11   H     H_    0.631567 0.026233 0.838935 0.014838
H12   H     H_    0.119640 0.452343 0.134695 0.062443
H13   H     H_    0.688504 0.903997 0.286675 0.066375
H14   H     H_    0.119618 0.547656 0.634659 0.062618
H15   H     H_    0.619618 0.952344 0.134659 0.062618
H16   H     H_    0.619641 0.047657 0.634695 0.062442
H17   H     H_    0.696163 0.552434 0.158217 0.135493
H18   H     H_    0.706698 0.488941 0.186890 0.127141
H19   H     H_    0.742167 0.532180 0.318277 0.145256
H20   H     H_    0.730478 0.406491 0.677339 0.128507
H21   H     H_    0.787825 0.421671 0.806609 0.140630
H22   H     H_    0.734419 0.464091 0.774418 0.124634
H23   H     H_    0.230492 0.093537 0.177275 0.128522
H24   H     H_    0.688564 0.095972 0.786717 0.066369
H25   H     H_    0.234341 0.035891 0.274048 0.124637
H26   H     H_    0.287761 0.078276 0.306741 0.140606
H27   H     H_    0.196089 0.947660 0.658042 0.135473
H28   H     H_    0.242076 0.967882 0.818224 0.145140
H29   H     H_    0.206676 0.011144 0.686689 0.127098
H30   H     H_    0.902891 0.469397 0.354200 0.132253
H31   H     H_    0.910861 0.438887 0.532108 0.138933
H32   H     H_    0.963656 0.439173 0.402054 0.133735
H33   H     H_    0.904333 0.531031 0.855719 0.114059
H34   H     H_    0.964623 0.561915 0.900221 0.128776
H35   H     H_    0.214783 0.437825 0.132087 0.125339
H36   H     H_    0.911944 0.561667 0.031412 0.155248
H37   H     H_    0.404340 0.968972 0.355727 0.114064
H38   H     H_    0.411948 0.938335 0.531415 0.155251
H39   H     H_    0.464626 0.938081 0.400220 0.128768
H40   H     H_    0.402898 0.030605 0.854199 0.132277
H41   H     H_    0.463661 0.060831 0.902045 0.133730
H42   H     H_    0.410867 0.061114 0.032104 0.138940
H43   H     H_    0.214764 0.562190 0.632151 0.125349
H44   H     H_    0.714765 0.937810 0.132153 0.125348
H45   H     H_    0.714783 0.062174 0.632086 0.125339
H46   H     H_    0.820496 0.479917 0.229884 0.063362
H47   H     H_    0.844880 0.488689 0.722585 0.102621
H48   H     H_    0.344873 0.011282 0.222613 0.102533
H49   H     H_    0.038909 0.684462 0.196071 0.096276
H50   H     H_    0.320494 0.020088 0.729888 0.063349
H51   H     H_    0.783458 0.450690 0.064929 -0.015883
H52   H     H_    0.793745 0.530854 0.657752 -0.003885
H53   H     H_    0.293699 0.969172 0.157591 -0.003852
H54   H     H_    0.283466 0.049326 0.564935 -0.015929
H55   H     H_    0.791624 0.560358 0.110151 0.120937
H56   H     H_    0.804443 0.428241 0.525200 0.104025
H57   H     H_    0.304559 0.071827 0.025496 0.103994
H58   H     H_    0.291614 0.939650 0.610297 0.120847
H59   H     H_    0.751058 0.528928 0.958396 0.093308
H60   H     H_    0.538907 0.815536 0.696074 0.096278
H61   H     H_    0.749978 0.467863 0.484824 0.102667
H62   H     H_    0.250074 0.032258 0.984564 0.102679
H63   H     H_    0.251087 0.971067 0.458283 0.093262
H64   H     H_    0.018598 0.309782 0.484044 -0.048526
H65   H     H_    0.018823 0.690477 0.983829 -0.049072
H66   H     H_    0.518823 0.809526 0.483830 -0.049068
H67   H     H_    0.518599 0.190219 0.984044 -0.048526
H68   H     H_    0.082226 0.247330 0.578604 0.074711
H69   H     H_    0.082610 0.752654 0.079890 0.074559
H70   H     H_    0.582608 0.747346 0.579879 0.074560
H71   H     H_    0.538767 0.184583 0.196348 0.096215
H72   H     H_    0.582227 0.252669 0.078610 0.074710
H73   H     H_    0.039727 0.226734 0.721355 0.139365
H74   H     H_    0.040079 0.773104 0.222742 0.139616
H75   H     H_    0.540076 0.726893 0.722722 0.139613
H76   H     H_    0.539730 0.273265 0.221365 0.139367
H77   H     H_    0.918618 0.243706 0.110620 0.072182
H78   H     H_    0.918535 0.756266 0.610264 0.071555
H79   H     H_    0.418535 0.743734 0.110265 0.071554
H80   H     H_    0.418617 0.256293 0.610623 0.072182
H81   H     H_    0.178136 0.635625 0.202912 0.083551
H82   H     H_    0.225668 0.457469 0.337579 0.125029
H83   H     H_    0.178236 0.364412 0.702980 0.083404
H84   H     H_    0.678237 0.135587 0.202980 0.083404
H85   H     H_    0.678137 0.864375 0.702911 0.083550
H86   H     H_    0.262417 0.663355 0.165075 0.060360
H87   H     H_    0.262320 0.336623 0.667463 0.060320
H88   H     H_    0.762321 0.163376 0.167463 0.060320
H89   H     H_    0.762418 0.836647 0.665075 0.060360
H90   H     H_    0.831758 0.220174 0.250463 0.061704
H91   H     H_    0.831819 0.779750 0.747641 0.061581
H92   H     H_    0.331817 0.720253 0.247643 0.061582
H93   H     H_    0.225623 0.542577 0.837680 0.125031
H94   H     H_    0.331757 0.279824 0.750461 0.061703
H95   H     H_    0.827943 0.360262 0.979923 0.083574
H96   H     H_    0.826466 0.638839 0.480064 0.088659
H97   H     H_    0.326461 0.861163 0.980069 0.088648
H98   H     H_    0.327939 0.139733 0.479926 0.083584
H99   H     H_    0.170721 0.777879 0.935688 0.060755
H100  H     H_    0.171613 0.222226 0.433349 0.060526
H101  H     H_    0.671615 0.277773 0.933349 0.060526
H102  H     H_    0.670725 0.722121 0.435681 0.060755
H103  H     H_    0.741105 0.334370 0.015186 0.053265
H104  H     H_    0.725622 0.957423 0.337682 0.125032
H105  H     H_    0.740090 0.665393 0.517456 0.054733
H106  H     H_    0.240084 0.834609 0.017465 0.054730
H107  H     H_    0.241103 0.165629 0.515187 0.053261
H108  H     H_    0.147392 0.713704 0.759604 0.076775
H109  H     H_    0.147635 0.286397 0.259412 0.076577
H110  H     H_    0.647636 0.213602 0.759413 0.076578
H111  H     H_    0.647393 0.786296 0.259601 0.076775
H112  H     H_    0.855170 0.283609 0.426505 0.075928
H113  H     H_    0.855228 0.716615 0.924852 0.075784
H114  H     H_    0.355224 0.783389 0.424857 0.075784
H115  H     H_    0.725669 0.042531 0.837578 0.125029
H116  H     H_    0.355170 0.216391 0.926502 0.075928
H117  H     H_    0.056393 0.590431 0.849780 0.055537
H118  H     H_    0.056379 0.409465 0.350044 0.055682
H119  H     H_    0.556380 0.090535 0.850043 0.055680
H120  H     H_    0.556393 0.909568 0.349780 0.055535
H121  H     H_    0.019905 0.221340 0.509506 0.111466
H122  H     H_    0.020392 0.778869 0.010927 0.111318
H123  H     H_    0.520390 0.721134 0.510904 0.111319
H124  H     H_    0.519906 0.278661 0.009517 0.111466
H125  H     H_    0.958650 0.316772 0.013240 0.090059
H126  H     H_    0.188563 0.404028 0.286717 0.066368
H127  H     H_    0.958600 0.683202 0.513042 0.088461
H128  H     H_    0.458600 0.816799 0.013046 0.088460
H129  H     H_    0.458650 0.183227 0.513238 0.090060
H130  H     H_    0.984062 0.303093 0.217154 -0.062278
H131  H     H_    0.984000 0.696911 0.716957 -0.063390
H132  H     H_    0.484001 0.803089 0.216959 -0.063389
H133  H     H_    0.484062 0.196906 0.717154 -0.062276
H134  H     H_    0.956651 0.230037 0.948463 0.142577
H135  H     H_    0.956594 0.769939 0.448173 0.142629
H136  H     H_    0.456593 0.730062 0.948171 0.142629
O1    O     O_2   0.898940 0.431940 0.867860 -0.466147
O2    O     O_3   0.033622 0.710336 0.542174 -0.597591
O3    O     O_3   0.533622 0.789664 0.042173 -0.597591
O4    O     O_3   0.533681 0.210338 0.542367 -0.597717
O5    O     O_3   0.058810 0.523750 0.066650 -0.502743
O6    O     O_3   0.058810 0.476250 0.566650 -0.502563
O7    O     O_3   0.558810 0.023750 0.066650 -0.502563
O8    O     O_3   0.558810 0.976250 0.566650 -0.502744
O9    O     O_3   0.941140 0.476130 0.123050 -0.483689
O10   O     O_3   0.941140 0.523870 0.623050 -0.500604
O11   O     O_3   0.441140 0.976130 0.123050 -0.500593
O12   O     O_2   0.898940 0.568060 0.367860 -0.436199
O13   O     O_3   0.441140 0.023870 0.623050 -0.483700
O14   O     O_3   0.982430 0.389880 0.635700 -0.504547
O15   O     O_3   0.982430 0.610120 0.135700 -0.506840
O16   O     O_3   0.482430 0.889880 0.635700 -0.506843
O17   O     O_3   0.482430 0.110120 0.135700 -0.504548
O18   O     O_2   0.900269 0.348819 0.750018 -0.484553
O19   O     O_2   0.900205 0.651347 0.248779 -0.485140
O20   O     O_2   0.400205 0.848652 0.748784 -0.485140
O21   O     O_2   0.400269 0.151181 0.250015 -0.484550
O22   O     O_3   0.845567 0.491747 0.007996 -0.656524
O23   O     O_2   0.398940 0.931940 0.867860 -0.436198
O24   O     O_3   0.843275 0.511199 0.492138 -0.654402
O25   O     O_3   0.343282 0.988807 0.992118 -0.654388
O26   O     O_3   0.345564 0.008254 0.508009 -0.656544
O27   O     O_3   0.964412 0.288985 0.636560 -0.601078
O28   O     O_3   0.964641 0.711131 0.136526 -0.601103
O29   O     O_3   0.464639 0.788869 0.636515 -0.601105
O30   O     O_3   0.464413 0.211015 0.136566 -0.601076
O31   O     O_2   0.100770 0.431440 0.821660 -0.456645
O32   O     O_2   0.100770 0.568560 0.321660 -0.456643
O33   O     O_2   0.600770 0.931440 0.821660 -0.456643
O34   O     O_2   0.398940 0.068060 0.367860 -0.466126
O35   O     O_2   0.600770 0.068560 0.321660 -0.456645
O36   O     O_3   0.017130 0.389790 0.053700 -0.488498
O37   O     O_3   0.017130 0.610210 0.553700 -0.489540
O38   O     O_3   0.517130 0.889790 0.053700 -0.489540
O39   O     O_3   0.517130 0.110210 0.553700 -0.488500
O40   O     O_2   0.102495 0.350342 0.958899 -0.483200
O41   O     O_2   0.102486 0.649653 0.458902 -0.483171
O42   O     O_2   0.602485 0.850347 0.958900 -0.483171
O43   O     O_2   0.602495 0.149658 0.458899 -0.483200
O44   O     O_3   0.160838 0.484194 0.668850 -0.633898
O45   O     O_3   0.160845 0.515815 0.168792 -0.633884
O46   O     O_3   0.660845 0.984184 0.668792 -0.633884
O47   O     O_3   0.660838 0.015805 0.168850 -0.633898
O48   O     O_3   0.033681 0.289662 0.042363 -0.597717
P1    P     P_3+3 0.893960 0.447890 0.040050 0.949932
P2    P     P_3+3 0.064118 0.655260 0.586587 0.944003
P3    P     P_3+3 0.564118 0.844740 0.086586 0.944003
P4    P     P_3+3 0.564158 0.155246 0.586682 0.944159
P5    P     P_3+3 0.934347 0.655177 0.109341 0.939317
P6    P     P_3+3 0.934225 0.345013 0.610153 0.940214
P7    P     P_3+3 0.434226 0.154987 0.110153 0.940208
P8    P     P_3+3 0.434346 0.844824 0.609340 0.939316
P9    P     P_3+3 0.893960 0.552110 0.540050 0.957830
P10   P     P_3+3 0.393960 0.947890 0.040050 0.957828
P11   P     P_3+3 0.393960 0.052110 0.540050 0.949940
P12   P     P_3+3 0.105800 0.447360 0.649510 0.981319
P13   P     P_3+3 0.105800 0.552640 0.149510 0.981174
P14   P     P_3+3 0.605800 0.947360 0.649510 0.981174
P15   P     P_3+3 0.605800 0.052640 0.149510 0.981319
P16   P     P_3+3 0.064158 0.344753 0.086681 0.944159

loop_
_geom_bond_atom_site_label_1
_geom_bond_atom_site_label_2
_ccdc_geom_bond_type
C95   C99   S    
C101  C106  S    
C96   H11   S    
C15   H39   S    
C53   O48   S    
O1    P1    D    
O21   P7    D    
C105  O26   S    
C104  H48   S    
C101  O22   S    
Ba2   O37   S    
C54   H131  S    
C89   H5    S    
C93   H8    S    
C64   H110  S    
C50   C59   A    
C78   C83   A    
C96   C100  S    
C107  H56   S    
C31   C38   A    
C111  H65   S    
C23   H113  S    
Ba2   O12   S    
C8    H19   S    
C55   H132  S    
C111  H49   S    
C77   C82   A    
C106  H55   S    
Ba4   O8    S    
C16   H42   S    
O37   P2    S    
C112  O29   S    
C14   H36   S    
O39   P4    S    
C73   P15   S    
C28   P5    S    
C63   C81   A    
C46   C49   A    
C55   O3    S    
Ba3   P14   S    
O31   P12   D    
C94   C98   S    
C97   H35   S    
C100  H24   S    
C74   C78   A    
C64   C68   A    
C70   P3    S    
O42   P3    D    
C90   H6    S    
C109  H63   S    
C24   C29   A    
C110  H64   S    
C15   H37   S    
C33   H92   S    
O14   P6    S    
C24   H114  S    
C2    C69   A    
C108  H62   S    
Ba1   O6    S    
Ba3   O16   S    
C58   P1    S    
O20   P8    D    
C100  H115  S    
C90   H136  S    
C96   H16   S    
C43   C48   A    
C58   C102  A    
C88   H134  S    
C36   H123  S    
C3    H67   S    
Ba4   O39   S    
C1    H73   S    
C62   C66   A    
O48   P16   S    
Ba3   O7    S    
C86   H119  S    
C54   O2    S    
O3    P3    S    
O4    P4    S    
C95   O47   S    
C105  H50   S    
C35   H86   S    
C107  H61   S    
C37   C41   A    
O38   P3    S    
C14   H34   S    
C71   C75   A    
Ba1   O36   S    
C40   C44   A    
C4    C58   A    
C111  O28   S    
C10   H26   S    
C74   P14   S    
C53   C88   S    
C38   H88   S    
C89   H78   S    
C40   C79   S    
C77   H84   S    
C8    C106  S    
O32   P13   D    
C10   C108  S    
C84   H117  S    
C3    H71   S    
Ba4   P11   S    
C36   H70   S    
C56   O4    S    
O35   P15   D    
C47   H72   S    
O17   P7    S    
C49   C57   A    
C94   H9    S    
C112  H66   S    
C11   C109  S    
C47   H124  S    
O13   P11   S    
C1    H68   S    
O2    P2    S    
C99   H104  S    
C25   C111  S    
C44   H99   S    
C56   H129  S    
C8    H18   S    
C93   H12   S    
C95   H10   S    
Ba4   O35   S    
C26   C30   A    
C34   C37   A    
Ba1   O31   S    
C50   H105  S    
Ba2   O32   S    
C17   C91   A    
C76   H83   S    
C55   H128  S    
C43   C83   S    
C68   C86   A    
C31   H90   S    
C34   C61   A    
C31   C57   A    
C34   H94   S    
C97   H126  S    
C91   P11   S    
C71   P13   S    
C110  O27   S    
C51   H106  S    
C11   H27   S    
Ba1   P12   S    
C103  H47   S    
C56   H133  S    
Ba3   P10   S    
C104  O25   S    
C25   H122  S    
O28   P5    S    
C17   C21   A    
C92   H7    S    
C4    C27   A    
C103  C107  S    
C20   C24   A    
C53   H130  S    
O40   P16   D    
C52   H107  S    
C98   H93   S    
Ba3   O23   S    
C35   C40   A    
C46   H101  S    
C13   C80   A    
C9    H22   S    
C88   H4    S    
C9    C107  S    
C18   C57   S    
O18   P6    D    
C39   C43   A    
C102  H95   S    
C25   H69   S    
C6    C29   A    
O19   P5    D    
C110  H1    S    
Ba1   O10   S    
C5    C14   S    
Ba2   O5    S    
O33   P14   D    
C4    C12   S    
O8    P14   S    
Ba3   O38   S    
Ba3   Ba4   S    
C109  H58   S    
O7    P15   S    
C49   H103  S    
C44   C51   A    
C92   H3    S    
O46   P14   S    
C1    H121  S    
C12   H31   S    
Ba3   O13   S    
C54   C89   S    
C68   P4    S    
C99   H44   S    
C63   H109  S    
Ba4   O17   S    
C38   C42   A    
C53   H125  S    
C5    C28   A    
C62   C79   A    
C72   P12   S    
Ba1   O14   S    
C22   H112  S    
Ba2   P9    S    
C55   C90   S    
C69   P9    S    
C65   C83   A    
C67   P16   S    
C19   C59   S    
C20   C60   S    
C66   P2    S    
Ba4   P15   S    
Ba1   O1    S    
Ba1   O5    S    
C7    C16   S    
C73   C86   A    
C90   H79   S    
C72   C76   A    
C93   O45   S    
C88   H77   S    
C100  H45   S    
Ba4   O34   S    
C104  C108  S    
C70   C87   A    
C76   C81   A    
O15   P5    S    
C73   C77   A    
C6    C15   S    
C94   H14   S    
Ba2   P13   S    
C29   P8    S    
C103  O24   S    
C99   H13   S    
C30   P7    S    
C56   C92   S    
Ba4   O7    S    
C16   H41   S    
C96   O46   S    
O22   P1    S    
C33   C60   A    
C21   C26   A    
Ba3   O33   S    
C42   C46   A    
C103  H52   S    
C23   C28   A    
C94   O44   S    
C98   H43   S    
C78   H85   S    
C48   H102  S    
C3    C47   S    
C33   C35   A    
C75   C79   A    
C36   H75   S    
Ba2   O15   S    
C63   C67   A    
C54   H127  S    
C92   H80   S    
C18   C22   A    
C15   H38   S    
C25   H74   S    
C32   C39   A    
C52   C61   A    
C75   H81   S    
C1    C110  S    
C39   H89   S    
C64   C82   A    
C66   C84   A    
C80   P10   S    
C106  H59   S    
C45   H100  S    
O25   P10   S    
Ba2   O9    S    
C2    H96   S    
C27   P6    S    
Ba3   O8    S    
C12   H30   S    
Ba1   Ba2   S    
C26   H116  S    
O44   P12   S    
C19   C23   A    
C37   H87   S    
C14   H33   S    
C98   H2    S    
O47   P15   S    
C108  H57   S    
C10   H25   S    
C22   C27   A    
C104  H53   S    
Ba1   P1    S    
C5    C69   A    
C13   H97   S    
C65   H111  S    
O16   P8    S    
C48   C50   A    
C13   C20   A    
C112  H60   S    
C65   C70   A    
C21   C61   S    
C62   H108  S    
C11   H29   S    
C97   H82   S    
O27   P6    S    
C18   C102  A    
O9    P1    S    
C87   H120  S    
C101  H51   S    
C32   H91   S    
C9    H21   S    
C85   H118  S    
C41   C81   S    
O5    P13   S    
C67   C85   A    
C51   C60   A    
C41   C45   A    
C3    O30   S    
O23   P10   D    
Ba2   O6    S    
C8    H17   S    
C9    H20   S    
O36   P16   S    
O10   P9    S    
C32   C59   A    
C105  H54   S    
C7    C91   A    
C16   H40   S    
C17   H98   S    
C7    C30   A    
O24   P9    S    
O12   P9    D    
O26   P11   S    
C105  C109  S    
C74   C87   A    
C45   C52   A    
O34   P11   D    
C72   C85   A    
C95   H15   S    
C12   H32   S    
O29   P8    S    
O45   P13   S    
O6    P12   S    
O30   P7    S    
C36   C112  S    
Ba4   O11   S    
C2    C19   A    
C6    C80   A    
C11   H28   S    
C71   C84   A    
C10   H23   S    
C101  H46   S    
O11   P10   S    
O41   P2    D    
C93   C97   S    
C47   H76   S    
C89   H135  S    
O43   P4    D    
C42   C82   S    
