data_mof_unit_18835.cif
_audit_creation_date              2012-12-11T14:40:21-0500
_audit_creation_method            fapswitch 2.2
_symmetry_space_group_name_H-M    P1
_symmetry_Int_Tables_number       1
_space_group_crystal_system       triclinic
_cell_length_a                    19.586474
_cell_length_b                    10.882457
_cell_length_c                    19.45015
_cell_angle_alpha                 89.778042
_cell_angle_beta                  97.489001
_cell_angle_gamma                 89.811402
_cell_volume                      4110.35437567

loop_
_atom_site_label
_atom_site_type_symbol
_atom_type_description
_atom_site_fract_x
_atom_site_fract_y
_atom_site_fract_z
_atom_type_partial_charge
C1    C     C_R   0.707389 0.000031 0.366418 0.563056
C2    C     C_3   0.247092 0.418837 0.571249 0.024918
C3    C     C_3   0.252106 0.915365 0.430437 0.019852
C4    C     C_3   0.747092 0.918834 0.571249 0.023294
C5    C     C_3   0.760651 0.548391 0.454431 -0.134936
C6    C     C_3   0.277215 0.531264 0.539172 -0.112702
C7    C     C_3   0.260654 0.048373 0.454438 -0.133868
C8    C     C_3   0.777219 0.031255 0.539170 -0.111567
C9    C     C_3   0.824087 0.506465 0.506130 -0.181207
C10   C     C_3   0.204685 0.555547 0.497846 -0.197066
C11   C     C_3   0.324083 0.006430 0.506138 -0.179956
C12   C     C_R   0.292917 0.002191 0.633803 0.562918
C13   C     C_3   0.704691 0.055542 0.497843 -0.195836
C14   C     C_3   0.814881 0.372883 0.480981 -0.107880
C15   C     C_3   0.175351 0.441846 0.531528 -0.108482
C16   C     C_3   0.314868 0.872850 0.480989 -0.107699
C17   C     C_3   0.675352 0.941847 0.531527 -0.107585
C18   C     C_3   0.766133 0.345973 0.535178 -0.137870
C19   C     C_3   0.194847 0.359298 0.472873 -0.099410
C20   C     C_3   0.266114 0.845954 0.535183 -0.138604
C21   C     C_3   0.694846 0.859292 0.472874 -0.100080
C22   C     C_3   0.775988 0.477994 0.560226 0.044494
C23   C     C_R   0.207387 0.500036 0.366417 0.565183
C24   C     C_3   0.223827 0.472195 0.439821 0.031970
C25   C     C_3   0.275979 0.977972 0.560230 0.046809
C26   C     C_3   0.723831 0.972184 0.439821 0.032493
C27   C     C_3   0.549413 0.173331 0.958155 -0.105876
C28   C     C_3   0.539048 0.274654 0.011108 -0.115003
C29   C     C_3   0.028564 0.768039 0.967255 -0.100424
C30   C     C_3   0.986179 0.778594 0.028123 -0.097377
C31   C     C_3   0.539640 0.072480 0.012214 -0.124750
C32   C     C_3   0.460627 0.274531 0.988215 -0.114739
C33   C     C_3   0.072198 0.662843 0.003988 -0.149557
C34   C     C_R   0.792921 0.502201 0.633804 0.567221
C35   C     C_3   0.934600 0.682090 0.995601 -0.148840
C36   C     C_3   0.528746 0.174116 0.063973 0.051567
C37   C     C_3   0.471360 0.173442 0.936097 0.051668
C38   C     C_3   0.029718 0.673853 0.064222 0.056221
C39   C     C_3   0.976836 0.672146 0.935227 0.057369
C40   C     C_R   0.535431 0.179975 0.338261 0.551054
C41   C     C_R   0.465657 0.180011 0.662565 0.549988
C42   C     C_R   0.035431 0.679975 0.338262 0.551232
C43   C     C_R   0.965660 0.680011 0.662568 0.548898
C44   C     C_3   0.450688 0.173747 0.041935 -0.105888
C45   C     C_3   0.703484 0.387633 0.484216 -0.089233
C46   C     C_3   0.460873 0.072374 0.988636 -0.124649
C47   C     C_3   0.978375 0.577085 0.032566 -0.102129
C48   C     C_3   0.020137 0.566556 0.970594 -0.104689
C49   C     C_1   0.782781 0.477875 0.915091 -0.017316
C50   C     C_1   0.237167 0.425806 0.095754 -0.004605
C51   C     C_1   0.257449 0.908186 0.899599 -0.007607
C52   C     C_1   0.742349 0.909706 0.100208 -0.004962
C53   C     C_1   0.758984 0.441275 0.042433 -0.041032
C54   C     C_1   0.252206 0.408618 0.965192 -0.048245
C55   C     C_1   0.233590 0.858537 0.025518 -0.047200
C56   C     C_3   0.266832 0.336014 0.513407 -0.075826
C57   C     C_1   0.765400 0.860886 0.974085 -0.044987
C58   C     C_1   0.771821 0.462861 0.973941 -0.044061
C59   C     C_1   0.245608 0.415966 0.036019 -0.047339
C60   C     C_1   0.244543 0.882306 0.956656 -0.043304
C61   C     C_1   0.754842 0.884429 0.043007 -0.040160
C62   C     C_1   0.748360 0.413264 0.099927 -0.006436
C63   C     C_1   0.257057 0.395210 0.904820 -0.005366
C64   C     C_1   0.227120 0.838690 0.085193 -0.014981
C65   C     C_1   0.771956 0.840647 0.914540 -0.014864
C66   C     C_R   0.739862 0.364813 0.361330 0.543447
C67   C     C_3   0.203471 0.887629 0.484216 -0.091488
C68   C     C_R   0.259021 0.368765 0.640502 0.541405
C69   C     C_R   0.239862 0.864813 0.361329 0.554324
C70   C     C_R   0.759019 0.868771 0.640508 0.554603
C71   C     C_R   0.722565 0.950873 0.164491 0.548088
C72   C     C_R   0.277412 0.950399 0.835478 0.543863
C73   C     C_R   0.222000 0.452631 0.163752 0.545488
C74   C     C_R   0.795610 0.498537 0.845293 0.523363
C75   C     C_R   0.559468 0.182147 0.135546 0.548820
C76   C     C_R   0.440660 0.181903 0.864483 0.549357
C77   C     C_R   0.059492 0.682133 0.135769 0.532997
C78   C     C_3   0.766831 0.836005 0.513410 -0.078330
C79   C     C_R   0.943940 0.681417 0.864846 0.516867
C80   C     C_R   0.736666 0.363151 0.165359 0.537933
C81   C     C_R   0.263990 0.360513 0.835554 0.534122
C82   C     C_R   0.222116 0.810393 0.156210 0.535907
C83   C     C_R   0.777576 0.811328 0.843886 0.517281
C84   C     C_1   0.488690 0.172508 0.596169 0.009520
C85   C     C_1   0.515924 0.172067 0.406195 0.025327
C86   C     C_1   0.988697 0.672507 0.596173 0.006105
C87   C     C_1   0.015928 0.672067 0.406197 0.023716
C88   C     C_1   0.507221 0.168985 0.466129 -0.009265
C89   C     C_3   0.752113 0.415380 0.430433 0.021646
C90   C     C_1   0.499552 0.169339 0.536873 -0.022414
C91   C     C_1   0.007227 0.668984 0.466132 -0.009439
C92   C     C_1   0.999559 0.669338 0.536877 -0.023135
C93   C     C_3   0.713249 0.519819 0.510154 0.245155
C94   C     C_3   0.295252 0.448950 0.480050 0.255187
C95   C     C_3   0.213246 0.019813 0.510156 0.245375
C96   C     C_3   0.795254 0.948934 0.480050 0.254899
Cl1   Cl    Cl    0.641220 0.604028 0.532505 -0.577432
Cl2   Cl    Cl    0.376065 0.449773 0.447223 -0.556538
Cl3   Cl    Cl    0.141223 0.104036 0.532509 -0.578810
Cl4   Cl    Cl    0.876066 0.949742 0.447220 -0.557922
Cr1   Cr    Cr6+3 0.765830 0.160660 0.268180 1.075930
Cr2   Cr    Cr6+3 0.384070 0.324050 0.751550 1.041532
Cr3   Cr    Cr6+3 0.115930 0.824050 0.248450 1.046505
Cr4   Cr    Cr6+3 0.884070 0.824050 0.751550 1.038766
Cr5   Cr    Cr6+3 0.234170 0.160660 0.731820 1.078139
Cr6   Cr    Cr6+3 0.265830 0.660660 0.268180 1.073472
Cr7   Cr    Cr6+3 0.734170 0.660660 0.731820 1.080687
Cr8   Cr    Cr6+3 0.612110 0.009150 0.248770 1.036670
Cr9   Cr    Cr6+3 0.387890 0.009150 0.751230 1.033816
Cr10  Cr    Cr6+3 0.112110 0.509150 0.248770 1.029597
Cr11  Cr    Cr6+3 0.887890 0.509150 0.751230 1.025270
Cr12  Cr    Cr6+3 0.615930 0.324050 0.248450 1.046708
H1    H     H_    0.757743 0.628635 0.418778 0.136583
H2    H     H_    0.126344 0.439221 0.554462 0.157376
H3    H     H_    0.356991 0.811469 0.468681 0.178194
H4    H     H_    0.626345 0.939229 0.554459 0.158730
H5    H     H_    0.765623 0.270084 0.572825 0.138307
H6    H     H_    0.161220 0.290858 0.443215 0.194781
H7    H     H_    0.265591 0.770074 0.572833 0.135586
H8    H     H_    0.661216 0.790856 0.443216 0.194770
H9    H     H_    0.572938 0.990322 0.024053 0.131617
H10   H     H_    0.427394 0.356920 0.976844 0.130093
H11   H     H_    0.129116 0.654048 0.009379 0.105772
H12   H     H_    0.315065 0.592848 0.568799 0.140850
H13   H     H_    0.877683 0.688362 0.990749 0.100486
H14   H     H_    0.588911 0.173068 0.922053 0.139658
H15   H     H_    0.571897 0.357134 0.021887 0.129703
H16   H     H_    0.049286 0.846329 0.939701 0.145625
H17   H     H_    0.971990 0.866080 0.051927 0.147479
H18   H     H_    0.411177 0.174047 0.078020 0.137457
H19   H     H_    0.427945 0.990125 0.977425 0.131429
H20   H     H_    0.958383 0.499246 0.061039 0.138689
H21   H     H_    0.033226 0.480123 0.945062 0.136954
H22   H     H_    0.652307 0.343409 0.472961 0.140786
H23   H     H_    0.257753 0.128622 0.418789 0.138274
H24   H     H_    0.295912 0.249554 0.524437 0.122025
H25   H     H_    0.152291 0.843419 0.472957 0.140466
H26   H     H_    0.795910 0.749546 0.524444 0.121909
H27   H     H_    0.815072 0.092838 0.568794 0.141874
H28   H     H_    0.373697 0.055371 0.516670 0.126834
H29   H     H_    0.676363 0.143046 0.489137 0.103221
H30   H     H_    0.873697 0.555419 0.516657 0.127094
H31   H     H_    0.176353 0.643047 0.489143 0.102993
H32   H     H_    0.857008 0.311515 0.468670 0.177982
O1    O     O_R   0.783230 0.287800 0.346510 -0.510119
O2    O     O_R   0.454570 0.285140 0.836900 -0.504218
O3    O     O_R   0.045430 0.785140 0.163100 -0.513883
O4    O     O_R   0.954570 0.785140 0.836900 -0.511511
O5    O     O_R   0.677850 0.374730 0.185500 -0.511008
O6    O     O_R   0.322150 0.374730 0.814500 -0.513474
O7    O     O_R   0.177850 0.874730 0.185500 -0.495930
O8    O     O_R   0.822150 0.874730 0.814500 -0.492157
O9    O     O_3   0.664630 0.164620 0.255130 -0.309767
O10   O     O_3   0.335370 0.164620 0.744870 -0.307333
O11   O     O_3   0.164630 0.664620 0.255130 -0.330344
O12   O     O_R   0.216770 0.287800 0.653490 -0.475013
O13   O     O_3   0.835370 0.664620 0.744870 -0.342720
O14   O     O_R   0.760130 0.037060 0.338610 -0.439557
O15   O     O_R   0.239870 0.037060 0.661390 -0.445534
O16   O     O_R   0.260130 0.537060 0.338610 -0.438116
O17   O     O_R   0.739870 0.537060 0.661390 -0.437256
O18   O     O_R   0.666620 0.921370 0.332440 -0.516319
O19   O     O_R   0.333380 0.921370 0.667560 -0.514851
O20   O     O_R   0.166620 0.421370 0.332440 -0.513748
O21   O     O_R   0.833380 0.421370 0.667560 -0.506185
O22   O     O_R   0.557170 0.082420 0.312350 -0.511821
O23   O     O_R   0.283230 0.787800 0.346510 -0.505886
O24   O     O_R   0.442830 0.082420 0.687650 -0.512593
O25   O     O_R   0.057170 0.582420 0.312350 -0.511126
O26   O     O_R   0.942830 0.582420 0.687650 -0.511905
O27   O     O_R   0.548310 0.285980 0.316250 -0.476940
O28   O     O_R   0.451690 0.285980 0.683750 -0.476810
O29   O     O_R   0.048310 0.785980 0.316250 -0.476460
O30   O     O_R   0.951690 0.785980 0.683750 -0.476735
O31   O     O_R   0.680520 0.375500 0.327470 -0.497733
O32   O     O_R   0.319480 0.375500 0.672530 -0.501670
O33   O     O_R   0.180520 0.875500 0.327470 -0.492754
O34   O     O_R   0.716770 0.787800 0.653490 -0.471867
O35   O     O_R   0.819480 0.875500 0.672530 -0.495337
O36   O     O_R   0.780350 0.286970 0.193350 -0.502618
O37   O     O_R   0.219650 0.286970 0.806650 -0.505319
O38   O     O_R   0.280350 0.786970 0.193350 -0.490958
O39   O     O_R   0.719650 0.786970 0.806650 -0.497498
O40   O     O_R   0.757460 0.036290 0.196640 -0.485436
O41   O     O_R   0.242540 0.036290 0.803360 -0.489858
O42   O     O_R   0.257460 0.536290 0.196640 -0.503233
O43   O     O_R   0.742540 0.536290 0.803360 -0.487375
O44   O     O_R   0.663740 0.920540 0.179290 -0.511662
O45   O     O_R   0.554500 0.081650 0.170370 -0.492666
O46   O     O_R   0.336260 0.920540 0.820710 -0.512405
O47   O     O_R   0.163740 0.420540 0.179290 -0.504743
O48   O     O_R   0.836260 0.420540 0.820710 -0.487857
O49   O     O_R   0.445500 0.081650 0.829630 -0.493527
O50   O     O_R   0.054500 0.581650 0.170370 -0.496022
O51   O     O_R   0.945500 0.581650 0.829630 -0.511210
O52   O     O_R   0.545430 0.285140 0.163100 -0.503657

loop_
_geom_bond_atom_site_label_1
_geom_bond_atom_site_label_2
_ccdc_geom_bond_type
C19   C56   S    
C21   C26   S    
C16   H3    S    
C8    C13   S    
C53   C58   S    
C87   C91   T    
Cr4   O4    S    
C20   C67   S    
C8    C96   S    
C6    H12   S    
C71   O44   A    
C4    C8    S    
C34   O17   A    
C35   C47   S    
C4    C70   S    
C73   O42   A    
C68   O32   A    
Cr3   O3    S    
C56   C94   S    
Cr12  O31   S    
C26   C96   S    
Cr1   O1    S    
C45   H22   S    
C30   C35   S    
C63   C81   S    
C8    H27   S    
C50   C59   T    
C80   O36   A    
C62   C80   S    
C1    O14   A    
C75   O45   A    
C83   O8    A    
C21   H8    S    
C3    C7    S    
C52   C61   T    
C31   C36   S    
C43   O30   A    
C95   Cl3   S    
C9    C22   S    
C65   C83   S    
Cr12  O27   S    
C20   C25   S    
C94   Cl2   S    
C44   H18   S    
C81   O6    A    
C41   O24   A    
Cr7   O43   S    
Cr10  O47   S    
Cr3   O29   S    
C79   O51   A    
C30   C38   S    
C11   C16   S    
Cr5   O41   S    
C76   O49   A    
C35   H13   S    
C14   C18   S    
Cr6   O38   S    
C66   O1    A    
Cr10  O11   S    
C69   O33   A    
C15   C19   S    
Cr12  O52   S    
Cr8   O9    S    
Cr7   O17   S    
C19   H6    S    
C78   C96   S    
C6    C94   S    
C31   C46   S    
C21   C78   S    
Cr10  O50   S    
C23   C24   S    
C11   H28   S    
Cr9   O49   S    
Cr11  O21   S    
C13   H29   S    
C34   O21   A    
C45   C89   S    
C77   O3    A    
C40   O22   A    
C82   O7    A    
C28   H15   S    
Cr3   O7    S    
C75   O52   A    
C3    C69   S    
Cr5   O10   S    
C45   C93   S    
Cr11  O48   S    
C29   C33   S    
C18   C22   S    
C55   C60   S    
C55   C64   T    
C67   C95   S    
C2    C6    S    
C84   C90   T    
C13   C26   S    
C78   H26   S    
C72   O46   A    
Cr7   O13   S    
C43   O26   A    
C44   C46   S    
C70   O35   A    
C7    C11   S    
C66   C89   S    
C54   C59   S    
Cr2   O28   S    
C80   O5    A    
C22   C34   S    
C41   O28   A    
C14   H32   S    
C27   C31   S    
C32   H10   S    
C48   H21   S    
C28   C32   S    
C31   H9    S    
Cr9   O19   S    
C50   C73   S    
C57   C65   T    
C46   H19   S    
C9    C14   S    
Cr10  O20   S    
C70   O34   A    
Cr4   O30   S    
C6    C10   S    
C10   C24   S    
C41   C84   S    
Cr8   O18   S    
C17   C21   S    
C49   C58   T    
Cr7   O39   S    
Cr3   O33   S    
C39   C79   S    
C40   C85   S    
C36   C75   S    
C35   C39   S    
C77   O50   A    
C69   O23   A    
C14   C89   S    
C4    C78   S    
C29   C30   S    
C2    C15   S    
Cr9   O24   S    
C24   C94   S    
C53   C62   T    
C47   C48   S    
Cr1   O9    S    
Cr9   O46   S    
C16   C20   S    
C42   O25   A    
C23   O16   A    
C29   C39   S    
C32   C44   S    
C15   H2    S    
C83   O39   A    
Cr8   O45   S    
C32   C37   S    
C57   C61   S    
Cr9   O10   S    
C18   H5    S    
C64   C82   S    
C38   C47   S    
C73   O47   A    
Cr1   O40   S    
Cr2   O6    S    
C74   O48   A    
C4    C17   S    
Cr3   O11   S    
C37   C76   S    
C88   C90   S    
C1    O18   A    
C56   H24   S    
Cr12  O9    S    
Cr7   O34   S    
C1    C26   S    
C22   C93   S    
C66   O31   A    
C36   C44   S    
C51   C72   S    
Cr6   O42   S    
C18   C45   S    
C93   Cl1   S    
C91   C92   S    
C33   H11   S    
C23   O20   A    
C85   C88   T    
Cr8   O22   S    
C81   O37   A    
C5    H1    S    
Cr12  O5    S    
C43   C86   S    
C71   O40   A    
Cr8   O44   S    
C3    C67   S    
C5    C9    S    
C68   O12   A    
C42   O29   A    
Cr1   O14   S    
C47   H20   S    
C5    C93   S    
C9    H30   S    
C25   C95   S    
C79   O4    A    
C51   C60   T    
C38   C77   S    
C30   H17   S    
C7    C95   S    
C82   O38   A    
C2    C68   S    
C33   C38   S    
C13   C17   S    
C12   C25   S    
C10   C15   S    
Cr11  O26   S    
Cr6   O23   S    
Cr4   O13   S    
C19   C24   S    
Cr11  O13   S    
Cr1   O36   S    
C86   C92   T    
Cr2   O10   S    
Cr2   O2    S    
C12   O19   A    
Cr4   O8    S    
Cr5   O15   S    
C27   C37   S    
Cr6   O16   S    
C96   Cl4   S    
C27   H14   S    
C10   H31   S    
C40   O27   A    
C12   O15   A    
C67   H25   S    
C72   O41   A    
C7    H23   S    
C74   O43   A    
C76   O2    A    
Cr4   O35   S    
Cr10  O25   S    
Cr5   O12   S    
C28   C36   S    
Cr6   O11   S    
C54   C63   T    
C29   H16   S    
C27   C28   S    
C52   C71   S    
C33   C48   S    
C11   C25   S    
C49   C74   S    
C2    C56   S    
C42   C87   S    
Cr5   O37   S    
C37   C46   S    
Cr2   O32   S    
C20   H7    S    
C5    C89   S    
C3    C16   S    
C17   H4    S    
Cr11  O51   S    
C39   C48   S    
