data_mof_unit_8691.cif
_audit_creation_date              2013-03-05T15:51:59-0500
_audit_creation_method            fapswitch 2.2
_symmetry_space_group_name_H-M    P1
_symmetry_Int_Tables_number       1
_space_group_crystal_system       triclinic
_cell_length_a                    19.059572
_cell_length_b                    11.024321
_cell_length_c                    18.687737
_cell_angle_alpha                 90.12756
_cell_angle_beta                  90.983031
_cell_angle_gamma                 90.206601
_cell_volume                      3926.03188935

loop_
_atom_site_label
_atom_site_type_symbol
_atom_site_description
_atom_site_fract_x
_atom_site_fract_y
_atom_site_fract_z
_atom_type_partial_charge
O1    O     O_R   0.214300 0.709080 0.827500 -0.525674
O2    O     O_R   0.785700 0.709080 0.172500 -0.527125
O3    O     O_R   0.714300 0.209080 0.827500 -0.525811
O4    O     O_R   0.285700 0.209080 0.172500 -0.527353
O5    O     O_R   0.236190 0.958390 0.823150 -0.481908
O6    O     O_R   0.763810 0.958390 0.176850 -0.476882
O7    O     O_R   0.736190 0.458390 0.823150 -0.482052
O8    O     O_R   0.263810 0.458390 0.176850 -0.477076
C1    C     C_R   0.288462 0.001416 0.861079 0.536319
C2    C     C_R   0.713071 0.005730 0.138710 0.537853
C3    C     C_R   0.788476 0.501386 0.861077 0.536110
C4    C     C_R   0.212995 0.505537 0.138714 0.537599
O9    O     O_R   0.332090 0.075280 0.831290 -0.428119
O10   O     O_R   0.667910 0.075280 0.168710 -0.457920
O11   O     O_R   0.832090 0.575280 0.831290 -0.428747
O12   O     O_R   0.167910 0.575280 0.168710 -0.457441
O13   O     O_R   0.446280 0.918040 0.826620 -0.434300
O14   O     O_R   0.553720 0.918040 0.173380 -0.511779
O15   O     O_R   0.946280 0.418040 0.826620 -0.434389
O16   O     O_R   0.053720 0.418040 0.173380 -0.511245
C5    C     C_R   0.444866 0.818343 0.862939 0.529389
C6    C     C_R   0.558792 0.816099 0.137451 0.526599
C7    C     C_R   0.944728 0.318311 0.862937 0.529066
C8    C     C_R   0.058693 0.316130 0.137435 0.526628
O17   O     O_R   0.457080 0.716270 0.831760 -0.501571
O18   O     O_R   0.542920 0.716270 0.168240 -0.427949
O19   O     O_R   0.957080 0.216270 0.831760 -0.501581
O20   O     O_R   0.042920 0.216270 0.168240 -0.428471
O21   O     O_R   0.320980 0.624440 0.823040 -0.496122
O22   O     O_R   0.679020 0.624440 0.176960 -0.494996
O23   O     O_R   0.820980 0.124440 0.823040 -0.496199
O24   O     O_R   0.179020 0.124440 0.176960 -0.495007
C9    C     C_R   0.260209 0.635117 0.850467 0.563658
C10   C     C_R   0.739472 0.636255 0.148856 0.581714
C11   C     C_R   0.760193 0.135074 0.850442 0.563736
C12   C     C_R   0.239473 0.136237 0.148862 0.581526
O25   O     O_R   0.213880 0.710510 0.665560 -0.475836
O26   O     O_R   0.786120 0.710510 0.334440 -0.494611
O27   O     O_R   0.713880 0.210510 0.665560 -0.475882
O28   O     O_R   0.286120 0.210510 0.334440 -0.494690
O29   O     O_R   0.235800 0.959720 0.673040 -0.509925
O30   O     O_R   0.764200 0.959720 0.326960 -0.526537
O31   O     O_R   0.735800 0.459720 0.673040 -0.509892
O32   O     O_R   0.264200 0.459720 0.326960 -0.526564
C13   C     C_R   0.270439 0.050172 0.647776 0.552634
C14   C     C_R   0.730105 0.047802 0.352340 0.570592
C15   C     C_R   0.770439 0.550171 0.647774 0.552725
C16   C     C_R   0.230104 0.547801 0.352341 0.570484
O33   O     O_R   0.331670 0.076720 0.669350 -0.495964
O34   O     O_R   0.668330 0.076720 0.330650 -0.481102
O35   O     O_R   0.831670 0.576720 0.669350 -0.495932
O36   O     O_R   0.168330 0.576720 0.330650 -0.481137
O37   O     O_R   0.445900 0.919370 0.676500 -0.450672
O38   O     O_R   0.554100 0.919370 0.323500 -0.432710
O39   O     O_R   0.945900 0.419370 0.676500 -0.450563
O40   O     O_R   0.054100 0.419370 0.323500 -0.432643
C17   C     C_R   0.468854 0.822948 0.646033 0.597685
C18   C     C_R   0.528437 0.824966 0.352078 0.579981
C19   C     C_R   0.968854 0.322947 0.646033 0.597708
C20   C     C_R   0.028437 0.324966 0.352078 0.580142
O41   O     O_R   0.456660 0.717710 0.669820 -0.511463
O42   O     O_R   0.543340 0.717710 0.330180 -0.532076
O43   O     O_R   0.956660 0.217710 0.669820 -0.511513
O44   O     O_R   0.043340 0.217710 0.330180 -0.532003
O45   O     O_R   0.320590 0.625770 0.672930 -0.512923
O46   O     O_R   0.679410 0.625770 0.327070 -0.493133
O47   O     O_R   0.820590 0.125770 0.672930 -0.512904
O48   O     O_R   0.179410 0.125770 0.327070 -0.493155
C21   C     C_R   0.260820 0.641298 0.642216 0.593486
C22   C     C_R   0.725147 0.691693 0.363096 0.558631
C23   C     C_R   0.760821 0.141301 0.642215 0.593508
C24   C     C_R   0.225149 0.191682 0.363100 0.558621
Cr1   Cr    Cr6+3 0.229640 0.835880 0.747370 1.068206
Cr2   Cr    Cr6+3 0.770360 0.835880 0.252630 1.055261
Cr3   Cr    Cr6+3 0.729640 0.335880 0.747370 1.067967
Cr4   Cr    Cr6+3 0.270360 0.335880 0.252630 1.054928
Cr5   Cr    Cr6+3 0.387390 0.989720 0.750850 1.159597
Cr6   Cr    Cr6+3 0.612610 0.989720 0.249150 1.110936
Cr7   Cr    Cr6+3 0.887390 0.489720 0.750850 1.159212
Cr8   Cr    Cr6+3 0.112610 0.489720 0.249150 1.111390
Cr9   Cr    Cr6+3 0.385770 0.677220 0.749340 1.064297
Cr10  Cr    Cr6+3 0.614230 0.677220 0.250660 1.081079
Cr11  Cr    Cr6+3 0.885770 0.177220 0.749340 1.064140
Cr12  Cr    Cr6+3 0.114230 0.177220 0.250660 1.080920
O49   O     O_3   0.334270 0.834280 0.749190 -0.341697
O50   O     O_3   0.665730 0.834280 0.250810 -0.352624
O51   O     O_3   0.834270 0.334280 0.749190 -0.341668
O52   O     O_3   0.165730 0.334280 0.250810 -0.352628
C25   C     C_3   0.467519 0.894903 0.042369 -0.017056
C26   C     C_3   0.507440 0.936270 0.975730 -0.007613
C27   C     C_3   0.967476 0.395382 0.042325 -0.017295
C28   C     C_3   0.007467 0.436153 0.975601 -0.007805
C29   C     C_3   0.434857 0.786549 0.001098 -0.132882
C30   C     C_3   0.571178 0.857281 0.998602 -0.171814
C31   C     C_3   0.934538 0.287085 0.001216 -0.132896
C32   C     C_3   0.071039 0.356842 0.998563 -0.170846
H1    H     H_    0.378612 0.760369 0.001412 0.151505
H2    H     H_    0.628345 0.873428 0.997179 0.145079
H3    H     H_    0.878239 0.261251 0.001541 0.151870
H4    H     H_    0.128227 0.372839 0.997100 0.145363
C33   C     C_3   0.475777 0.827145 0.934593 0.022097
C34   C     C_3   0.530283 0.817053 0.064563 0.006674
C35   C     C_3   0.975548 0.327061 0.934640 0.021341
C36   C     C_3   0.030064 0.317176 0.064600 0.006775
C37   C     C_3   0.538581 0.748360 0.957583 -0.016027
C38   C     C_3   0.498262 0.708288 0.023618 0.004798
C39   C     C_3   0.038183 0.247934 0.957740 -0.015488
C40   C     C_3   0.997766 0.208470 0.023835 0.004543
C41   C     C_R   0.228003 0.539491 0.065684 0.059592
C42   C     C_R   0.773913 0.531543 0.934686 0.063974
C43   C     C_R   0.728116 0.039825 0.065706 0.059885
C44   C     C_R   0.273880 0.031611 0.934676 0.064204
C45   C     C_R   0.293234 0.519930 0.034852 0.048381
C46   C     C_R   0.709897 0.504382 0.966692 -0.001034
C47   C     C_R   0.793291 0.020025 0.034818 0.048836
C48   C     C_R   0.209811 0.004684 0.966635 0.000994
C49   C     C_R   0.303897 0.546226 0.962958 -0.013670
C50   C     C_R   0.698665 0.533422 0.038156 -0.014949
C51   C     C_R   0.803907 0.046200 0.962897 -0.013629
C52   C     C_R   0.198590 0.033695 0.038100 -0.014651
C53   C     C_R   0.181729 0.599602 0.950423 -0.146658
C54   C     C_R   0.815726 0.615294 0.045943 -0.134067
C55   C     C_R   0.681715 0.099556 0.950408 -0.147324
C56   C     C_R   0.315755 0.115107 0.045986 -0.134473
C57   C     C_R   0.173269 0.585404 0.023282 -0.158421
C58   C     C_R   0.826218 0.589294 0.975050 -0.127383
C59   C     C_R   0.673371 0.085719 0.023314 -0.159165
C60   C     C_R   0.326220 0.089199 0.975075 -0.127686
C61   C     C_3   0.330261 0.402241 0.029441 -0.251451
C62   C     C_3   0.677692 0.382481 0.974515 -0.263688
C63   C     C_3   0.830161 0.902189 0.029403 -0.251457
C64   C     C_3   0.177358 0.882951 0.974356 -0.263587
C65   C     C_3   0.347132 0.435128 0.953029 0.073336
C66   C     C_3   0.663343 0.415007 0.051809 0.069217
C67   C     C_3   0.847022 0.934958 0.952976 0.073098
C68   C     C_3   0.162997 0.915486 0.051648 0.069031
C69   C     C_R   0.247455 0.582619 0.919739 0.059690
C70   C     C_R   0.752532 0.585912 0.078956 0.086682
C71   C     C_R   0.747436 0.082564 0.919703 0.059867
C72   C     C_R   0.252520 0.085870 0.078966 0.086585
H5    H     H_    0.138482 0.634620 0.918993 0.196183
H6    H     H_    0.856757 0.664763 0.074060 0.121591
H7    H     H_    0.638366 0.134239 0.918951 0.195352
H8    H     H_    0.356832 0.164424 0.074134 0.121595
H9    H     H_    0.122568 0.603999 0.045873 0.130981
H10   H     H_    0.875359 0.615694 0.951838 0.162981
H11   H     H_    0.622722 0.104404 0.045964 0.130935
H12   H     H_    0.375369 0.115533 0.951875 0.164642
H13   H     H_    0.790277 0.830398 0.034556 0.145226
H14   H     H_    0.218420 0.813986 0.967133 0.162410
H15   H     H_    0.290481 0.330275 0.034548 0.145341
H16   H     H_    0.718884 0.313739 0.967280 0.162525
H17   H     H_    0.376729 0.394668 0.065494 0.167696
H18   H     H_    0.629399 0.370985 0.941017 0.119417
H19   H     H_    0.876652 0.894417 0.065412 0.167034
H20   H     H_    0.129082 0.871742 0.940806 0.119260
H21   H     H_    0.403263 0.456996 0.944170 0.111408
H22   H     H_    0.606999 0.424854 0.064139 0.114380
H23   H     H_    0.903169 0.956655 0.944072 0.110826
H24   H     H_    0.106667 0.925717 0.063916 0.113584
C73   C     C_R   0.491886 0.841960 0.419869 -0.016419
C74   C     C_R   0.486022 0.828573 0.570292 -0.030162
C75   C     C_R   0.991886 0.341960 0.419869 -0.016394
C76   C     C_R   0.986023 0.328572 0.570292 -0.030165
C77   C     C_R   0.460581 0.743016 0.453192 -0.026791
C78   C     C_R   0.457582 0.737687 0.526310 -0.032274
C79   C     C_R   0.960582 0.243016 0.453193 -0.026753
C80   C     C_R   0.957584 0.237686 0.526311 -0.032277
C81   C     C_R   0.508787 0.936656 0.538096 0.160883
C82   C     C_R   0.504209 0.948897 0.462180 0.152502
C83   C     C_R   0.008787 0.436656 0.538096 0.160866
C84   C     C_R   0.004209 0.448897 0.462180 0.152449
C85   C     C_3   0.467090 0.608115 0.446192 -0.246857
C86   C     C_3   0.468042 0.603473 0.527311 -0.243972
C87   C     C_3   0.967092 0.108114 0.446192 -0.246832
C88   C     C_3   0.968045 0.103473 0.527311 -0.243993
H25   H     H_    0.015826 0.074038 0.422557 0.162728
H26   H     H_    0.923501 0.053697 0.550223 0.158882
H27   H     H_    0.515824 0.574036 0.422557 0.162731
H28   H     H_    0.423497 0.553699 0.550223 0.158882
H29   H     H_    0.419394 0.567454 0.421324 0.154440
H30   H     H_    0.519814 0.577645 0.550427 0.142337
H31   H     H_    0.919396 0.067452 0.421324 0.154471
H32   H     H_    0.019817 0.077646 0.550426 0.142330
C89   C     C_R   0.257049 0.591923 0.419762 0.035731
C90   C     C_R   0.746640 0.618696 0.585214 0.034028
C91   C     C_R   0.757050 0.091927 0.419761 0.035759
C92   C     C_R   0.246640 0.118695 0.585217 0.034014
C93   C     C_R   0.237757 0.702170 0.449093 0.007811
C94   C     C_R   0.796621 0.687189 0.549026 0.004825
C95   C     C_R   0.737759 0.202174 0.449091 0.007860
C96   C     C_R   0.296621 0.187188 0.549029 0.004817
C97   C     C_R   0.236929 0.713410 0.522018 0.008376
C98   C     C_R   0.787428 0.713278 0.478040 -0.030794
C99   C     C_R   0.736933 0.213417 0.522015 0.008379
C100  C     C_R   0.287430 0.213269 0.478041 -0.030784
C101  C     C_R   0.290594 0.518723 0.537832 -0.148142
C102  C     C_R   0.669940 0.636753 0.480800 -0.157656
C103  C     C_R   0.790597 0.018729 0.537831 -0.148129
C104  C     C_R   0.169945 0.136726 0.480799 -0.157673
C105  C     C_R   0.292625 0.507987 0.463949 -0.168677
C106  C     C_R   0.679490 0.607398 0.553766 -0.147709
C107  C     C_R   0.792628 0.007993 0.463947 -0.168693
C108  C     C_R   0.179492 0.107386 0.553768 -0.147733
C109  C     C_3   0.176093 0.783360 0.438648 -0.246095
C110  C     C_3   0.873244 0.664302 0.539543 -0.204747
C111  C     C_3   0.676098 0.283368 0.438646 -0.246079
C112  C     C_3   0.373246 0.164304 0.539547 -0.204737
C113  C     C_3   0.173401 0.791172 0.519791 -0.237463
C114  C     C_3   0.862127 0.689032 0.461243 -0.214016
C115  C     C_3   0.673407 0.291184 0.519789 -0.237475
C116  C     C_3   0.362130 0.189027 0.461246 -0.214031
C117  C     C_R   0.256761 0.617997 0.567185 0.080162
C118  C     C_R   0.727040 0.678809 0.440823 0.008307
C119  C     C_R   0.756763 0.118004 0.567184 0.080194
C120  C     C_R   0.227044 0.178787 0.440825 0.008315
H33   H     H_    0.313886 0.449373 0.571543 0.133378
H34   H     H_    0.620794 0.617137 0.454581 0.127151
H35   H     H_    0.813888 0.949378 0.571542 0.133387
H36   H     H_    0.120801 0.117096 0.454579 0.127150
H37   H     H_    0.316486 0.428939 0.441543 0.137890
H38   H     H_    0.637738 0.563375 0.582447 0.126291
H39   H     H_    0.816490 0.928945 0.441542 0.137878
H40   H     H_    0.137741 0.063364 0.582450 0.126282
H41   H     H_    0.130265 0.738318 0.413166 0.235833
H42   H     H_    0.888172 0.568626 0.549895 0.170087
H43   H     H_    0.630268 0.238327 0.413166 0.235821
H44   H     H_    0.388176 0.068630 0.549901 0.170091
H45   H     H_    0.191102 0.870767 0.413461 0.155144
H46   H     H_    0.906022 0.734460 0.566990 0.195914
H47   H     H_    0.691107 0.370772 0.413457 0.155180
H48   H     H_    0.406023 0.234466 0.566993 0.195907
H49   H     H_    0.185694 0.881558 0.541181 0.138524
H50   H     H_    0.891303 0.769865 0.442336 0.177109
H51   H     H_    0.685703 0.381571 0.541176 0.138515
H52   H     H_    0.391303 0.269861 0.442337 0.177108
H53   H     H_    0.127102 0.746284 0.543452 0.243028
H54   H     H_    0.867025 0.605901 0.428083 0.208954
H55   H     H_    0.627107 0.246303 0.543451 0.243028
H56   H     H_    0.367030 0.105894 0.428088 0.208912
N1    N     N_R   0.546443 0.023781 0.581082 0.109853
O53   O     O_R   0.513645 0.112342 0.611895 -0.320351
O54   O     O_R   0.610658 0.000102 0.600847 -0.336661
N2    N     N_R   0.509668 0.067394 0.429327 0.071485
O55   O     O_R   0.526312 0.161686 0.467825 -0.373032
O56   O     O_R   0.479907 0.087337 0.367255 -0.336989
N3    N     N_R   0.046443 0.523781 0.581083 0.109865
O57   O     O_R   0.013645 0.612360 0.611878 -0.320297
O58   O     O_R   0.110641 0.500064 0.600889 -0.336630
N4    N     N_R   0.009664 0.567394 0.429326 0.071454
O59   O     O_R   0.026308 0.661687 0.467823 -0.373053
O60   O     O_R   0.979902 0.587332 0.367254 -0.336793
C121  C     C_2   0.433246 0.969916 0.098150 0.274622
H57   H     H_    0.452620 0.060801 0.108964 0.080879
O61   O     O_2   0.388604 0.925695 0.136232 -0.397422
C122  C     C_2   0.509494 0.067249 0.954248 0.185711
H58   H     H_    0.510202 0.137140 0.995163 0.060587
O62   O     O_2   0.510943 0.096907 0.891491 -0.453100
C123  C     C_2   0.933492 0.470901 0.098060 0.274608
H59   H     H_    0.952947 0.561864 0.108516 0.080147
O63   O     O_2   0.889050 0.427011 0.136532 -0.396944
C124  C     C_2   0.009567 0.566932 0.953711 0.186692
H60   H     H_    0.009240 0.637276 0.994382 0.059809
O64   O     O_2   0.012492 0.595885 0.890876 -0.452904
C125  C     C_2   0.579926 0.667383 0.909637 0.287260
H61   H     H_    0.573423 0.569926 0.912305 0.074297
O65   O     O_2   0.618297 0.711047 0.864857 -0.397153
C126  C     C_2   0.489974 0.579706 0.047567 0.228398
H62   H     H_    0.507928 0.506215 0.014140 0.036078
O66   O     O_2   0.459890 0.556738 0.103011 -0.456505
C127  C     C_2   0.079356 0.166294 0.910022 0.286378
H63   H     H_    0.071956 0.068961 0.912325 0.074063
O67   O     O_2   0.118583 0.209346 0.865790 -0.397603
C128  C     C_2   0.989065 0.080142 0.048110 0.229312
H64   H     H_    0.007027 0.006222 0.015008 0.035386
O68   O     O_2   0.958649 0.057905 0.103479 -0.455466
N5    N     N_R   0.317743 0.351873 0.899170 0.083643
O69   O     O_R   0.354239 0.326352 0.842986 -0.291328
O70   O     O_R   0.253065 0.314227 0.902375 -0.299918
N6    N     N_R   0.701407 0.341544 0.104746 0.095537
O71   O     O_R   0.675250 0.328479 0.168084 -0.290432
O72   O     O_R   0.765462 0.306501 0.093749 -0.301537
N7    N     N_R   0.817521 0.851761 0.899149 0.083640
O73   O     O_R   0.853880 0.826371 0.842852 -0.291704
O74   O     O_R   0.752851 0.814125 0.902478 -0.300463
N8    N     N_R   0.200827 0.841690 0.104585 0.095496
O75   O     O_R   0.174495 0.828483 0.167828 -0.290748
O76   O     O_R   0.264825 0.806283 0.093670 -0.301224

loop_
_geom_bond_atom_site_label_1
_geom_bond_atom_site_label_2
_geom_bond_distance
_ccdc_geom_bond_type
O4    C12   1.263424 A    
O25   C21   1.260857 A    
C64   H14   1.102824 S    
C49   C65   1.491678 S    
Cr7   O51   1.987128 S    
C87   H25   1.102193 S    
C114  H54   1.110266 S    
O39   C19   1.286366 A    
C31   H3    1.109313 S    
C85   H27   1.102194 S    
N4    O60   1.301967 A    
C127  H63   1.082806 S    
O21   C9    1.280323 A    
C20   C75   1.468159 S    
C65   N5    1.463568 S    
N2    O55   1.298177 A    
C90   C106  1.404135 A    
C128  H64   1.082127 S    
C1    O9    1.295158 A    
O44   Cr12  2.074475 S    
C19   C76   1.459623 S    
C11   C71   1.443135 S    
C3    O11   1.295184 A    
C94   C110  1.496398 S    
C7    C35   1.456668 S    
C4    O12   1.289635 A    
C9    C69   1.443251 S    
C110  H42   1.109989 S    
O2    C10   1.263357 A    
O17   Cr9   2.079887 S    
C46   C62   1.483973 S    
C102  H34   1.070776 S    
O31   Cr3   1.954502 S    
C78   C86   1.493814 S    
C67   H23   1.111086 S    
O16   Cr8   1.955336 S    
C22   C118  1.459626 S    
C76   C80   1.396569 A    
C29   C33   1.544802 S    
O13   C5    1.293486 A    
O28   Cr4   2.081943 S    
C83   N3    1.433457 S    
O12   Cr8   2.076983 S    
O22   Cr10  1.954572 S    
O15   C7    1.293848 A    
C98   C118  1.386014 A    
O46   Cr10  1.962609 S    
C87   C88   1.516717 S    
C112  C116  1.500630 S    
C2    C43   1.449022 S    
C15   C90   1.459956 S    
C17   O41   1.265512 A    
C75   C84   1.434462 A    
C112  H48   1.111471 S    
C61   C65   1.513651 S    
C126  O66   1.219393 D    
C32   C36   1.535294 S    
C62   H16   1.102929 S    
C104  H36   1.070772 S    
C63   H13   1.100927 S    
C102  C118  1.408296 A    
C87   H31   1.106770 S    
C88   H32   1.108732 S    
C26   C122  1.500132 S    
Cr12  O52   1.987241 S    
C123  O63   1.219832 D    
O7    Cr3   1.956879 S    
C97   C117  1.399160 A    
C19   O43   1.265512 A    
C20   O44   1.284729 A    
C51   C71   1.394795 A    
Cr8   O52   1.993534 S    
N8    O76   1.301330 A    
O46   C22   1.309369 A    
C74   C81   1.406572 A    
C63   H19   1.107102 S    
C92   C108  1.404127 A    
C31   C40   1.540704 S    
C100  C116  1.488188 S    
C16   O36   1.280277 A    
C30   C34   1.535108 S    
O27   C23   1.260857 A    
C35   C39   1.537512 S    
C8    C36   1.457793 S    
C50   C70   1.391828 A    
O31   C15   1.288866 A    
C73   C77   1.394530 A    
O32   C16   1.266196 A    
O47   Cr11  1.958177 S    
C26   C30   1.551853 S    
C109  H45   1.112004 S    
C105  H37   1.072076 S    
C86   H30   1.108731 S    
C53   C57   1.382995 A    
C103  C119  1.388905 A    
O24   C12   1.280709 A    
C113  H53   1.109193 S    
C121  H57   1.083954 S    
C64   C68   1.517186 S    
C37   C125  1.498818 S    
C55   C71   1.399746 A    
O8    Cr4   1.961846 S    
N1    O53   1.299930 A    
C53   C69   1.399631 A    
O32   Cr4   1.950769 S    
O11   Cr7   2.077395 S    
C115  H51   1.095867 S    
C122  O62   1.218954 D    
C102  C106  1.411057 A    
C39   C40   1.530031 S    
C52   C72   1.391941 A    
O27   Cr3   2.075978 S    
O3    Cr3   2.074441 S    
C42   C46   1.399739 A    
C50   C66   1.491160 S    
C104  C108  1.411048 A    
C1    C44   1.446172 S    
C88   H26   1.102454 S    
Cr5   O49   1.987128 S    
N5    O69   1.300224 A    
C3    C42   1.446210 S    
C111  C115  1.520382 S    
C116  H52   1.110291 S    
C31   C35   1.544808 S    
O22   C10   1.280758 A    
C103  H35   1.083270 S    
N6    O71   1.300318 A    
C2    O10   1.289372 A    
C27   C28   1.539628 S    
C10   C70   1.444029 S    
C48   C52   1.392847 A    
O5    C1    1.300333 A    
C29   C38   1.540652 S    
C98   C114  1.488189 S    
C110  C114  1.500627 S    
C55   C59   1.383106 A    
C48   C64   1.484034 S    
O3    C11   1.268230 A    
O8    C4    1.302937 A    
C62   H18   1.110931 S    
C95   C111  1.490302 S    
C125  O65   1.219478 D    
Cr1   O49   1.994054 S    
C42   C58   1.391274 A    
C45   C49   1.393239 A    
Cr3   O51   1.994054 S    
C66   H22   1.107845 S    
C47   C51   1.393298 A    
C29   H1    1.109279 S    
C44   C48   1.399705 A    
C79   C87   1.498432 S    
O26   Cr2   2.081943 S    
C80   C88   1.493816 S    
C5    O17   1.289800 A    
O29   C13   1.288860 A    
O28   C24   1.304022 A    
O14   C6    1.312555 A    
C8    O20   1.280659 A    
C81   N1    1.433450 S    
C89   C93   1.385637 A    
C124  H60   1.084738 S    
C38   C126  1.496091 S    
O40   Cr8   1.956363 S    
C92   C96   1.397916 A    
C66   N6    1.464264 S    
C16   C89   1.435653 S    
O41   Cr9   2.073801 S    
C112  H44   1.109990 S    
C61   H17   1.107087 S    
C23   C119  1.425663 S    
C32   H4    1.104339 S    
C104  C120  1.408287 A    
O33   Cr5   2.079852 S    
C65   H21   1.111069 S    
O5    Cr1   1.956879 S    
C95   C99   1.368511 A    
C27   C123  1.490203 S    
O29   Cr1   1.954502 S    
C68   H24   1.107764 S    
C93   C97   1.368511 A    
N7    O73   1.300205 A    
Cr9   O49   1.993410 S    
C128  O68   1.219637 D    
C18   O42   1.284730 A    
Cr11  O51   1.993410 S    
O26   C22   1.304015 A    
C30   C37   1.545850 S    
C86   H28   1.102454 S    
O20   Cr12  2.083332 S    
C62   C66   1.517158 S    
C96   C100  1.366493 A    
C61   H15   1.100861 S    
C40   C128  1.496155 S    
C100  C120  1.386009 A    
N7    O74   1.301672 A    
C30   H2    1.104180 S    
C91   C107  1.409460 A    
O30   C14   1.266198 A    
C89   C105  1.409463 A    
C74   C78   1.396570 A    
C93   C109  1.490307 S    
C109  H41   1.103550 S    
C14   C91   1.435655 S    
C99   C119  1.399162 A    
C56   C60   1.373033 A    
O42   Cr10  2.074475 S    
C85   H29   1.106769 S    
O18   Cr10  2.083332 S    
C103  C107  1.386735 A    
C101  H33   1.083269 S    
O34   Cr6   2.073182 S    
O6    Cr2   1.961846 S    
N3    O58   1.299898 A    
O24   Cr12  1.954572 S    
O30   Cr2   1.950769 S    
C39   C127  1.498858 S    
O48   Cr12  1.962609 S    
C53   H5    1.077093 S    
C67   N7    1.463560 S    
C54   C70   1.399938 A    
C79   C80   1.369962 A    
O37   C17   1.286365 A    
C60   H12   1.078105 S    
C15   O35   1.261377 A    
N4    O59   1.298175 A    
Cr10  O50   1.987241 S    
C51   C67   1.491690 S    
O40   C20   1.270981 A    
O43   Cr11  2.073801 S    
O48   C24   1.309373 A    
C52   C68   1.491166 S    
O37   Cr5   1.957099 S    
O21   Cr9   1.953746 S    
O39   Cr7   1.957099 S    
O45   Cr9   1.958177 S    
C13   O33   1.261367 A    
O13   Cr5   1.961147 S    
C107  H39   1.072074 S    
O15   Cr7   1.961147 S    
C116  H56   1.110268 S    
C111  H43   1.103551 S    
C24   C120  1.459594 S    
C32   C39   1.545900 S    
O23   C11   1.280362 A    
C36   C40   1.539488 S    
C101  C117  1.388904 A    
C56   C72   1.399960 A    
O6    C2    1.302790 A    
C37   C38   1.530053 S    
O1    Cr1   2.074441 S    
O19   Cr11  2.079887 S    
O45   C21   1.279029 A    
C84   N4    1.448827 S    
O47   C23   1.279027 A    
C114  H50   1.110290 S    
C44   C60   1.391276 A    
C126  H62   1.082045 S    
C6    O18   1.280695 A    
C57   H9    1.081256 S    
C25   C26   1.539571 S    
O36   Cr8   2.073182 S    
C18   C73   1.468155 S    
O38   Cr6   1.956363 S    
C83   C84   1.426608 A    
C90   C94   1.397912 A    
C77   C78   1.369961 A    
C25   C34   1.526961 S    
C110  H46   1.111466 S    
C81   C82   1.426603 A    
C106  H38   1.081244 S    
C28   C32   1.551844 S    
C27   C36   1.526964 S    
C68   N8    1.464156 S    
C58   H10   1.078268 S    
O1    C9    1.268281 A    
C47   C63   1.483247 S    
C85   C86   1.516718 S    
O7    C3    1.300396 A    
C45   C61   1.483269 S    
C82   N2    1.448828 S    
N6    O72   1.301408 A    
C63   C67   1.513577 S    
N8    O75   1.300170 A    
C77   C85   1.498432 S    
O23   Cr11  1.953746 S    
C28   C35   1.541790 S    
C64   H20   1.110878 S    
C17   C74   1.459623 S    
O16   C8    1.312258 A    
N2    O56   1.301964 A    
C101  C105  1.386734 A    
C7    O19   1.289983 A    
C125  H61   1.082436 S    
Cr4   O52   1.993925 S    
C91   C95   1.385637 A    
O2    Cr2   2.071366 S    
O14   Cr6   1.955336 S    
C5    C33   1.456543 S    
Cr6   O50   1.993534 S    
C25   C121  1.490185 S    
C108  H40   1.081243 S    
C25   C29   1.543810 S    
C96   C112  1.496410 S    
C4    C41   1.448938 S    
O35   Cr7   2.079852 S    
C33   C37   1.537318 S    
O9    Cr5   2.077395 S    
C121  O61   1.219599 D    
C124  O64   1.219689 D    
C27   C31   1.543911 S    
N1    O54   1.299907 A    
C54   C58   1.373000 A    
C75   C79   1.394528 A    
C26   C33   1.541818 S    
C99   C115  1.486148 S    
C97   C113  1.486147 S    
C109  C113  1.520377 S    
C122  H58   1.084174 S    
Cr2   O50   1.993925 S    
C12   C72   1.444031 S    
C46   C50   1.392940 A    
C73   C82   1.434462 A    
C41   C57   1.396279 A    
N5    O70   1.301690 A    
C43   C59   1.396254 A    
C115  H55   1.109193 S    
C54   H6    1.080107 S    
C123  H59   1.084091 S    
O38   C18   1.270980 A    
C127  O67   1.219798 D    
O25   Cr1   2.075978 S    
C49   C69   1.394740 A    
N3    O57   1.299922 A    
C13   C92   1.459926 S    
C41   C45   1.396490 A    
C14   O34   1.280276 A    
C6    C34   1.457875 S    
C21   C117  1.425662 S    
C111  H47   1.112002 S    
C34   C38   1.539578 S    
O10   Cr6   2.076983 S    
C113  H49   1.095866 S    
O4    Cr4   2.071366 S    
C94   C98   1.366497 A    
C55   H7    1.077500 S    
C56   H8    1.080157 S    
C76   C83   1.406574 A    
C43   C47   1.396404 A    
C28   C124  1.500117 S    
C59   H11   1.081011 S    
