data_mof_unit_38992.cif
_audit_creation_date              2012-12-11T14:21:03-0500
_audit_creation_method            fapswitch 2.2
_symmetry_space_group_name_H-M    P1
_symmetry_Int_Tables_number       1
_space_group_crystal_system       triclinic
_cell_length_a                    21.957963
_cell_length_b                    7.206258
_cell_length_c                    14.922305
_cell_angle_alpha                 89.949854
_cell_angle_beta                  106.789606
_cell_angle_gamma                 89.950901
_cell_volume                      2260.57017297

loop_
_atom_site_label
_atom_site_type_symbol
_atom_type_description
_atom_site_fract_x
_atom_site_fract_y
_atom_site_fract_z
_atom_type_partial_charge
O1    O     O_R   0.584770 0.505770 0.002090 -0.540902
O2    O     O_R   0.415230 0.005770 0.997910 -0.541617
O3    O     O_R   0.467060 0.173340 0.861950 -0.541113
O4    O     O_R   0.532940 0.673340 0.138050 -0.540419
C1    C     C_R   0.454044 0.344181 0.826022 0.695993
C2    C     C_R   0.545758 0.844079 0.173860 0.698174
O5    O     O_R   0.587510 0.175890 0.993210 -0.540401
O6    O     O_R   0.412490 0.675890 0.006790 -0.539826
O7    O     O_R   0.536540 0.008150 0.130100 -0.537720
O8    O     O_R   0.463460 0.508150 0.869900 -0.537779
C3    C     C_R   0.613000 0.344859 0.997606 0.729993
C4    C     C_R   0.386997 0.844939 0.002383 0.729052
O9    O     O_3   0.483140 0.340040 0.044760 -0.377579
O10   O     O_3   0.516860 0.840040 0.955240 -0.378075
V1    V     V_3+5 0.503130 0.064190 0.991700 1.409496
V2    V     V_3+5 0.496870 0.564190 0.008300 1.405736
C5    C     C_2   0.213807 0.727376 0.002129 -0.130722
C6    C     C_2   0.786160 0.227626 0.997212 -0.131321
C7    C     C_2   0.180283 0.886651 0.995990 -0.306517
C8    C     C_2   0.819674 0.386863 0.003821 -0.305427
H1    H     H_    0.190601 0.596378 0.007160 0.138303
H2    H     H_    0.809393 0.096738 0.991839 0.138704
H3    H     H_    0.201946 0.019059 0.989695 0.127366
H4    H     H_    0.797974 0.519217 0.010278 0.128247
C9    C     C_2   0.281661 0.714515 0.001715 -0.136518
C10   C     C_2   0.718270 0.214539 0.997385 -0.141280
C11   C     C_2   0.319880 0.861401 0.003221 -0.301286
C12   C     C_2   0.680140 0.361334 0.996926 -0.300439
H5    H     H_    0.300674 0.575552 0.000905 0.136263
H6    H     H_    0.699169 0.075522 0.997169 0.136163
H7    H     H_    0.302110 0.001193 0.004779 0.129548
H8    H     H_    0.698013 0.501190 0.996409 0.132069
C13   C     C_R   0.927271 0.889632 0.724208 -0.025100
C14   C     C_R   0.073116 0.384225 0.275573 -0.023446
C15   C     C_R   0.575696 0.853397 0.275128 -0.029857
C16   C     C_R   0.424810 0.349197 0.724266 -0.035276
C17   C     C_R   0.937257 0.934550 0.568759 -0.165366
C18   C     C_R   0.062136 0.353590 0.431200 -0.165020
C19   C     C_R   0.965051 0.923039 0.665064 -0.173329
C20   C     C_R   0.034569 0.369879 0.334980 -0.175405
C21   C     C_R   0.861468 0.868992 0.687245 -0.214372
C22   C     C_R   0.139327 0.382209 0.312104 -0.212909
C23   C     C_R   0.831693 0.888029 0.590098 0.084010
C24   C     C_R   0.168576 0.362156 0.409298 0.084170
C25   C     C_R   0.871080 0.918255 0.530874 0.142801
C26   C     C_R   0.128596 0.349807 0.468796 0.142684
C27   C     C_R   0.764248 0.881992 0.550090 0.058081
C28   C     C_R   0.235979 0.352703 0.449219 0.058276
C29   C     C_R   0.738027 0.882914 0.450730 0.061427
C30   C     C_R   0.262271 0.353519 0.548564 0.061137
C31   C     C_R   0.778673 0.924587 0.395570 -0.199032
C32   C     C_R   0.220726 0.327748 0.604052 -0.199509
C33   C     C_R   0.843971 0.939516 0.434756 -0.207150
C34   C     C_R   0.155176 0.328318 0.565021 -0.206509
C35   C     C_R   0.722048 0.888009 0.605762 -0.187530
C36   C     C_R   0.277733 0.331035 0.393559 -0.187976
C37   C     C_R   0.656750 0.900658 0.565206 -0.189572
C38   C     C_R   0.342532 0.305120 0.434146 -0.189999
C39   C     C_R   0.630822 0.891154 0.468317 0.109535
C40   C     C_R   0.368784 0.315584 0.530934 0.110718
C41   C     C_R   0.670907 0.862898 0.410049 0.073820
C42   C     C_R   0.329767 0.359119 0.589045 0.073494
C43   C     C_R   0.565024 0.911386 0.429194 -0.166980
C44   C     C_R   0.433734 0.279878 0.570180 -0.168751
C45   C     C_R   0.538256 0.902167 0.332815 -0.212922
C46   C     C_R   0.460525 0.286205 0.666579 -0.208745
C47   C     C_R   0.641485 0.818580 0.313921 0.090859
C48   C     C_R   0.360502 0.402161 0.684980 0.084592
H9    H     H_    0.873404 0.970456 0.389503 0.125143
H10   H     H_    0.125056 0.310473 0.610553 0.124150
H11   H     H_    0.487685 0.926393 0.303311 0.115080
H12   H     H_    0.509948 0.247160 0.696237 0.117707
H13   H     H_    0.626208 0.917226 0.610235 0.122785
H14   H     H_    0.372420 0.276782 0.389235 0.123121
H15   H     H_    0.967389 0.960343 0.523940 0.116525
H16   H     H_    0.031462 0.342297 0.476291 0.116547
H17   H     H_    0.015957 0.941576 0.693608 0.105829
H18   H     H_    0.983232 0.370395 0.306768 0.105715
H19   H     H_    0.834918 0.840023 0.736202 0.096966
H20   H     H_    0.166528 0.398979 0.262936 0.095167
H21   H     H_    0.760238 0.955175 0.321840 0.149539
H22   H     H_    0.238393 0.298700 0.678042 0.147297
H23   H     H_    0.738142 0.896982 0.681000 0.122305
H24   H     H_    0.261314 0.319907 0.318418 0.122440
H25   H     H_    0.534443 0.939502 0.473095 0.120133
H26   H     H_    0.463323 0.239981 0.526467 0.120237
O11   O     O_R   0.036450 0.233070 0.130130 -0.537519
O12   O     O_R   0.963550 0.733070 0.869870 -0.538323
O13   O     O_R   0.912470 0.560570 0.006790 -0.545299
O14   O     O_R   0.087530 0.060570 0.993210 -0.545512
C49   C     C_R   0.886985 0.391972 0.002623 0.730367
C50   C     C_R   0.113003 0.891863 0.997326 0.730746
O15   O     O_R   0.032920 0.562940 0.138050 -0.539294
O16   O     O_R   0.967080 0.062940 0.861950 -0.538930
O17   O     O_R   0.084790 0.730500 0.002090 -0.537234
O18   O     O_R   0.915210 0.230500 0.997910 -0.537216
C51   C     C_R   0.044782 0.394214 0.174397 0.684797
C52   C     C_R   0.955275 0.894687 0.825568 0.684832
O19   O     O_3   0.016820 0.396170 0.955260 -0.378681
O20   O     O_3   0.983180 0.896170 0.044740 -0.378444
V3    V     V_3+5 0.996880 0.672090 0.008300 1.414802
V4    V     V_3+5 0.003120 0.172090 0.991700 1.414598
C53   C     C_3   0.675753 0.711138 0.255526 -0.804302
H27   H     H_    0.683563 0.800862 0.199322 0.193275
H28   H     H_    0.721390 0.650950 0.298183 0.217493
H29   H     H_    0.646980 0.589376 0.222831 0.222940
C54   C     C_3   0.329714 0.524263 0.742440 -0.789058
H30   H     H_    0.285512 0.591698 0.699577 0.214918
H31   H     H_    0.320140 0.443141 0.800207 0.192221
H32   H     H_    0.361652 0.641694 0.772647 0.225123

loop_
_geom_bond_atom_site_label_1
_geom_bond_atom_site_label_2
_ccdc_geom_bond_type
C43   C45   A    
C22   H20   S    
C17   C25   A    
O18   V4    S    
C21   C23   A    
C14   C22   A    
C33   H9    S    
C2    O7    A    
O12   V3    S    
C47   C53   S    
C27   C29   A    
C18   H16   S    
O5    C3    A    
C13   C19   A    
C14   C20   A    
C19   H17   S    
C16   C46   A    
C37   C39   A    
C15   C45   A    
C38   C40   A    
C1    C16   S    
C14   C51   S    
C2    C15   S    
C40   C42   A    
C13   C52   S    
C37   H13   S    
O14   V4    S    
C7    C50   S    
C49   O18   A    
C46   H12   S    
C8    H4    S    
C24   C26   A    
C29   C31   A    
C6    C10   S    
C30   C32   A    
C54   H30   S    
C48   C54   S    
O13   C49   A    
C31   H21   S    
C28   C30   A    
C17   H15   S    
O2    C4    A    
O6    V2    S    
C43   H25   S    
C54   H31   S    
C22   C24   A    
C44   H26   S    
C32   C34   A    
C36   H24   S    
C9    H5    S    
C8    C49   S    
C39   C41   A    
C29   C41   A    
C4    C11   S    
C11   H7    S    
C12   H8    S    
O4    C2    A    
O15   V3    S    
C45   H11   S    
C50   O17   A    
C5    H1    S    
C31   C33   A    
C44   C46   A    
O4    V2    S    
C7    H3    S    
O11   V4    S    
C41   C47   A    
O14   C50   A    
C34   H10   S    
C15   C47   A    
O6    C4    A    
C26   C34   A    
C53   H28   S    
O1    V2    S    
C32   H22   S    
O2    V1    S    
C23   C25   A    
C10   H6    S    
C35   C37   A    
C30   C42   A    
C54   H32   S    
C20   H18   S    
C35   H23   S    
O15   C51   A    
O3    V1    S    
C38   H14   S    
C27   C35   A    
C28   C36   A    
O13   V3    S    
C6    H2    S    
C10   C12   D    
O3    C1    A    
C21   H19   S    
C16   C48   A    
C9    C11   D    
C39   C43   A    
C42   C48   A    
C40   C44   A    
C13   C21   A    
O7    V1    S    
C5    C9    S    
C1    O8    A    
C17   C19   A    
O8    V2    S    
C18   C20   A    
C3    C12   S    
O5    V1    S    
O20   V3    S    
C5    C7    D    
C36   C38   A    
C53   H29   S    
C6    C8    D    
C18   C26   A    
C25   C33   A    
O17   V3    S    
O19   V4    S    
O16   V4    S    
O9    V2    S    
C53   H27   S    
O16   C52   A    
O10   V1    S    
O1    C3    A    
C23   C27   A    
O12   C52   A    
C24   C28   A    
O11   C51   A    
