data_mof_unit_64136.cif
_audit_creation_date              2012-12-10T20:07:54-0500
_audit_creation_method            fapswitch 2.2
_symmetry_space_group_name_H-M    P1
_symmetry_Int_Tables_number       1
_space_group_crystal_system       triclinic
_cell_length_a                    13.047288
_cell_length_b                    18.680128
_cell_length_c                    19.334035
_cell_angle_alpha                 89.929085
_cell_angle_beta                  91.75879
_cell_angle_gamma                 70.477551
_cell_volume                      4438.86441053

loop_
_atom_site_label
_atom_site_type_symbol
_atom_type_description
_atom_site_fract_x
_atom_site_fract_y
_atom_site_fract_z
_atom_type_partial_charge
C1    C     C_R   0.496949 0.500533 0.634320 1.013078
C2    C     C_R   0.822084 0.430437 0.483373 -0.147971
C3    C     C_R   0.468911 0.560836 0.248803 0.288412
C4    C     C_R   0.704052 0.457827 0.494753 1.033065
C5    C     C_R   0.477180 0.554803 0.177197 0.389392
C6    C     C_R   0.523082 0.482976 0.147605 -0.134730
C7    C     C_R   0.571310 0.418142 0.189038 0.397659
C8    C     C_R   0.573488 0.425140 0.260720 0.323490
C9    C     C_R   0.515533 0.495475 0.290995 -0.351689
C10   C     C_R   0.611100 0.462567 0.034356 0.354509
C11   C     C_R   0.602822 0.461494 0.962422 0.394918
C12   C     C_R   0.983902 0.466235 0.473803 -0.091946
C13   C     C_R   0.499290 0.481264 0.929168 -0.144452
C14   C     C_R   0.404347 0.495822 0.968073 0.413059
C15   C     C_R   0.415041 0.488557 0.039690 0.416389
C16   C     C_R   0.503308 0.499247 0.365911 1.006380
C17   C     C_R   0.517046 0.476062 0.072727 -0.176602
C18   C     C_R   0.520732 0.547471 0.823390 0.426115
C19   C     C_R   0.526674 0.550226 0.751112 0.251281
C20   C     C_R   0.488635 0.500991 0.709927 -0.359926
C21   C     C_R   0.444602 0.449911 0.742085 0.313485
C22   C     C_R   0.453946 0.440286 0.813676 0.325720
C23   C     C_R   0.872437 0.481413 0.458773 -0.121404
C24   C     C_R   0.491520 0.489253 0.853883 -0.136148
C25   C     C_R   0.466214 0.278638 0.443389 0.483390
C26   C     C_R   0.476406 0.201186 0.442897 0.301333
C27   C     C_R   0.496016 0.159358 0.506004 -0.251264
C28   C     C_R   0.295241 0.542269 0.496948 0.886334
C29   C     C_R   0.520669 0.195439 0.565270 0.300707
C30   C     C_R   0.536384 0.266184 0.558399 0.407349
C31   C     C_R   0.573570 0.019325 0.543895 0.375028
C32   C     C_R   0.561069 0.947326 0.551932 0.401548
C33   C     C_R   0.486963 0.926254 0.507857 -0.145733
C34   C     C_R   0.024988 0.526125 0.462714 -0.047141
C35   C     C_R   0.412438 0.984749 0.466297 0.306748
C36   C     C_R   0.404725 0.061234 0.474908 0.379396
C37   C     C_R   0.490557 0.079470 0.509367 -0.174036
C38   C     C_R   0.397294 0.823726 0.491211 -0.149398
C39   C     C_R   0.405753 0.747343 0.481875 0.508791
C40   C     C_R   0.994502 0.661453 0.470243 0.528053
C41   C     C_R   0.588830 0.708401 0.522234 0.469387
C42   C     C_R   0.587910 0.783500 0.517944 -0.122966
C43   C     C_R   0.490401 0.843935 0.505149 0.062706
C44   C     C_R   0.177259 0.567916 0.482326 -0.353288
C45   C     C_R   0.954525 0.601444 0.452995 -0.163194
C46   C     C_R   0.886218 0.356318 0.504608 0.279828
C47   C     C_R   0.998925 0.339604 0.517758 0.328438
C48   C     C_R   0.046178 0.395547 0.506200 0.448103
C49   C     C_R   0.850266 0.611771 0.423569 0.371065
C50   C     C_R   0.813748 0.548397 0.420479 0.451863
C51   C     C_R   0.134128 0.513685 0.456163 0.450308
C52   C     C_R   0.105056 0.642835 0.493092 0.300865
Cl1   Cl    Cl    0.427335 0.637386 0.124072 -0.356701
Cl2   Cl    Cl    0.419137 0.366188 0.852979 -0.325593
Cl3   Cl    Cl    0.409633 0.330909 0.367932 -0.377349
Cl4   Cl    Cl    0.528299 0.155335 0.649022 -0.334836
Cl5   Cl    Cl    0.618509 0.289762 0.622087 -0.375544
Cl6   Cl    Cl    0.332358 0.966058 0.397836 -0.383939
Cl7   Cl    Cl    0.703322 0.644083 0.564870 -0.474292
Cl8   Cl    Cl    0.177150 0.377690 0.545627 -0.412592
Cl9   Cl    Cl    0.394737 0.650234 0.283284 -0.429484
Cl10  Cl    Cl    0.626439 0.327529 0.151290 -0.327709
Cl11  Cl    Cl    0.655126 0.345969 0.310986 -0.390430
Cl12  Cl    Cl    0.738575 0.450531 0.076042 -0.336488
Cl13  Cl    Cl    0.722628 0.436254 0.914069 -0.327086
Cl14  Cl    Cl    0.297722 0.499746 0.087906 -0.339792
Cl15  Cl    Cl    0.591478 0.610382 0.714874 -0.433770
Cl16  Cl    Cl    0.371262 0.400184 0.695015 -0.363477
Cl17  Cl    Cl    0.769286 0.700159 0.386594 -0.480555
H1    H     H_    0.317761 0.866393 0.485422 0.232121
H2    H     H_    0.964264 0.770562 0.480337 0.403180
H3    H     H_    0.345603 0.688070 0.424320 0.393067
H4    H     H_    0.246258 0.467812 0.391821 0.362812
H5    H     H_    0.888685 0.251923 0.504142 0.370841
H6    H     H_    0.017753 0.250531 0.575874 0.375014
H7    H     H_    0.699520 0.593904 0.349651 0.388651
H8    H     H_    0.663952 0.793601 0.527265 0.258628
H9    H     H_    0.196643 0.673269 0.559072 0.371242
H10   H     H_    0.300700 0.536562 0.890701 0.354238
H11   H     H_    0.542516 0.644656 0.839911 0.400230
H12   H     H_    0.505631 0.114142 0.382525 0.370455
H13   H     H_    0.683628 0.068372 0.542551 0.366302
H14   H     H_    0.660352 0.921861 0.633101 0.418009
H15   H     H_    0.302554 0.164354 0.471004 0.384933
N1    N     N_R   0.499990 0.310560 0.500020 -0.215543
N2    N     N_R   0.500140 0.689420 0.500040 -0.191807
O1    O     O_R   0.500000 0.439160 0.601820 -0.542130
O2    O     O_3   0.300328 0.518043 0.938575 -0.607262
O3    O     O_3   0.547640 0.598191 0.866330 -0.658601
O4    O     O_3   0.464413 0.169272 0.380043 -0.592352
O5    O     O_3   0.669312 0.027510 0.569030 -0.674304
O6    O     O_3   0.622104 0.896431 0.601810 -0.698761
O7    O     O_3   0.314559 0.116298 0.445739 -0.598596
O8    O     O_3   0.923266 0.735228 0.471778 -0.651662
O9    O     O_3   0.316952 0.733095 0.453762 -0.656591
O10   O     O_3   0.193584 0.451923 0.418446 -0.643144
O11   O     O_3   0.836668 0.302594 0.515107 -0.678432
O12   O     O_R   0.500040 0.560780 0.601820 -0.565786
O13   O     O_3   0.063429 0.271711 0.547949 -0.663055
O14   O     O_3   0.723876 0.548703 0.380410 -0.739361
O15   O     O_R   0.653580 0.409000 0.499980 -0.541306
O16   O     O_R   0.653630 0.530610 0.499980 -0.564762
O17   O     O_R   0.499960 0.439220 0.398180 -0.569345
O18   O     O_R   0.500000 0.560840 0.398180 -0.592112
O19   O     O_R   0.346370 0.469390 0.500020 -0.544582
O20   O     O_R   0.346420 0.591000 0.500020 -0.627890
O21   O     O_3   0.138526 0.698086 0.524128 -0.681509
Zn1   Zn    Zn3+2 0.499970 0.418800 0.500000 1.135611
Zn2   Zn    Zn3+2 0.500030 0.581200 0.500000 1.066889

loop_
_geom_bond_atom_site_label_1
_geom_bond_atom_site_label_2
_ccdc_geom_bond_type
C1    O1    A    
C38   H1    S    
C27   C29   A    
C41   C42   A    
C19   C20   A    
C12   C48   A    
C7    C8    A    
C22   Cl2   S    
H2    O8    S    
C2    C46   A    
H14   O6    S    
C12   C23   A    
C34   C51   A    
C35   Cl6   S    
C18   C24   A    
C5    Cl1   S    
C36   C37   A    
C9    C16   S    
C5    C6    A    
C10   C17   A    
C30   Cl5   S    
C47   O13   S    
C18   C19   A    
H11   O3    S    
H3    O9    S    
C36   O7    S    
C16   O18   A    
O1    Zn1   S    
C31   C32   A    
C52   O21   S    
C28   O20   A    
C8    C9    A    
C4    O16   A    
C19   Cl15  S    
O17   Zn1   S    
N1    Zn1   S    
C51   O10   S    
C44   C52   A    
O15   Zn1   S    
O12   Zn2   S    
C49   Cl17  S    
C13   C14   A    
C25   N1    A    
H10   O2    S    
C48   Cl8   S    
H5    O11   S    
C3    Cl9   S    
C40   C45   A    
O19   Zn1   S    
C33   C43   S    
N2    Zn2   S    
C38   C39   A    
C41   Cl7   S    
C23   C50   A    
C25   C26   A    
C40   C52   A    
C15   Cl14  S    
C28   C44   S    
H13   O5    S    
C31   C37   A    
C13   C24   S    
H9    O21   S    
C35   C36   A    
C2    C4    S    
C7    Cl10  S    
C29   C30   A    
C3    C9    A    
C16   O17   A    
C47   C48   A    
C45   C49   A    
C28   O19   A    
C4    O15   A    
H6    O13   S    
C26   C27   A    
C34   C45   A    
C30   N1    A    
C39   O9    S    
H12   O4    S    
C44   C51   A    
C46   O11   S    
C31   O5    S    
C21   Cl16  S    
C22   C24   A    
C26   O4    S    
C42   C43   A    
C12   C34   A    
C15   C17   A    
C6    C17   S    
C46   C47   A    
C1    C20   S    
C14   C15   A    
C18   O3    S    
C10   Cl12  S    
C25   Cl3   S    
C40   O8    S    
C3    C5    A    
C1    O12   A    
C6    C7    A    
C29   Cl4   S    
H7    O14   S    
C50   O14   S    
H4    O10   S    
C32   C33   A    
C14   O2    S    
C38   C43   A    
C11   C13   A    
C32   O6    S    
C27   C37   S    
C33   C35   A    
H15   O7    S    
C41   N2    A    
C10   C11   A    
C8    Cl11  S    
C20   C21   A    
C42   H8    S    
C49   C50   A    
C2    C23   A    
O18   Zn2   S    
O16   Zn2   S    
C39   N2    A    
C21   C22   A    
C11   Cl13  S    
O20   Zn2   S    
