data_mof_unit_22224.cif
_audit_creation_date              2013-03-05T15:44:24-0500
_audit_creation_method            fapswitch 2.2
_symmetry_space_group_name_H-M    P1
_symmetry_Int_Tables_number       1
_space_group_crystal_system       triclinic
_cell_length_a                    19.03322
_cell_length_b                    10.928174
_cell_length_c                    18.820103
_cell_angle_alpha                 90.127637
_cell_angle_beta                  90.178133
_cell_angle_gamma                 90.001428
_cell_volume                      3914.52154757

loop_
_atom_site_label
_atom_site_type_symbol
_atom_site_description
_atom_site_fract_x
_atom_site_fract_y
_atom_site_fract_z
_atom_type_partial_charge
O1    O     O_R   0.784320 0.290430 0.830510 -0.505458
O2    O     O_R   0.215680 0.290430 0.169490 -0.503619
O3    O     O_R   0.284320 0.790430 0.830510 -0.505124
O4    O     O_R   0.715680 0.790430 0.169490 -0.504541
O5    O     O_R   0.762640 0.040960 0.825200 -0.490795
O6    O     O_R   0.237360 0.040960 0.174800 -0.489041
O7    O     O_R   0.262640 0.540960 0.825200 -0.488059
O8    O     O_R   0.737360 0.540960 0.174800 -0.493019
C1    C     C_R   0.725146 0.960336 0.855601 0.551323
C2    C     C_R   0.274894 0.960264 0.144366 0.552373
C3    C     C_R   0.225112 0.460414 0.855638 0.553711
C4    C     C_R   0.774867 0.460183 0.144398 0.551147
O9    O     O_R   0.667400 0.923970 0.829950 -0.535282
O10   O     O_R   0.332600 0.923970 0.170050 -0.532292
O11   O     O_R   0.167400 0.423970 0.829950 -0.534807
O12   O     O_R   0.832600 0.423970 0.170050 -0.532343
O13   O     O_R   0.553960 0.081340 0.821780 -0.513904
O14   O     O_R   0.446040 0.081340 0.178220 -0.507079
O15   O     O_R   0.053960 0.581340 0.821780 -0.512409
O16   O     O_R   0.946040 0.581340 0.178220 -0.511671
C5    C     C_R   0.529972 0.177871 0.850868 0.550817
C6    C     C_R   0.470147 0.177716 0.149205 0.554536
C7    C     C_R   0.029959 0.677878 0.850862 0.548757
C8    C     C_R   0.970142 0.677717 0.149203 0.547115
O17   O     O_R   0.543180 0.283240 0.826740 -0.505908
O18   O     O_R   0.456820 0.283240 0.173260 -0.512281
O19   O     O_R   0.043180 0.783240 0.826740 -0.509990
O20   O     O_R   0.956820 0.783240 0.173260 -0.512368
O21   O     O_R   0.678360 0.375140 0.822710 -0.509960
O22   O     O_R   0.321640 0.375140 0.177290 -0.509633
O23   O     O_R   0.178360 0.875140 0.822710 -0.509535
O24   O     O_R   0.821640 0.875140 0.177290 -0.509054
C9    C     C_R   0.739197 0.366391 0.851852 0.532726
C10   C     C_R   0.260807 0.366224 0.148139 0.534559
C11   C     C_R   0.239200 0.866433 0.851834 0.532822
C12   C     C_R   0.760780 0.866188 0.148127 0.535171
O25   O     O_R   0.785050 0.289380 0.670560 -0.523985
O26   O     O_R   0.214950 0.289380 0.329440 -0.524458
O27   O     O_R   0.285050 0.789380 0.670560 -0.522329
O28   O     O_R   0.714950 0.789380 0.329440 -0.525791
O29   O     O_R   0.763320 0.039990 0.676930 -0.481103
O30   O     O_R   0.236680 0.039990 0.323070 -0.491015
O31   O     O_R   0.263320 0.539990 0.676930 -0.460050
O32   O     O_R   0.736680 0.539990 0.323070 -0.500285
C13   C     C_R   0.728004 0.955594 0.647477 0.563988
C14   C     C_R   0.272289 0.955827 0.352761 0.544093
C15   C     C_R   0.227520 0.456291 0.647115 0.565259
C16   C     C_R   0.774118 0.459580 0.354456 0.551623
O33   O     O_R   0.668130 0.922920 0.670000 -0.525492
O34   O     O_R   0.331870 0.922920 0.330000 -0.534350
O35   O     O_R   0.168130 0.422920 0.670000 -0.525686
O36   O     O_R   0.831870 0.422920 0.330000 -0.523998
O37   O     O_R   0.554640 0.080370 0.673500 -0.523555
O38   O     O_R   0.445360 0.080370 0.326500 -0.520827
O39   O     O_R   0.054640 0.580370 0.673500 -0.528563
O40   O     O_R   0.945360 0.580370 0.326500 -0.529007
C17   C     C_R   0.525583 0.176088 0.647600 0.568872
C18   C     C_R   0.436770 0.181517 0.362978 0.565201
C19   C     C_R   0.027567 0.676056 0.645864 0.562224
C20   C     C_R   0.970837 0.676937 0.355518 0.558572
O41   O     O_R   0.543920 0.282180 0.666790 -0.450234
O42   O     O_R   0.456080 0.282180 0.333210 -0.444995
O43   O     O_R   0.043920 0.782180 0.666790 -0.444022
O44   O     O_R   0.956080 0.782180 0.333210 -0.440112
O45   O     O_R   0.679040 0.374160 0.674430 -0.503567
O46   O     O_R   0.320960 0.374160 0.325570 -0.485853
O47   O     O_R   0.179040 0.874160 0.674430 -0.495957
O48   O     O_R   0.820960 0.874160 0.325570 -0.487077
C21   C     C_R   0.739299 0.362985 0.646558 0.536062
C22   C     C_R   0.260573 0.361908 0.353773 0.523257
C23   C     C_R   0.238859 0.859561 0.645247 0.531138
C24   C     C_R   0.761730 0.857514 0.355430 0.540714
Cr1   Cr    Cr6+3 0.769270 0.163730 0.750710 1.059161
Cr2   Cr    Cr6+3 0.230730 0.163730 0.249290 1.045282
Cr3   Cr    Cr6+3 0.269270 0.663730 0.750710 1.074077
Cr4   Cr    Cr6+3 0.730730 0.663730 0.249290 1.039933
Cr5   Cr    Cr6+3 0.612620 0.009790 0.748780 0.997640
Cr6   Cr    Cr6+3 0.387380 0.009790 0.251220 0.990269
Cr7   Cr    Cr6+3 0.112620 0.509790 0.748780 0.995104
Cr8   Cr    Cr6+3 0.887380 0.509790 0.251220 0.994462
Cr9   Cr    Cr6+3 0.614160 0.322500 0.747710 1.061907
Cr10  Cr    Cr6+3 0.385840 0.322500 0.252290 1.058985
Cr11  Cr    Cr6+3 0.114160 0.822500 0.747710 1.061597
Cr12  Cr    Cr6+3 0.885840 0.822500 0.252290 1.068558
O49   O     O_3   0.665350 0.165340 0.749070 -0.257257
O50   O     O_3   0.334650 0.165340 0.250930 -0.279703
O51   O     O_3   0.165350 0.665340 0.749070 -0.264186
O52   O     O_3   0.834650 0.665340 0.250930 -0.257015
C25   C     C_2   0.498031 0.170007 0.921157 -0.114808
C26   C     C_2   0.502379 0.169740 0.079044 -0.117959
C27   C     C_2   0.997985 0.670079 0.921142 -0.115773
C28   C     C_2   0.002321 0.669729 0.079022 -0.116203
C29   C     C_2   0.492108 0.071029 0.037906 -0.159226
C30   C     C_2   0.508562 0.071245 0.961995 -0.158353
C31   C     C_2   0.991937 0.571057 0.037879 -0.158327
C32   C     C_2   0.008324 0.571229 0.961951 -0.158460
H1    H     H_    0.471480 0.987241 0.060136 0.159390
H2    H     H_    0.529385 0.987622 0.939486 0.160058
H3    H     H_    0.971286 0.487303 0.060136 0.159670
H4    H     H_    0.028917 0.487490 0.939395 0.160061
H5    H     H_    0.525881 0.252007 0.057121 0.106090
H6    H     H_    0.474440 0.252162 0.943325 0.107596
H7    H     H_    0.025861 0.751961 0.057099 0.106663
H8    H     H_    0.974551 0.752347 0.943339 0.107001
C33   C     C_R   0.695305 0.460842 0.962020 -0.152010
C34   C     C_R   0.304560 0.461229 0.038207 -0.152054
C35   C     C_R   0.195333 0.961065 0.961969 -0.151663
C36   C     C_R   0.804362 0.961625 0.038259 -0.152050
H9    H     H_    0.644885 0.478700 0.937263 0.127303
H10   H     H_    0.354894 0.479513 0.063088 0.127458
H11   H     H_    0.144903 0.978889 0.937221 0.127454
H12   H     H_    0.854570 0.980534 0.063243 0.127231
C37   C     C_R   0.700692 0.470142 0.035501 -0.143388
C38   C     C_R   0.299177 0.470991 0.964744 -0.142499
C39   C     C_R   0.200742 0.970421 0.035446 -0.143165
C40   C     C_R   0.799073 0.971378 0.964786 -0.142807
H13   H     H_    0.655941 0.501697 0.065868 0.130361
H14   H     H_    0.343831 0.503278 0.934564 0.132659
H15   H     H_    0.155998 0.002038 0.065808 0.131071
H16   H     H_    0.843646 0.004239 0.934698 0.131649
C41   C     C_R   0.763189 0.436182 0.069340 0.019380
C42   C     C_R   0.236818 0.436551 0.930694 0.019476
C43   C     C_R   0.263244 0.936422 0.069280 0.018780
C44   C     C_R   0.736897 0.936297 0.930616 0.019496
C45   C     C_R   0.821432 0.401048 0.029038 -0.128639
C46   C     C_R   0.178667 0.400659 0.970842 -0.129263
C47   C     C_R   0.321502 0.901407 0.028953 -0.128722
C48   C     C_R   0.678843 0.899588 0.970623 -0.129184
H17   H     H_    0.870656 0.378875 0.054749 0.129460
H18   H     H_    0.129498 0.378220 0.945031 0.129655
H19   H     H_    0.370737 0.879305 0.054656 0.129683
H20   H     H_    0.629784 0.876631 0.944725 0.129742
C49   C     C_R   0.818672 0.397704 0.955681 -0.012364
C50   C     C_R   0.181398 0.396909 0.044193 -0.012590
C51   C     C_R   0.318719 0.898105 0.955588 -0.012411
C52   C     C_R   0.681455 0.895650 0.043950 -0.012686
C53   C     C_R   0.752839 0.419528 0.921844 0.016810
C54   C     C_R   0.247130 0.419160 0.078190 0.016567
C55   C     C_R   0.252858 0.919744 0.921787 0.016763
C56   C     C_R   0.747030 0.918829 0.078124 0.016556
C57   C     C_R   0.454576 0.278060 0.554886 0.200361
C58   C     C_R   0.446457 0.286145 0.481409 0.182853
C59   C     C_R   0.984382 0.780415 0.539699 0.200493
C60   C     C_R   0.997562 0.784401 0.467395 0.200253
C61   C     C_R   0.449185 0.177498 0.439836 -0.043615
C62   C     C_R   0.481067 0.168525 0.584241 -0.026421
C63   C     C_R   0.996821 0.673227 0.428270 -0.022189
C64   C     C_R   0.995807 0.669035 0.575699 -0.021558
C65   C     C_R   0.460737 0.064313 0.473149 -0.182339
C66   C     C_R   0.479405 0.060386 0.544434 -0.187005
C67   C     C_R   0.998536 0.560962 0.463946 -0.193835
C68   C     C_R   0.000840 0.559085 0.537508 -0.192697
H21   H     H_    0.460720 0.979683 0.443093 0.165775
H22   H     H_    0.496969 0.974490 0.566959 0.158229
H23   H     H_    0.997887 0.475157 0.435019 0.150881
H24   H     H_    0.008819 0.472554 0.564324 0.157500
C69   C     C_R   0.814709 0.392047 0.543349 -0.134838
C70   C     C_R   0.265575 0.294878 0.476927 -0.106153
C71   C     C_R   0.298439 0.829357 0.531902 -0.137570
C72   C     C_R   0.715490 0.804999 0.472380 -0.124146
H25   H     H_    0.860310 0.363326 0.573656 0.141719
H26   H     H_    0.280222 0.204534 0.458453 0.097063
H27   H     H_    0.335270 0.766716 0.556509 0.180221
H28   H     H_    0.687339 0.728316 0.449453 0.150959
C73   C     C_R   0.820568 0.401326 0.470806 -0.123341
C74   C     C_R   0.258886 0.315698 0.549383 -0.108563
C75   C     C_R   0.299982 0.838776 0.459261 -0.143272
C76   C     C_R   0.712757 0.820400 0.544949 -0.132982
H29   H     H_    0.871674 0.384140 0.447704 0.150031
H30   H     H_    0.266740 0.241373 0.586571 0.116930
H31   H     H_    0.339593 0.787269 0.430736 0.167657
H32   H     H_    0.680523 0.758888 0.576054 0.140136
C77   C     C_R   0.762167 0.434386 0.429123 0.022483
C78   C     C_R   0.241826 0.432721 0.573079 0.076167
C79   C     C_R   0.254498 0.919444 0.424576 0.021595
C80   C     C_R   0.747753 0.918813 0.576322 0.048789
C81   C     C_R   0.698048 0.461650 0.461591 -0.139236
C82   C     C_R   0.230150 0.528192 0.524479 -0.089569
C83   C     C_R   0.203846 0.984594 0.463554 -0.098395
C84   C     C_R   0.789434 0.997339 0.534764 -0.070347
H33   H     H_    0.653189 0.491066 0.430479 0.169393
H34   H     H_    0.214195 0.617881 0.542929 0.116234
H35   H     H_    0.169476 0.050177 0.438014 0.186169
H36   H     H_    0.816227 0.075251 0.558033 0.169633
C85   C     C_R   0.691659 0.449450 0.534823 -0.130616
C86   C     C_R   0.236108 0.507075 0.451852 -0.099995
C87   C     C_R   0.200001 0.970512 0.536877 -0.130302
C88   C     C_R   0.792981 0.980630 0.461697 -0.109511
H37   H     H_    0.640675 0.464061 0.558814 0.176623
H38   H     H_    0.226534 0.580528 0.414497 0.109926
H39   H     H_    0.160015 0.019303 0.566372 0.169849
H40   H     H_    0.824263 0.042332 0.429835 0.163071
C89   C     C_R   0.749694 0.410961 0.575593 0.018730
C90   C     C_R   0.253866 0.390211 0.428312 0.077985
C91   C     C_R   0.248074 0.893904 0.571432 0.005858
C92   C     C_R   0.754502 0.886216 0.430166 0.021654
C93   C     C_R   0.883862 0.360516 0.916974 0.054207
C94   C     C_R   0.921968 0.256486 0.938696 -0.100593
C95   C     C_R   0.978317 0.213465 0.898281 -0.133697
C96   C     C_R   0.996420 0.272028 0.835098 -0.094118
C97   C     C_R   0.958761 0.374673 0.812721 -0.075148
C98   C     C_R   0.904254 0.421297 0.854437 -0.063342
H41   H     H_    0.906672 0.206058 0.985614 0.094939
H42   H     H_    0.006930 0.132942 0.915145 0.101001
H43   H     H_    0.039247 0.237306 0.803177 0.122198
H44   H     H_    0.971916 0.418425 0.762988 0.132340
H45   H     H_    0.875762 0.501253 0.836385 0.100027
C99   C     C_R   0.116215 0.359226 0.082650 0.054687
C100  C     C_R   0.078337 0.255049 0.060490 -0.100431
C101  C     C_R   0.021816 0.211888 0.100499 -0.134447
C102  C     C_R   0.003293 0.270491 0.163694 -0.095184
C103  C     C_R   0.040715 0.373294 0.186499 -0.074530
C104  C     C_R   0.095427 0.420008 0.145207 -0.062931
H46   H     H_    0.093898 0.204704 0.013510 0.095273
H47   H     H_    0.993367 0.131280 0.083291 0.100559
H48   H     H_    0.960317 0.235681 0.195294 0.121991
H49   H     H_    0.027231 0.417066 0.236243 0.133555
H50   H     H_    0.123718 0.500106 0.163570 0.098535
C105  C     C_R   0.383911 0.861195 0.916800 0.053345
C106  C     C_R   0.422205 0.757345 0.938471 -0.100496
C107  C     C_R   0.478507 0.714494 0.897924 -0.132200
C108  C     C_R   0.496358 0.773021 0.834655 -0.091920
C109  C     C_R   0.458517 0.875500 0.812337 -0.072953
C110  C     C_R   0.404082 0.921997 0.854193 -0.063165
H51   H     H_    0.407085 0.706910 0.985437 0.095572
H52   H     H_    0.507265 0.634111 0.914742 0.101334
H53   H     H_    0.539135 0.738404 0.802624 0.121345
H54   H     H_    0.471483 0.919240 0.762551 0.132971
H55   H     H_    0.375447 0.001817 0.836179 0.101768
C111  C     C_R   0.616302 0.856720 0.082057 0.054557
C112  C     C_R   0.579184 0.751882 0.059624 -0.099992
C113  C     C_R   0.522473 0.707954 0.099062 -0.135174
C114  C     C_R   0.502933 0.766549 0.161934 -0.101073
C115  C     C_R   0.539601 0.869985 0.185031 -0.076754
C116  C     C_R   0.594601 0.917302 0.144348 -0.061899
H56   H     H_    0.595444 0.701709 0.012812 0.094840
H57   H     H_    0.494618 0.626842 0.081625 0.100433
H58   H     H_    0.459763 0.731231 0.193070 0.121603
H59   H     H_    0.525339 0.913694 0.234569 0.142671
H60   H     H_    0.622297 0.997904 0.162913 0.102315
N1    N     N_R   0.441407 0.383339 0.598987 0.113036
O53   O     O_R   0.474440 0.485763 0.587812 -0.286199
O54   O     O_R   0.403612 0.371775 0.656074 -0.356136
N2    N     N_R   0.443390 0.405508 0.449617 0.117599
O55   O     O_R   0.392314 0.479491 0.465357 -0.322634
O56   O     O_R   0.500704 0.451670 0.423328 -0.325225
N3    N     N_R   0.965358 0.890227 0.577523 0.110407
O57   O     O_R   0.005162 0.986932 0.574517 -0.304512
O58   O     O_R   0.915233 0.886412 0.624331 -0.355395
N4    N     N_R   0.009753 0.900557 0.433655 0.116491
O59   O     O_R   0.962685 0.986729 0.436735 -0.312290
O60   O     O_R   0.063134 0.913534 0.391317 -0.357764

loop_
_geom_bond_atom_site_label_1
_geom_bond_atom_site_label_2
_geom_bond_distance
_ccdc_geom_bond_type
C18   O42   1.289602 A    
Cr11  O51   1.974784 S    
O4    C12   1.259963 A    
O47   Cr11  1.938987 S    
C99   C104  1.408290 A    
O39   C19   1.276815 A    
C25   H6    1.086855 S    
O20   Cr12  2.056967 S    
C97   C98   1.398414 A    
O15   C7    1.272887 A    
C31   C32   1.463574 S    
C27   H8    1.086839 S    
C52   C56   1.424730 A    
C88   C92   1.395581 A    
O26   C22   1.260100 A    
C18   C61   1.465674 S    
O1    C9    1.260445 A    
C5    C25   1.460265 S    
C71   C91   1.404315 A    
C60   N4    1.439747 S    
O5    C1    1.271877 A    
C29   C30   1.463527 S    
C34   C38   1.390397 A    
C69   C89   1.395125 A    
C72   H28   1.082786 S    
C33   C37   1.389883 A    
C38   H14   1.083203 S    
C47   C51   1.381984 A    
O25   C21   1.268288 A    
C48   C52   1.381533 A    
O26   Cr2   2.060257 S    
C75   H31   1.083807 S    
C81   H33   1.083027 S    
C34   C54   1.406778 A    
C65   C66   1.387521 A    
C83   C87   1.390997 A    
C103  H49   1.081958 S    
C30   H2    1.082125 S    
C81   C85   1.390657 A    
C73   C77   1.406184 A    
C101  H47   1.082444 S    
C96   H43   1.082304 S    
O21   C9    1.283364 A    
O8    Cr4   1.942688 S    
C1    C44   1.453232 S    
O23   Cr11  1.949877 S    
N2    O55   1.298943 A    
N1    O53   1.301630 A    
O30   C14   1.271812 A    
C69   H25   1.083916 S    
C25   C30   1.341089 D    
O32   Cr4   1.943417 S    
C65   H21   1.083047 S    
O44   Cr12  2.071494 S    
O7    C3    1.271960 A    
C1    O9    1.262859 A    
C84   C88   1.388647 A    
C28   H7    1.086884 S    
C11   C55   1.461051 S    
C27   C32   1.341004 D    
C62   C66   1.398126 A    
O45   Cr9   1.938987 S    
O11   Cr7   2.072884 S    
C4    C41   1.452595 S    
C68   H24   1.083346 S    
C9    C53   1.460902 S    
C96   C97   1.396300 A    
O47   C23   1.275502 A    
C49   C93   1.496557 S    
C67   C68   1.385210 A    
C94   C95   1.397610 A    
C20   C63   1.454985 S    
O27   Cr3   2.064722 S    
O8    C4    1.271435 A    
C15   O35   1.264904 A    
O3    Cr3   2.059794 S    
C114  C115  1.396304 A    
Cr4   O52   1.978154 S    
C87   H39   1.083043 S    
O2    Cr2   2.064297 S    
O48   C24   1.274421 A    
C23   C91   1.450980 S    
C44   C48   1.398294 A    
C36   H12   1.083396 S    
C19   C64   1.452468 S    
O2    C10   1.260503 A    
C72   C76   1.376865 A    
C102  H48   1.082348 S    
O42   Cr10  2.071494 S    
Cr5   O49   1.974008 S    
C95   C96   1.395771 A    
O18   Cr10  2.056967 S    
O28   C24   1.257804 A    
C17   C62   1.462822 S    
O31   Cr3   1.939104 S    
C58   C61   1.421522 A    
C111  C112  1.409230 A    
C57   C58   1.393958 A    
C3    O11   1.262842 A    
C71   C75   1.371612 A    
C60   C63   1.419294 A    
C48   H20   1.081210 S    
Cr7   O51   1.974008 S    
C106  C107  1.397672 A    
C20   O44   1.256718 A    
O6    Cr2   1.942688 S    
C83   H35   1.082717 S    
N3    O58   1.301295 A    
C73   H29   1.082945 S    
C59   C64   1.410888 A    
O24   Cr12  1.951750 S    
O9    Cr5   2.072884 S    
C64   C68   1.402174 A    
O30   Cr2   1.943417 S    
C39   C43   1.398227 A    
O22   C10   1.283309 A    
O48   Cr12  1.937216 S    
C4    O12   1.262821 A    
C93   C98   1.408325 A    
C109  C110  1.398387 A    
C100  C101  1.397632 A    
C2    C43   1.452730 S    
C2    O10   1.262879 A    
C13   C80   1.448072 S    
C69   C73   1.374134 A    
C105  C106  1.409190 A    
C36   C56   1.406775 A    
C46   H18   1.080988 S    
O16   Cr8   1.939002 S    
C109  H54   1.082004 S    
C99   C100  1.409167 A    
O7    Cr3   1.946991 S    
N4    O59   1.301096 A    
Cr10  O50   1.974643 S    
C52   C111  1.496658 S    
C107  H52   1.082420 S    
C10   C54   1.461760 S    
C28   C31   1.340397 D    
C57   N1    1.439599 S    
C38   C42   1.398281 A    
O40   C20   1.281726 A    
O43   Cr11  2.070037 S    
O12   Cr8   2.069779 S    
C85   H37   1.083247 S    
C42   C46   1.398669 A    
O37   Cr5   1.953246 S    
C114  H58   1.082334 S    
C26   H5    1.086902 S    
C41   C45   1.398418 A    
C107  C108  1.395790 A    
C100  H46   1.082425 S    
C45   H17   1.080888 S    
O46   Cr10  1.937216 S    
O39   Cr7   1.953246 S    
O13   Cr5   1.936554 S    
C80   C84   1.408649 A    
C50   C99   1.496483 S    
C102  C103  1.396279 A    
O3    C11   1.260591 A    
C22   C90   1.441903 S    
C33   C53   1.406542 A    
C51   C105  1.496516 S    
C21   C89   1.450004 S    
C13   O33   1.268659 A    
C6    C26   1.460142 S    
C111  C116  1.408128 A    
C70   C90   1.405396 A    
O29   C13   1.266922 A    
Cr2   O50   1.978154 S    
O15   Cr7   1.936554 S    
C12   C56   1.461631 S    
Cr1   O49   1.978156 S    
C112  H56   1.082651 S    
C57   C62   1.411936 A    
C37   H13   1.083136 S    
C105  C110  1.408358 A    
Cr3   O51   1.978156 S    
O14   Cr6   1.939002 S    
C112  C113  1.397491 A    
C15   C78   1.443156 S    
O21   Cr9   1.949877 S    
C74   H30   1.083430 S    
C7    O19   1.264203 A    
C98   H45   1.083138 S    
C58   N2    1.437414 S    
C66   H22   1.083287 S    
C95   H42   1.082525 S    
O38   C18   1.310413 A    
C8    C28   1.460071 S    
C71   H27   1.083477 S    
C19   O43   1.262602 A    
C3    C42   1.453496 S    
C115  C116  1.398628 A    
C59   N3    1.440749 S    
C29   H1    1.081812 S    
C43   C47   1.398526 A    
O34   Cr6   2.057108 S    
C70   C74   1.388220 A    
C26   C29   1.340381 D    
C75   C79   1.397059 A    
C16   C77   1.451185 S    
C34   H10   1.083407 S    
O25   Cr1   2.064722 S    
C45   C49   1.381825 A    
C76   C80   1.394143 A    
N2    O56   1.301430 A    
C5    O17   1.264261 A    
O37   C17   1.279941 A    
O22   Cr10  1.951750 S    
C40   C44   1.398272 A    
C87   C91   1.399905 A    
O14   C6    1.273604 A    
C35   H11   1.083413 S    
C86   C90   1.392812 A    
C78   C82   1.406246 A    
C31   H3    1.081855 S    
C8    O20   1.263923 A    
C85   C89   1.407829 A    
O31   C15   1.269285 A    
O17   Cr9   2.058338 S    
C24   C92   1.447378 S    
C79   C83   1.405897 A    
C104  H50   1.083079 S    
O24   C12   1.283899 A    
C17   O41   1.262445 A    
C50   C54   1.424090 A    
C82   H34   1.082868 S    
O5    Cr1   1.946991 S    
C14   O34   1.265376 A    
C74   C78   1.392166 A    
C39   H15   1.083202 S    
C67   H23   1.083265 S    
O40   Cr8   1.950731 S    
C72   C92   1.406069 A    
C88   H40   1.082924 S    
C51   C55   1.423975 A    
O1    Cr1   2.059794 S    
C36   C40   1.390437 A    
C47   H19   1.080844 S    
O19   Cr11  2.058338 S    
C59   C60   1.385242 A    
Cr8   O52   1.974072 S    
O32   C16   1.276149 A    
O41   Cr9   2.070037 S    
C110  H55   1.083084 S    
C76   H32   1.083941 S    
Cr6   O50   1.974072 S    
C113  H57   1.082637 S    
Cr12  O52   1.974643 S    
C33   H9    1.083406 S    
C108  H53   1.082348 S    
O45   C21   1.268448 A    
C63   C67   1.400202 A    
C32   H4    1.081935 S    
O23   C11   1.283242 A    
C113  C114  1.395647 A    
O33   Cr5   2.054082 S    
C106  H51   1.082410 S    
C35   C39   1.389901 A    
C97   H44   1.082033 S    
C7    C27   1.460338 S    
C115  H59   1.081956 S    
O10   Cr6   2.069779 S    
C35   C55   1.406491 A    
C93   C94   1.409209 A    
O35   Cr7   2.054082 S    
O4    Cr4   2.064297 S    
C49   C53   1.424134 A    
O6    C2    1.271382 A    
C70   H26   1.082795 S    
O29   Cr1   1.939104 S    
C82   C86   1.390660 A    
C40   H16   1.083148 S    
C16   O36   1.258159 A    
C37   C41   1.398094 A    
O46   C22   1.274675 A    
C46   C50   1.381985 A    
Cr9   O49   1.974784 S    
C101  C102  1.395765 A    
C6    O18   1.263937 A    
O28   Cr4   2.060257 S    
C94   H41   1.082548 S    
O27   C23   1.259823 A    
C14   C79   1.450758 S    
C86   H38   1.083292 S    
N1    O54   1.301197 A    
C77   C81   1.398339 A    
O36   Cr8   2.057108 S    
N4    O60   1.301080 A    
C108  C109  1.396280 A    
O16   C8    1.273594 A    
C116  H60   1.083178 S    
C61   C65   1.404973 A    
C84   H36   1.083377 S    
N3    O57   1.301717 A    
C103  C104  1.398471 A    
O38   Cr6   1.950731 S    
O13   C5    1.272786 A    
