data_mof_unit_11704.cif
_audit_creation_date              2012-12-11T14:01:43-0500
_audit_creation_method            fapswitch 2.2
_symmetry_space_group_name_H-M    P1
_symmetry_Int_Tables_number       1
_space_group_crystal_system       triclinic
_cell_length_a                    19.023566
_cell_length_b                    10.924392
_cell_length_c                    18.708339
_cell_angle_alpha                 90.146339
_cell_angle_beta                  89.679412
_cell_angle_gamma                 90.505504
_cell_volume                      3887.75932747

loop_
_atom_site_label
_atom_site_type_symbol
_atom_type_description
_atom_site_fract_x
_atom_site_fract_y
_atom_site_fract_z
_atom_type_partial_charge
C1    C     C_R   0.272668 0.041266 0.854208 0.565239
C2    C     C_R   0.968919 0.661547 0.973932 -0.122456
C3    C     C_R   0.452520 0.145355 0.045749 -0.132375
C4    C     C_R   0.468918 0.161547 0.973933 -0.122456
C5    C     C_2   0.261715 0.632655 0.931569 -0.102669
C6    C     C_2   0.755079 0.573699 0.081926 -0.128586
C7    C     C_2   0.761714 0.132653 0.931569 -0.102669
C8    C     C_2   0.255079 0.073699 0.081925 -0.128586
C9    C     C_2   0.256081 0.607248 0.085709 -0.112823
C10   C     C_2   0.751223 0.578666 0.925656 -0.065580
C11   C     C_2   0.756081 0.107245 0.085708 -0.112822
C12   C     C_R   0.728614 0.045679 0.148398 0.561309
C13   C     C_2   0.251223 0.078666 0.925656 -0.065581
C14   C     C_2   0.304823 0.555020 0.044376 -0.181270
C15   C     C_2   0.713374 0.500772 0.966663 -0.128314
C16   C     C_2   0.804821 0.055011 0.044375 -0.181270
C17   C     C_2   0.213374 0.000773 0.966663 -0.128314
C18   C     C_2   0.316255 0.598303 0.971442 -0.175598
C19   C     C_2   0.704223 0.520852 0.043487 -0.141138
C20   C     C_2   0.816252 0.098290 0.971440 -0.175598
C21   C     C_2   0.204223 0.020853 0.043487 -0.141139
C22   C     C_2   0.519390 0.838757 0.588021 -0.108129
C23   C     C_R   0.772668 0.541266 0.854208 0.565239
C24   C     C_2   0.546448 0.829270 0.434679 -0.107014
C25   C     C_2   0.019390 0.338757 0.588021 -0.108129
C26   C     C_2   0.046448 0.329270 0.434679 -0.107014
C27   C     C_2   0.570315 0.745365 0.480357 -0.160754
C28   C     C_2   0.545701 0.740541 0.554567 -0.144612
C29   C     C_2   0.070316 0.245366 0.480357 -0.160754
C30   C     C_2   0.045701 0.240541 0.554567 -0.144612
C31   C     C_2   0.246137 0.565227 0.583113 -0.099871
C32   C     C_2   0.756641 0.556978 0.413479 -0.110745
C33   C     C_2   0.746137 0.065227 0.583113 -0.099871
C34   C     C_R   0.228614 0.545679 0.148398 0.561309
C35   C     C_2   0.256641 0.056978 0.413479 -0.110745
C36   C     C_2   0.237940 0.570944 0.427772 -0.090329
C37   C     C_2   0.778022 0.521255 0.565616 -0.092382
C38   C     C_2   0.737940 0.070944 0.427772 -0.090329
C39   C     C_2   0.278022 0.021256 0.565616 -0.092379
C40   C     C_R   0.473310 0.823675 0.851766 0.559304
C41   C     C_R   0.530395 0.819878 0.145211 0.562241
C42   C     C_R   0.973310 0.323675 0.851766 0.559305
C43   C     C_R   0.030395 0.319878 0.145211 0.562241
C44   C     C_2   0.181982 0.562694 0.471902 -0.152453
C45   C     C_R   0.463180 0.032260 0.077966 -0.081345
C46   C     C_2   0.831069 0.525348 0.518489 -0.166475
C47   C     C_2   0.681982 0.062694 0.471902 -0.152453
C48   C     C_2   0.331069 0.025349 0.518489 -0.166472
C49   C     C_2   0.186683 0.584555 0.547906 -0.161920
C50   C     C_2   0.819808 0.564975 0.444811 -0.147095
C51   C     C_2   0.686683 0.084555 0.547906 -0.161920
C52   C     C_2   0.319808 0.064976 0.444812 -0.147094
C53   C     C_R   0.271925 0.677945 0.859611 0.560030
C54   C     C_R   0.739920 0.633845 0.149526 0.560893
C55   C     C_R   0.771924 0.177944 0.859611 0.560030
C56   C     C_R   0.491091 0.062214 0.932952 -0.057495
C57   C     C_R   0.239920 0.133845 0.149526 0.560892
C58   C     C_R   0.291563 0.996986 0.639931 0.576451
C59   C     C_R   0.726109 0.042979 0.353557 0.543826
C60   C     C_R   0.791563 0.496986 0.639931 0.576451
C61   C     C_R   0.226109 0.542979 0.353557 0.543827
C62   C     C_R   0.473289 0.824522 0.649685 0.549368
C63   C     C_R   0.563513 0.819851 0.359607 0.569579
C64   C     C_R   0.973289 0.324522 0.649685 0.549367
C65   C     C_R   0.063513 0.319851 0.359607 0.569579
C66   C     C_R   0.259926 0.633735 0.647542 0.561134
C67   C     C_R   0.963180 0.532260 0.077966 -0.081345
C68   C     C_R   0.740262 0.633074 0.352375 0.544253
C69   C     C_R   0.759926 0.133735 0.647542 0.561134
C70   C     C_R   0.240262 0.133074 0.352375 0.544253
C71   C     C_R   0.506923 0.820591 0.070326 -0.052566
C72   C     C_R   0.507968 0.837301 0.921151 -0.026501
C73   C     C_R   0.006923 0.320592 0.070326 -0.052567
C74   C     C_R   0.007968 0.337301 0.921151 -0.026501
C75   C     C_R   0.488641 0.931984 0.037826 -0.034535
C76   C     C_R   0.496011 0.943821 0.963192 -0.027863
C77   C     C_R   0.988641 0.431984 0.037826 -0.034535
C78   C     C_R   0.991092 0.562214 0.932952 -0.057495
C79   C     C_R   0.996011 0.443821 0.963192 -0.027863
C80   C     C_R   0.529166 0.728300 0.953020 0.264717
C81   C     C_R   0.522975 0.715914 0.027035 0.243000
C82   C     C_R   0.029165 0.228300 0.953021 0.264718
C83   C     C_R   0.022974 0.215914 0.027035 0.243001
C84   C     C_3   0.532286 0.526951 0.910172 0.029216
C85   C     C_3   0.547395 0.463587 0.839278 -0.354974
C86   C     C_3   0.482108 0.540720 0.080640 -0.007561
C87   C     C_3   0.504587 0.438329 0.130312 -0.358001
C88   C     C_3   0.032285 0.026950 0.910173 0.029216
C89   C     C_R   0.952521 0.645356 0.045748 -0.132375
C90   C     C_3   0.047395 0.963586 0.839279 -0.354973
C91   C     C_3   0.982105 0.040721 0.080640 -0.007561
C92   C     C_3   0.004583 0.938332 0.130314 -0.358000
Cr1   Cr    Cr6+3 0.230530 0.836340 0.748870 0.997782
Cr2   Cr    Cr6+3 0.614360 0.677860 0.250770 1.015952
Cr3   Cr    Cr6+3 0.885640 0.177860 0.749230 1.008016
Cr4   Cr    Cr6+3 0.114360 0.177860 0.250770 1.015953
Cr5   Cr    Cr6+3 0.769470 0.836340 0.251130 1.008332
Cr6   Cr    Cr6+3 0.730530 0.336340 0.748870 0.997782
Cr7   Cr    Cr6+3 0.269470 0.336340 0.251130 1.008333
Cr8   Cr    Cr6+3 0.387420 0.989430 0.750820 1.005784
Cr9   Cr    Cr6+3 0.612580 0.989430 0.249180 1.012903
Cr10  Cr    Cr6+3 0.887420 0.489430 0.750820 1.005784
Cr11  Cr    Cr6+3 0.112580 0.489430 0.249180 1.012903
Cr12  Cr    Cr6+3 0.385640 0.677860 0.749230 1.008017
H1    H     H_    0.129373 0.547348 0.451243 0.148041
H2    H     H_    0.723985 0.537734 0.550329 0.105312
H3    H     H_    0.791128 0.086415 0.446647 0.097227
H4    H     H_    0.223983 0.037735 0.550329 0.105310
H5    H     H_    0.288934 0.513687 0.559310 0.111611
H6    H     H_    0.714338 0.502049 0.436243 0.097425
H7    H     H_    0.788933 0.013687 0.559310 0.111611
H8    H     H_    0.214338 0.002047 0.436242 0.097425
H9    H     H_    0.449909 0.023290 0.134035 0.126184
H10   H     H_    0.505684 0.079848 0.877977 0.136261
H11   H     H_    0.949909 0.523291 0.134035 0.126184
H12   H     H_    0.884820 0.512416 0.536218 0.130467
H13   H     H_    0.005684 0.579848 0.877977 0.136261
H14   H     H_    0.932158 0.720799 0.076772 0.111251
H15   H     H_    0.963568 0.750849 0.949703 0.094925
H16   H     H_    0.432157 0.220798 0.076772 0.111252
H17   H     H_    0.463567 0.250849 0.949704 0.094926
H18   H     H_    0.332508 0.473934 0.061692 0.141276
H19   H     H_    0.689210 0.419052 0.944071 0.134066
H20   H     H_    0.832504 0.973923 0.061691 0.141279
H21   H     H_    0.189209 0.919053 0.944071 0.134068
H22   H     H_    0.368843 0.596621 0.949342 0.130164
H23   H     H_    0.629373 0.047348 0.451243 0.148040
H24   H     H_    0.654650 0.494722 0.067993 0.195896
H25   H     H_    0.868838 0.096599 0.949338 0.130166
H26   H     H_    0.154649 0.994724 0.067993 0.195897
H27   H     H_    0.229498 0.689674 0.068368 0.105617
H28   H     H_    0.774558 0.661320 0.948001 0.108591
H29   H     H_    0.729500 0.189673 0.068368 0.105614
H30   H     H_    0.274558 0.161320 0.948001 0.108591
H31   H     H_    0.208453 0.630798 0.953000 0.116175
H32   H     H_    0.806491 0.590345 0.058234 0.112513
H33   H     H_    0.708453 0.130805 0.953001 0.116175
H34   H     H_    0.384821 0.012417 0.536218 0.130465
H35   H     H_    0.306491 0.090345 0.058234 0.112514
H36   H     H_    0.602112 0.669991 0.460851 0.136263
H37   H     H_    0.542858 0.650655 0.579186 0.154601
H38   H     H_    0.102113 0.169992 0.460852 0.136262
H39   H     H_    0.042858 0.150655 0.579186 0.154601
H40   H     H_    0.512854 0.903817 0.451590 0.095653
H41   H     H_    0.526224 0.930211 0.566367 0.090078
H42   H     H_    0.012853 0.403816 0.451590 0.095654
H43   H     H_    0.026224 0.430212 0.566367 0.090078
H44   H     H_    0.474365 0.532056 0.915856 0.118877
H45   H     H_    0.142091 0.628978 0.573240 0.152816
H46   H     H_    0.554182 0.468784 0.953032 0.159302
H47   H     H_    0.604682 0.451204 0.832258 0.179068
H48   H     H_    0.521408 0.372162 0.838385 0.069084
H49   H     H_    0.527260 0.518658 0.794150 0.178173
H50   H     H_    0.454307 0.498666 0.034778 0.087379
H51   H     H_    0.444443 0.600013 0.110315 0.143992
H52   H     H_    0.535869 0.475840 0.175358 0.181206
H53   H     H_    0.457394 0.391296 0.152570 0.089304
H54   H     H_    0.537048 0.371139 0.100474 0.131464
H55   H     H_    0.974364 0.032056 0.915856 0.118876
H56   H     H_    0.863244 0.612706 0.418818 0.156351
H57   H     H_    0.054180 0.968784 0.953033 0.159302
H58   H     H_    0.104683 0.951204 0.832259 0.179070
H59   H     H_    0.021408 0.872160 0.838387 0.069084
H60   H     H_    0.027259 0.018656 0.794150 0.178171
H61   H     H_    0.954304 0.998666 0.034778 0.087380
H62   H     H_    0.944440 0.100016 0.110314 0.143991
H63   H     H_    0.035861 0.975844 0.175362 0.181205
H64   H     H_    0.957389 0.891298 0.152569 0.089304
H65   H     H_    0.037045 0.871142 0.100478 0.131466
H66   H     H_    0.642091 0.128978 0.573240 0.152816
H67   H     H_    0.363244 0.112708 0.418818 0.156351
H68   H     H_    0.291128 0.586415 0.446647 0.097227
O1    O     O_R   0.215090 0.709860 0.828130 -0.525619
O2    O     O_R   0.543740 0.718170 0.330000 -0.508559
O3    O     O_R   0.956260 0.218170 0.670000 -0.513028
O4    O     O_R   0.043740 0.218170 0.330000 -0.508560
O5    O     O_R   0.320940 0.626760 0.674370 -0.493826
O6    O     O_R   0.679060 0.626760 0.325630 -0.526035
O7    O     O_R   0.820940 0.126760 0.674370 -0.493826
O8    O     O_R   0.179060 0.126760 0.325630 -0.526035
O9    O     O_3   0.334530 0.834540 0.749640 -0.280576
O10   O     O_3   0.665470 0.834540 0.250360 -0.265682
O11   O     O_3   0.834530 0.334540 0.749640 -0.280575
O12   O     O_R   0.784910 0.709860 0.171870 -0.525980
O13   O     O_3   0.165470 0.334540 0.250360 -0.265682
O14   O     O_R   0.236990 0.958390 0.823710 -0.516091
O15   O     O_R   0.763010 0.958390 0.176290 -0.496892
O16   O     O_R   0.736990 0.458390 0.823710 -0.516091
O17   O     O_R   0.263010 0.458390 0.176290 -0.496891
O18   O     O_R   0.332380 0.074750 0.830850 -0.509513
O19   O     O_R   0.667620 0.074750 0.169150 -0.510907
O20   O     O_R   0.832380 0.574750 0.830850 -0.509513
O21   O     O_R   0.167620 0.574750 0.169150 -0.510908
O22   O     O_R   0.445800 0.917770 0.825070 -0.519277
O23   O     O_R   0.715090 0.209860 0.828130 -0.525619
O24   O     O_R   0.554200 0.917770 0.174930 -0.498382
O25   O     O_R   0.945800 0.417770 0.825070 -0.519277
O26   O     O_R   0.054200 0.417770 0.174930 -0.498383
O27   O     O_R   0.456410 0.716580 0.829970 -0.509570
O28   O     O_R   0.543590 0.716580 0.170030 -0.475447
O29   O     O_R   0.956410 0.216580 0.829970 -0.509569
O30   O     O_R   0.043590 0.216580 0.170030 -0.475446
O31   O     O_R   0.321080 0.625290 0.822650 -0.489976
O32   O     O_R   0.678920 0.625290 0.177350 -0.480692
O33   O     O_R   0.821080 0.125290 0.822650 -0.489978
O34   O     O_R   0.284910 0.209860 0.171870 -0.525979
O35   O     O_R   0.178920 0.125290 0.177350 -0.480692
O36   O     O_R   0.214930 0.711450 0.668160 -0.518873
O37   O     O_R   0.785070 0.711450 0.331840 -0.511157
O38   O     O_R   0.714930 0.211450 0.668160 -0.518873
O39   O     O_R   0.285070 0.211450 0.331840 -0.511157
O40   O     O_R   0.236850 0.959870 0.675420 -0.497409
O41   O     O_R   0.763150 0.959870 0.324580 -0.495242
O42   O     O_R   0.736850 0.459870 0.675420 -0.497409
O43   O     O_R   0.263150 0.459870 0.324580 -0.495243
O44   O     O_R   0.332230 0.076350 0.670880 -0.498719
O45   O     O_R   0.445660 0.919250 0.676780 -0.520006
O46   O     O_R   0.667770 0.076350 0.329120 -0.524474
O47   O     O_R   0.832230 0.576350 0.670880 -0.498719
O48   O     O_R   0.167770 0.576350 0.329120 -0.524473
O49   O     O_3   0.565278 0.643575 0.910902 -0.528178
O50   O     O_3   0.542592 0.605537 0.056768 -0.544821
O51   O     O_3   0.065277 0.143574 0.910902 -0.528178
O52   O     O_3   0.042590 0.105537 0.056768 -0.544822
O53   O     O_R   0.554340 0.919250 0.323220 -0.507585
O54   O     O_R   0.945660 0.419250 0.676780 -0.520006
O55   O     O_R   0.054340 0.419250 0.323220 -0.507586
O56   O     O_R   0.456260 0.718170 0.670000 -0.513028

loop_
_geom_bond_atom_site_label_1
_geom_bond_atom_site_label_2
_ccdc_geom_bond_type
C44   C49   S    
C43   C73   S    
C31   C66   S    
C55   O23   A    
C48   H34   S    
C75   C76   A    
Cr3   O33   S    
C14   H18   S    
C13   H30   S    
C14   C18   S    
C91   H62   S    
Cr11  O13   S    
C61   O48   A    
C7    C55   S    
C20   H25   S    
C9    C14   D    
C84   H44   S    
Cr3   O11   S    
C64   O54   A    
C53   O1    A    
Cr5   O10   S    
C63   O53   A    
Cr7   O39   S    
C44   H1    S    
C15   C19   S    
C81   O50   S    
Cr6   O38   S    
C53   O31   A    
Cr1   O40   S    
C15   H19   S    
C90   H58   S    
C8    H35   S    
C56   C76   A    
Cr10  O11   S    
C5    C53   S    
C6    C19   D    
C84   O49   S    
C41   O24   A    
C10   C15   D    
C11   H29   S    
C23   O16   A    
C62   O56   A    
C69   O38   A    
Cr11  O55   S    
C88   H57   S    
C19   H24   S    
C67   C89   A    
C65   O55   A    
Cr9   O53   S    
Cr2   O6    S    
C88   H55   S    
Cr1   O1    S    
C38   H3    S    
C26   H42   S    
Cr3   O3    S    
C67   H11   S    
C80   O49   S    
Cr1   O9    S    
Cr9   O46   S    
C35   C70   S    
Cr2   O10   S    
C67   C77   A    
C4    H17   S    
Cr10  O20   S    
C24   C27   D    
C33   H7    S    
Cr4   O4    S    
Cr5   O37   S    
C37   C46   D    
Cr9   O24   S    
C33   C69   S    
Cr11  O48   S    
C41   C71   S    
C1    O18   A    
C77   C79   A    
Cr12  O9    S    
Cr6   O42   S    
Cr5   O41   S    
C4    C56   A    
C70   O39   A    
C63   O2    A    
C31   C49   D    
C41   O28   A    
C68   O37   A    
C52   H67   S    
C23   O20   A    
C22   C28   D    
Cr12  O56   S    
C6    H32   S    
C9    H27   S    
C39   H4    S    
C55   O33   A    
C66   O5    A    
Cr10  O54   S    
C36   H68   S    
C42   C74   S    
Cr7   O34   S    
C62   O45   A    
C78   H13   S    
C84   C85   S    
C60   O47   A    
C91   C92   S    
C7    H33   S    
C86   C87   S    
Cr4   O35   S    
C40   O22   A    
C82   O51   S    
C50   H56   S    
C1    O14   A    
C39   C58   S    
C57   O34   A    
C3    C45   A    
C17   C21   S    
C30   H39   S    
C87   H53   S    
C90   H60   S    
Cr11  O26   S    
Cr6   O11   S    
C2    C89   A    
C86   H51   S    
C85   H47   S    
C29   C30   S    
C2    C78   A    
C8    C57   S    
C22   C62   S    
C66   O36   A    
C11   C16   D    
C92   H64   S    
Cr12  O5    S    
C22   H41   S    
C92   H65   S    
C16   C20   S    
C43   O30   A    
C8    C21   D    
C31   H5    S    
C88   O51   S    
C42   O25   A    
C72   C76   A    
C25   H43   S    
C85   H49   S    
Cr4   O8    S    
C64   O3    A    
Cr4   O30   S    
Cr8   O9    S    
C32   C50   D    
C38   C47   D    
C32   H6    S    
C49   H45   S    
Cr2   O2    S    
C83   O52   S    
Cr10  O47   S    
C34   O21   A    
Cr3   O7    S    
C58   O40   A    
C17   H21   S    
C88   C90   S    
Cr8   O45   S    
C6    C54   S    
C24   C63   S    
Cr8   O22   S    
C74   C79   A    
C65   O4    A    
C9    C34   S    
Cr12  O27   S    
C54   O12   A    
Cr10  O25   S    
C1    C13   S    
C36   C61   S    
C34   O17   A    
Cr7   O13   S    
Cr5   O12   S    
Cr7   O17   S    
C74   C82   A    
C25   C30   D    
C5    H31   S    
C12   O19   A    
Cr5   O15   S    
C35   C52   D    
Cr8   O44   S    
C73   C77   A    
C40   C72   S    
C78   C79   A    
C26   C65   S    
Cr4   O13   S    
C91   H61   S    
C51   H66   S    
Cr8   O18   S    
Cr12  O31   S    
C80   C81   A    
Cr9   O19   S    
C59   O46   A    
C47   C51   S    
C2    H15   S    
C59   O41   A    
C47   H23   S    
C5    C18   D    
C40   O27   A    
C13   C17   D    
C10   C23   S    
C33   C51   D    
C61   O43   A    
C46   C50   S    
C27   H36   S    
C87   H54   S    
C46   H12   S    
C90   H59   S    
C45   C75   A    
Cr1   O36   S    
C86   H50   S    
C85   H48   S    
C37   H2    S    
C72   C80   A    
Cr3   O29   S    
Cr1   O14   S    
C32   C68   S    
C71   C75   A    
C12   O15   A    
C92   H63   S    
C70   O8    A    
Cr7   O43   S    
C24   H40   S    
C54   O32   A    
C29   H38   S    
C68   O6    A    
C73   C83   A    
Cr6   O23   S    
C43   O26   A    
Cr2   O28   S    
C84   H46   S    
C16   H20   S    
C10   H28   S    
C21   H26   S    
C69   O7    A    
C37   C60   S    
C36   C44   D    
C3    H16   S    
Cr9   O10   S    
C38   C59   S    
C45   H9    S    
C48   C52   S    
Cr2   O32   S    
C89   H14   S    
C26   C29   D    
C7    C20   D    
C27   C28   S    
C56   H10   S    
C87   H52   S    
C42   O29   A    
C60   O42   A    
C28   H37   S    
C86   O50   S    
C82   C83   A    
C91   O52   S    
C57   O35   A    
Cr6   O16   S    
C25   C64   S    
C18   H22   S    
C35   H8    S    
C3    C4    A    
C11   C12   S    
Cr11  O21   S    
C39   C48   D    
C71   C81   A    
C58   O44   A    
