data_mof_unit_24956.cif
_audit_creation_date              2012-12-11T17:40:26-0500
_audit_creation_method            fapswitch 2.2
_symmetry_space_group_name_H-M    P1
_symmetry_Int_Tables_number       1
_space_group_crystal_system       triclinic
_cell_length_a                    27.572004
_cell_length_b                    7.216947
_cell_length_c                    24.782546
_cell_angle_alpha                 90.01565
_cell_angle_beta                  94.84186
_cell_angle_gamma                 90.024479
_cell_volume                      4913.77356437

loop_
_atom_site_label
_atom_site_type_symbol
_atom_type_description
_atom_site_fract_x
_atom_site_fract_y
_atom_site_fract_z
_atom_type_partial_charge
O1    O     O_R   0.698190 0.392130 0.199050 -0.547832
O2    O     O_R   0.301810 0.607870 0.800950 -0.540116
O3    O     O_R   0.801810 0.892130 0.300950 -0.547620
O4    O     O_R   0.198190 0.107870 0.699050 -0.540119
O5    O     O_R   0.796980 0.720470 0.196820 -0.515918
O6    O     O_R   0.203020 0.279530 0.803180 -0.550758
O7    O     O_R   0.703020 0.220470 0.303180 -0.516161
O8    O     O_R   0.296980 0.779530 0.696820 -0.550798
C1    C     C_R   0.811632 0.552729 0.183378 0.719043
C2    C     C_R   0.186257 0.446995 0.814461 0.774359
C3    C     C_R   0.688373 0.052729 0.316625 0.715982
C4    C     C_R   0.313729 0.947019 0.685520 0.774115
O9    O     O_R   0.698260 0.721750 0.192650 -0.505644
O10   O     O_R   0.301740 0.278250 0.807350 -0.496300
O11   O     O_R   0.801740 0.221750 0.307350 -0.503745
O12   O     O_R   0.198260 0.778250 0.692650 -0.496571
O13   O     O_R   0.702390 0.893450 0.296740 -0.547522
O14   O     O_R   0.297610 0.106550 0.703260 -0.514466
O15   O     O_R   0.797610 0.393450 0.203260 -0.547368
O16   O     O_R   0.202390 0.606550 0.796740 -0.514465
C5    C     C_R   0.682676 0.553225 0.177609 0.769325
C6    C     C_R   0.317644 0.446577 0.822308 0.821386
C7    C     C_R   0.817303 0.053306 0.322435 0.769193
C8    C     C_R   0.182324 0.946490 0.677736 0.821722
O17   O     O_3   0.751470 0.559080 0.284160 -0.351785
O18   O     O_3   0.248530 0.440920 0.715840 -0.367785
O19   O     O_3   0.748530 0.059080 0.215840 -0.352575
O20   O     O_3   0.251470 0.940920 0.784160 -0.367601
V1    V     V_3+5 0.749730 0.833390 0.243660 1.629690
V2    V     V_3+5 0.250270 0.166610 0.756340 1.632036
V3    V     V_3+5 0.750270 0.333390 0.256340 1.632120
V4    V     V_3+5 0.249730 0.666610 0.743660 1.631888
C9    C     C_R   0.091032 0.831020 0.555413 0.321013
C10   C     C_R   0.900802 0.149434 0.452177 0.341312
C11   C     C_R   0.408545 0.331050 0.944950 0.323880
C12   C     C_R   0.599934 0.644306 0.047022 0.278633
C13   C     C_R   0.133656 0.822841 0.591649 0.445127
C14   C     C_R   0.860050 0.160494 0.413277 0.354356
C15   C     C_R   0.366048 0.322878 0.908517 0.444861
C16   C     C_R   0.640487 0.656756 0.086179 0.350089
C17   C     C_R   0.141008 0.955390 0.634256 -0.315651
C18   C     C_R   0.857497 0.043746 0.366810 -0.271471
C19   C     C_R   0.358832 0.455614 0.865966 -0.315344
C20   C     C_R   0.642443 0.543404 0.133315 -0.263675
C21   C     C_R   0.107383 0.100870 0.636372 -0.211894
C22   C     C_R   0.894317 0.912377 0.362036 -0.274568
C23   C     C_R   0.392431 0.601434 0.864145 -0.209184
C24   C     C_R   0.605015 0.415130 0.138848 -0.301540
H1    H     H_    0.112543 0.202742 0.668420 0.216087
H2    H     H_    0.892070 0.821411 0.327154 0.190424
H3    H     H_    0.387349 0.703595 0.832188 0.215855
H4    H     H_    0.606767 0.326966 0.174315 0.189785
C25   C     C_R   0.066877 0.117172 0.598539 0.491497
C26   C     C_R   0.934222 0.897210 0.400687 0.367199
C27   C     C_R   0.432848 0.617629 0.902134 0.484262
C28   C     C_R   0.565078 0.399963 0.100247 0.392190
C29   C     C_R   0.057755 0.980490 0.558192 -0.228990
C30   C     C_R   0.938180 0.016990 0.445974 -0.176877
C31   C     C_R   0.441921 0.480424 0.942311 -0.232628
C32   C     C_R   0.561868 0.515463 0.054076 -0.161978
C33   C     C_1   0.015282 0.995054 0.518930 0.174226
C34   C     C_1   0.980323 0.004681 0.485752 0.117159
C35   C     C_1   0.484553 0.494075 0.981390 0.177275
C36   C     C_1   0.519632 0.503174 0.014423 0.159646
C37   C     C_R   0.386879 0.112561 0.651888 0.279899
C38   C     C_R   0.657703 0.903744 0.400383 0.321926
C39   C     C_R   0.113101 0.612476 0.848042 0.279973
C40   C     C_R   0.842375 0.403141 0.099726 0.322875
C41   C     C_R   0.427597 0.114762 0.620089 0.362919
C42   C     C_R   0.621662 0.888274 0.437845 0.430167
C43   C     C_R   0.072365 0.614679 0.879814 0.363028
C44   C     C_R   0.878390 0.387757 0.062238 0.429992
C45   C     C_R   0.431688 0.976117 0.579974 -0.133211
C46   C     C_R   0.580678 0.009213 0.433354 -0.176168
C47   C     C_R   0.068243 0.476126 0.919932 -0.133300
C48   C     C_R   0.919288 0.509265 0.066593 -0.176285
C49   C     C_R   0.399317 0.825448 0.578169 -0.113124
C50   C     C_R   0.578426 0.148597 0.393625 -0.111578
C51   C     C_R   0.100580 0.325461 0.921734 -0.113019
C52   C     C_R   0.921460 0.649140 0.106198 -0.111073
H5    H     H_    0.402371 0.715154 0.548999 0.189896
H6    H     H_    0.548083 0.244368 0.389904 0.182598
H7    H     H_    0.097497 0.215198 0.950892 0.189993
H8    H     H_    0.951734 0.745346 0.109813 0.182752
C53   C     C_R   0.362550 0.813955 0.613511 -0.186923
C54   C     C_R   0.614159 0.164631 0.357254 -0.132140
C55   C     C_R   0.137350 0.313914 0.886399 -0.186788
C56   C     C_R   0.885736 0.665144 0.142581 -0.131266
H9    H     H_    0.339224 0.693253 0.611337 0.148874
H10   H     H_    0.610334 0.271190 0.326398 0.150974
H11   H     H_    0.160628 0.193172 0.888556 0.148765
H12   H     H_    0.889499 0.772129 0.173334 0.151238
C57   C     C_R   0.354793 0.958398 0.649676 -0.125217
C58   C     C_R   0.653298 0.040820 0.358981 -0.178389
C59   C     C_R   0.145164 0.458344 0.850266 -0.125165
C60   C     C_R   0.846695 0.540781 0.141003 -0.177825
N1    N     N_R   0.488982 0.826075 0.521467 -0.215834
N2    N     N_R   0.518736 0.156021 0.486140 -0.217877
N3    N     N_R   0.011016 0.326145 0.978544 -0.216112
N4    N     N_R   0.981159 0.656143 0.013696 -0.217676
N5    N     N_R   0.523643 0.833434 0.487066 -0.192210
N6    N     N_R   0.483796 0.148636 0.520145 -0.194826
N7    N     N_R   0.976370 0.333516 0.012960 -0.192309
N8    N     N_R   0.016088 0.648751 0.979680 -0.194682
C61   C     C_R   0.540266 0.998699 0.469802 0.590820
C62   C     C_R   0.469068 0.983922 0.539770 0.592118
C63   C     C_R   0.959692 0.498787 0.030135 0.590840
C64   C     C_R   0.030865 0.483993 0.960138 0.592111
O21   O     O_3   0.083460 0.690529 0.517646 -0.523363
H13   H     H_    0.050121 0.696082 0.499869 0.369376
O22   O     O_3   0.902893 0.271847 0.495312 -0.565191
H14   H     H_    0.928952 0.236634 0.523158 0.366362
O23   O     O_3   0.415908 0.190341 0.982661 -0.523558
H15   H     H_    0.448546 0.199390 0.002029 0.384388
O24   O     O_3   0.598674 0.761954 0.002826 -0.564407
H16   H     H_    0.572339 0.726608 0.975296 0.368669
S1    S     S_3+6 0.177735 0.648269 0.581306 0.100862
O25   O     O_2   0.170799 0.489911 0.619267 -0.321072
O26   O     O_2   0.172720 0.576874 0.524112 -0.235885
O27   O     O_3   0.234149 0.734802 0.593594 -0.523880
H17   H     H_    0.255844 0.626468 0.590998 0.346895
S2    S     S_3+6 0.811625 0.315682 0.425111 0.139716
O28   O     O_2   0.763461 0.226779 0.408242 -0.317949
O29   O     O_2   0.811898 0.367974 0.483855 -0.212126
O30   O     O_3   0.817387 0.509314 0.388496 -0.471818
H18   H     H_    0.849803 0.559566 0.401162 0.334646
S3    S     S_3+6 0.321885 0.148232 0.918635 0.100171
O31   O     O_2   0.328892 0.989968 0.880649 -0.320753
O32   O     O_2   0.326705 0.076665 0.975801 -0.237143
O33   O     O_3   0.265515 0.234759 0.906194 -0.524025
H19   H     H_    0.243793 0.126426 0.908757 0.346844
S4    S     S_3+6 0.689337 0.809795 0.074107 0.138016
O34   O     O_2   0.737209 0.719311 0.091213 -0.318057
O35   O     O_2   0.689315 0.860765 0.015296 -0.205775
O36   O     O_3   0.684146 0.004531 0.110429 -0.472612
H20   H     H_    0.652180 0.057322 0.097185 0.322340
S5    S     S_3+6 0.027631 0.309256 0.603831 0.069582
O37   O     O_2   0.016241 0.394181 0.548894 -0.324144
O38   O     O_2   0.981202 0.243904 0.625258 -0.285417
O39   O     O_3   0.053874 0.469758 0.646078 -0.477249
H21   H     H_    0.033039 0.581123 0.640680 0.379596
S6    S     S_3+6 0.978567 0.724697 0.391099 0.084957
O40   O     O_2   0.970706 0.643921 0.335128 -0.287787
O41   O     O_2   0.028630 0.808237 0.398255 -0.264232
O42   O     O_3   0.974400 0.553029 0.436422 -0.450397
H22   H     H_    0.958350 0.608515 0.466827 0.338955
S7    S     S_3+6 0.472092 0.810105 0.897167 0.077335
O43   O     O_2   0.484051 0.892999 0.952311 -0.308290
O44   O     O_2   0.518239 0.745737 0.874918 -0.284003
O45   O     O_3   0.445524 0.972155 0.855755 -0.477297
H23   H     H_    0.466739 0.082680 0.860834 0.381146
S8    S     S_3+6 0.519853 0.232337 0.110801 0.070411
O46   O     O_2   0.528006 0.147408 0.166217 -0.308506
O47   O     O_2   0.470488 0.321861 0.105241 -0.258908
O48   O     O_3   0.521712 0.064679 0.063965 -0.458135
H24   H     H_    0.555149 0.014128 0.069338 0.344414
O49   O     O_3   0.378790 0.256251 0.686776 -0.611570
H25   H     H_    0.388795 0.373339 0.670035 0.328310
O50   O     O_3   0.696995 0.784516 0.405597 -0.556605
H26   H     H_    0.725815 0.847695 0.392914 0.329853
O51   O     O_3   0.121226 0.756123 0.813166 -0.611646
H27   H     H_    0.111220 0.873222 0.829900 0.328221
O52   O     O_3   0.803196 0.283221 0.094667 -0.556494
H28   H     H_    0.774312 0.346197 0.107236 0.331019
S9    S     S_3+6 0.476021 0.274795 0.636359 0.079819
O53   O     O_2   0.468149 0.443669 0.601238 -0.323060
O54   O     O_2   0.477570 0.331688 0.694852 -0.270588
O55   O     O_3   0.529913 0.177856 0.625795 -0.450224
H29   H     H_    0.553381 0.282083 0.627466 0.406439
S10   S     S_3+6 0.630438 0.726442 0.492274 0.146346
O56   O     O_2   0.599479 0.558487 0.478772 -0.303233
O57   O     O_2   0.682708 0.666977 0.501705 -0.208762
O58   O     O_3   0.613935 0.822976 0.549774 -0.458602
H30   H     H_    0.611370 0.718089 0.575151 0.401898
S11   S     S_3+6 0.023956 0.774540 0.863494 0.079493
O59   O     O_2   0.031806 0.943527 0.898609 -0.323084
O60   O     O_2   0.022451 0.831276 0.804999 -0.271075
O61   O     O_3   0.970050 0.677469 0.874013 -0.450298
H31   H     H_    0.946582 0.781614 0.872299 0.406329
S12   S     S_3+6 0.869671 0.225287 0.007930 0.147087
O62   O     O_2   0.900734 0.057801 0.021529 -0.303566
O63   O     O_2   0.817432 0.165163 0.998588 -0.207750
O64   O     O_3   0.886074 0.321428 0.950340 -0.458383
H32   H     H_    0.888677 0.216318 0.925035 0.401880

loop_
_geom_bond_atom_site_label_1
_geom_bond_atom_site_label_2
_ccdc_geom_bond_type
O17   V3    S    
N3    N7    A    
C56   C60   A    
C30   C34   S    
O49   H25   S    
C10   O22   S    
C27   C31   A    
O19   V1    S    
O13   V1    S    
O3    C7    A    
S7    O43   D    
N4    N8    A    
C44   C48   A    
O15   V3    S    
C51   C55   A    
O51   H27   S    
O4    V2    S    
O36   H20   S    
S11   O60   D    
O58   H30   S    
S12   O62   D    
O1    C5    A    
N3    C64   A    
S5    O38   D    
O5    C1    A    
S9    O53   D    
N2    C61   A    
C25   S5    S    
C11   C31   A    
S7    O44   D    
C14   C18   A    
C24   H4    S    
C55   H11   S    
S1    O26   D    
O16   V4    S    
C11   C15   A    
O4    C8    A    
S10   O56   D    
O24   H16   S    
O1    V3    S    
O2    V4    S    
C18   C22   A    
O3    V1    S    
C50   H6    S    
O12   V4    S    
C54   C58   A    
C53   C57   A    
C1    O15   A    
O52   H28   S    
C2    O16   A    
S4    O34   D    
C55   C59   A    
O2    C6    A    
C41   C45   A    
O14   V2    S    
C21   H1    S    
C28   S8    S    
C19   C23   A    
S12   O64   S    
C52   H8    S    
C38   C58   A    
C50   C54   A    
O11   C7    A    
C16   S4    S    
C21   C25   A    
C47   C64   S    
O12   C8    A    
C39   C59   A    
C8    C17   S    
S6    O42   S    
S9    O54   D    
O10   V2    S    
C38   O50   S    
S12   O63   D    
O42   H22   S    
S11   O61   S    
O5    V1    S    
N5    C61   A    
S5    O39   S    
C43   C47   A    
O7    V3    S    
O8    V4    S    
C56   H12   S    
C12   C16   A    
S7    O45   S    
C15   S3    S    
O39   H21   S    
C37   O49   S    
C54   H10   S    
S1    O27   S    
C53   H9    S    
O18   V4    S    
C23   H3    S    
N2    N6    A    
C9    C13   A    
C28   C32   A    
C40   C44   A    
O7    C3    A    
O64   H32   S    
S3    O32   D    
C42   C46   A    
C5    C20   S    
C39   O51   S    
C27   S7    S    
O50   H26   S    
S8    O48   S    
C49   H5    S    
O8    C4    A    
C22   C26   A    
O9    C5    A    
C40   C60   A    
O11   V3    S    
C7    C18   S    
C1    C60   S    
C14   S2    S    
N1    C62   A    
C3    C58   S    
O55   H29   S    
C26   S6    S    
S8    O47   D    
C48   C63   S    
O30   H18   S    
S6    O41   D    
C4    C57   S    
C9    O21   S    
C44   S12   S    
S2    O29   D    
S3    O31   D    
N8    C64   A    
O27   H17   S    
C23   C27   A    
O23   H15   S    
C26   C30   A    
C40   O52   S    
O9    V1    S    
C24   C28   A    
C3    O13   A    
N4    C63   A    
C9    C29   A    
O22   H14   S    
O6    V2    S    
C10   C14   A    
C48   C52   A    
C12   C32   A    
C25   C29   A    
O6    C2    A    
C15   C19   A    
C29   C33   S    
S9    O55   S    
S5    O37   D    
C22   H2    S    
C31   C35   S    
O45   H23   S    
C32   C36   S    
O10   C6    A    
S2    O30   S    
O20   V2    S    
O33   H19   S    
C42   S10   S    
S3    O33   S    
C52   C56   A    
S11   O59   D    
S1    O25   D    
C46   C61   S    
C51   H7    S    
C45   C62   S    
C38   C42   A    
S10   O57   D    
C2    C59   S    
S4    O36   S    
C37   C41   A    
C37   C57   A    
C43   S11   S    
C11   O23   S    
C39   C43   A    
C13   C17   A    
C33   C34   T    
C41   S9    S    
C49   C53   A    
C35   C36   T    
C16   C20   A    
C13   S1    S    
S8    O46   D    
C45   C49   A    
S4    O35   D    
C46   C50   A    
N6    C62   A    
C4    O14   A    
O48   H24   S    
C10   C30   A    
C17   C21   A    
S6    O40   D    
N7    C63   A    
S2    O28   D    
O21   H13   S    
C12   O24   S    
C47   C51   A    
C6    C19   S    
N1    N5    A    
C20   C24   A    
O61   H31   S    
S10   O58   S    
