data_mof_unit_39377.cif
_audit_creation_date              2012-12-10T17:17:30-0500
_audit_creation_method            fapswitch 2.2
_symmetry_space_group_name_H-M    P1
_symmetry_Int_Tables_number       1
_space_group_crystal_system       triclinic
_cell_length_a                    10.244226
_cell_length_b                    10.691611
_cell_length_c                    12.237942
_cell_angle_alpha                 90.607517
_cell_angle_beta                  108.95539
_cell_angle_gamma                 94.872551
_cell_volume                      1262.08235576

loop_
_atom_site_label
_atom_site_type_symbol
_atom_type_description
_atom_site_fract_x
_atom_site_fract_y
_atom_site_fract_z
_atom_type_partial_charge
C1    C     C_R   0.051296 0.733223 0.493870 0.926318
C2    C     C_R   0.206093 0.540417 0.838370 -0.125215
C3    C     C_2   0.083759 0.868155 0.501176 -0.059099
C4    C     C_R   0.133861 0.514892 0.714421 1.027553
C5    C     C_2   0.045408 0.935338 0.577770 0.325566
C6    C     C_2   0.939415 0.133418 0.537684 -0.056582
C7    C     C_2   0.055800 0.072070 0.573542 0.356208
C8    C     C_2   0.430920 0.514602 0.507894 0.302402
C9    C     C_2   0.570967 0.482026 0.500548 -0.213064
C10   C     C_R   0.952682 0.266684 0.512740 0.949095
C11   C     C_R   0.866964 0.490410 0.285282 0.864951
C12   C     C_R   0.425817 0.533529 0.994845 -0.008480
C13   C     C_R   0.707038 0.326824 0.999789 -0.098284
C14   C     C_R   0.792293 0.474713 0.161434 -0.207131
C15   C     C_R   0.172764 0.642847 0.893563 0.406007
C16   C     C_R   0.263082 0.687506 0.001058 -0.329571
C17   C     C_R   0.389412 0.637145 0.051582 0.224554
C18   C     C_3   0.740345 0.085605 0.600347 -0.718920
C19   C     C_3   0.275020 0.911833 0.426858 -0.779650
C20   C     C_3   0.480187 0.625735 0.693771 -0.713183
C21   C     C_3   0.239434 0.286530 0.307861 -0.646187
C22   C     C_3   0.444834 0.622161 0.256852 -0.776537
C23   C     C_R   0.322587 0.476953 0.895121 -0.154493
C24   C     C_R   0.557326 0.482378 0.030191 0.026408
C25   C     C_R   0.576077 0.372731 0.971448 -0.044715
C26   C     C_R   0.464795 0.308739 0.885899 0.307114
C27   C     C_R   0.334871 0.356247 0.854277 0.361787
C28   C     C_R   0.672494 0.535881 0.120476 -0.237236
C29   C     C_R   0.816223 0.378363 0.093262 0.400670
H1    H     H_    0.574780 0.397791 0.451953 0.185826
H2    H     H_    0.711002 0.183211 0.600927 0.247598
H3    H     H_    0.810869 0.066196 0.687451 0.245419
H4    H     H_    0.066494 0.908948 0.333333 0.218850
H5    H     H_    0.311076 0.981148 0.373569 0.239718
H6    H     H_    0.282781 0.816205 0.394669 0.242721
H7    H     H_    0.343860 0.927164 0.518037 0.240414
H8    H     H_    0.459896 0.707554 0.536038 0.191363
H9    H     H_    0.413071 0.676358 0.730784 0.238573
H10   H     H_    0.586333 0.674580 0.726732 0.214397
H11   H     H_    0.483304 0.528231 0.724647 0.240600
H12   H     H_    0.681817 0.636654 0.585824 0.200037
H13   H     H_    0.324437 0.262152 0.483544 0.278239
H14   H     H_    0.270016 0.196408 0.282457 0.211682
H15   H     H_    0.249851 0.357605 0.244948 0.223334
H16   H     H_    0.130518 0.271571 0.306404 0.288063
H17   H     H_    0.421965 0.194514 0.753519 0.357325
H18   H     H_    0.045566 0.769498 0.890969 0.333429
H19   H     H_    0.470801 0.783826 0.172408 0.225334
H20   H     H_    0.515340 0.666429 0.339705 0.237776
H21   H     H_    0.464724 0.521984 0.252497 0.262438
H22   H     H_    0.335946 0.628272 0.253921 0.231726
H23   H     H_    0.724883 0.248254 0.951470 0.212587
H24   H     H_    0.230741 0.194002 0.806904 0.357407
H25   H     H_    0.256102 0.073811 0.620737 0.322720
H26   H     H_    0.673664 0.622041 0.166040 0.201131
H27   H     H_    0.236520 0.764539 0.045648 0.143688
H28   H     H_    0.014340 0.400040 0.145946 0.344811
H29   H     H_    0.993531 0.942138 0.716406 0.330889
H30   H     H_    0.739820 0.083785 0.431665 0.217698
H31   H     H_    0.644925 0.019959 0.580747 0.233793
N1    N     N_2   0.313640 0.446500 0.454900 -0.043704
N2    N     N_2   0.686360 0.553430 0.545150 -0.186514
N3    N     N_2   0.805311 0.067735 0.513220 -0.331704
N4    N     N_2   0.132855 0.928319 0.416519 -0.320116
N5    N     N_2   0.425884 0.627405 0.568646 -0.274623
N6    N     N_2   0.328885 0.326301 0.422360 -0.293823
N7    N     N_2   0.471081 0.687833 0.162690 -0.325586
O1    O     O_R   0.936910 0.692950 0.509080 -0.556944
O2    O     O_3   0.000551 0.876725 0.661144 -0.719077
O3    O     O_3   0.485255 0.200120 0.834201 -0.797729
O4    O     O_3   0.052940 0.699272 0.840324 -0.712762
O5    O     O_3   0.216223 0.283299 0.790467 -0.758602
O6    O     O_3   0.185873 0.135098 0.595886 -0.759421
O7    O     O_R   0.138320 0.658600 0.480130 -0.614909
O8    O     O_R   0.002900 0.525670 0.675280 -0.545425
O9    O     O_R   0.204310 0.491320 0.646330 -0.588097
O10   O     O_R   0.861680 0.341400 0.519870 -0.627732
O11   O     O_R   0.063090 0.307050 0.490920 -0.543436
O12   O     O_R   0.795690 0.508680 0.353670 -0.603915
O13   O     O_R   0.997100 0.474330 0.324720 -0.623101
O14   O     O_3   0.941667 0.329159 0.117521 -0.782304
Zn1   Zn    Zn3+2 0.865520 0.522940 0.519330 0.996466
Zn2   Zn    Zn3+2 0.134480 0.477060 0.480670 0.983184

loop_
_geom_bond_atom_site_label_1
_geom_bond_atom_site_label_2
_ccdc_geom_bond_type
C21   N6    S    
O7    Zn2   S    
C10   O11   A    
C7    O6    S    
C3    N4    S    
C12   C23   A    
C26   C27   A    
C1    O7    A    
C13   C29   A    
C19   H7    S    
C20   H11   S    
C11   C14   S    
C18   N3    S    
C15   C16   A    
H25   O6    S    
C1    O1    A    
C4    O8    A    
C5    O2    S    
C21   H14   S    
N1    N6    S    
C10   O10   A    
C8    C9    S    
H8    N5    S    
C12   C17   A    
C21   H15   S    
C23   C27   A    
C8    N1    D    
C22   H21   S    
N2    Zn1   S    
C8    N5    S    
C13   C25   A    
H12   N2    S    
O13   Zn2   S    
O11   Zn2   S    
O9    Zn2   S    
C28   H26   S    
C21   H16   S    
C17   N7    S    
H17   O3    S    
C9    N2    D    
C20   N5    S    
C24   C25   A    
N1    Zn2   S    
C5    C7    S    
C20   H10   S    
C16   C17   A    
C25   C26   A    
C1    C3    S    
C6    N3    S    
C2    C4    S    
C16   H27   S    
C29   O14   S    
C13   H23   S    
C20   H9    S    
C19   N4    S    
H29   O2    S    
C2    C15   A    
H18   O4    S    
C11   O12   A    
C9    H1    S    
C22   H20   S    
C18   H31   S    
C26   O3    S    
H28   O14   S    
C18   H3    S    
C14   C29   A    
C24   C28   A    
C3    C5    D    
C19   H5    S    
C6    C10   S    
O12   Zn1   S    
O8    Zn1   S    
C6    C7    D    
C15   O4    S    
C12   C24   A    
H30   N3    S    
O1    Zn1   S    
C19   H6    S    
O10   Zn1   S    
H4    N4    S    
H19   N7    S    
C22   N7    S    
C4    O9    A    
C11   O13   A    
C2    C23   A    
H13   N6    S    
C18   H2    S    
C14   C28   A    
H24   O5    S    
C27   O5    S    
C22   H22   S    
