data_mof_unit_52645.cif
_audit_creation_date              2012-12-11T14:45:52-0500
_audit_creation_method            fapswitch 2.2
_symmetry_space_group_name_H-M    P1
_symmetry_Int_Tables_number       1
_space_group_crystal_system       triclinic
_cell_length_a                    10.938377
_cell_length_b                    10.989972
_cell_length_c                    18.815733
_cell_angle_alpha                 90.426965
_cell_angle_beta                  89.224522
_cell_angle_gamma                 120.22986
_cell_volume                      1954.11788432

loop_
_atom_site_label
_atom_site_type_symbol
_atom_type_description
_atom_site_fract_x
_atom_site_fract_y
_atom_site_fract_z
_atom_type_partial_charge
C1    C     C_R   0.864180 0.639642 0.603403 0.547724
C2    C     C_R   0.950940 0.166339 0.713209 -0.010283
C3    C     C_R   0.968039 0.175819 0.788021 0.003534
C4    C     C_R   0.267034 0.630707 0.605050 0.547110
C5    C     C_R   0.757303 0.217389 0.727513 0.021416
C6    C     C_R   0.790229 0.243235 0.800138 0.020914
C7    C     C_R   0.636825 0.222884 0.704737 -0.058532
C8    C     C_R   0.569831 0.273898 0.749190 -0.145463
C9    C     C_R   0.617187 0.317326 0.817695 -0.121247
C10   C     C_R   0.728563 0.304785 0.842786 -0.058901
C11   C     C_R   0.845941 0.188518 0.681696 -0.029889
C12   C     C_R   0.294424 0.553102 0.793065 -0.187510
C13   C     C_R   0.686084 0.590900 0.702426 -0.127837
C14   C     C_R   0.664136 0.614404 0.773851 -0.130331
C15   C     C_R   0.777686 0.717788 0.813583 0.020538
C16   C     C_R   0.861846 0.231481 0.605362 0.532230
C17   C     C_R   0.903446 0.810053 0.778695 -0.124426
C18   C     C_R   0.925258 0.787407 0.709369 -0.125116
C19   C     C_R   0.820489 0.672745 0.671430 0.025178
C20   C     C_R   0.387879 0.601705 0.293736 -0.142872
C21   C     C_R   0.401893 0.607688 0.221249 -0.137202
C22   C     C_R   0.373179 0.698188 0.181562 0.032279
C23   C     C_R   0.284283 0.543725 0.720627 -0.165838
C24   C     C_R   0.337552 0.789083 0.216166 -0.156891
C25   C     C_R   0.320912 0.781316 0.289704 -0.140999
C26   C     C_R   0.339007 0.681915 0.327992 0.030848
C27   C     C_R   0.716653 0.100785 0.294679 -0.147348
C28   C     C_R   0.869266 0.636858 0.395741 0.548024
C29   C     C_R   0.705306 0.082761 0.222189 -0.156572
C30   C     C_R   0.826923 0.134742 0.178797 0.065071
C31   C     C_R   0.961751 0.199650 0.209095 0.115017
C32   C     C_R   0.972718 0.219955 0.282485 -0.119494
C33   C     C_R   0.850152 0.173505 0.324904 0.004964
C34   C     C_R   0.304406 0.658763 0.680021 0.010867
C35   C     C_R   0.957981 0.744774 0.279839 -0.126938
C36   C     C_R   0.948046 0.743800 0.207294 -0.131909
C37   C     C_R   0.819111 0.653640 0.174442 0.032487
C38   C     C_R   0.705302 0.551214 0.214752 -0.137133
C39   C     C_R   0.717525 0.547794 0.288314 -0.134559
C40   C     C_R   0.274679 0.636348 0.397595 0.547179
C41   C     C_R   0.842985 0.647993 0.321284 0.036636
C42   C     C_R   0.813914 0.111008 0.897728 0.532414
C43   C     C_R   0.392484 0.699859 0.897646 0.548731
C44   C     C_R   0.771970 0.733913 0.890779 0.572797
C45   C     C_R   0.871860 0.193247 0.831155 -0.030996
C46   C     C_R   0.804463 0.101954 0.103846 0.574351
C47   C     C_R   0.402809 0.707108 0.105964 0.546299
C48   C     C_R   0.798260 0.692717 0.103858 0.555434
C49   C     C_R   0.863026 0.228836 0.396045 0.550700
C50   C     C_R   0.331810 0.785124 0.714425 0.093306
C51   C     C_R   0.338590 0.793428 0.788932 0.185432
C52   C     C_R   0.330166 0.679439 0.827508 0.015503
C53   C     C_3   0.250261 0.899771 0.875766 -0.262665
C54   C     C_3   0.158436 0.175843 0.168433 -0.296261
C55   C     C_R   0.085880 0.176112 0.817587 -0.147691
C56   C     C_R   0.184302 0.165522 0.774042 -0.116907
C57   C     C_R   0.161968 0.144961 0.701101 0.087174
C58   C     C_R   0.041826 0.137238 0.671854 -0.079590
Cr1   Cr    Cr6+3 0.791660 0.390250 0.499930 1.012158
Cr2   Cr    Cr6+3 0.098520 0.708290 0.500540 0.995497
Cr3   Cr    Cr6+3 0.109770 0.401430 0.499480 1.003798
Cr4   Cr    Cr6+3 0.874790 0.925890 0.000070 0.994704
Cr5   Cr    Cr6+3 0.574120 0.948670 0.999300 1.005255
Cr6   Cr    Cr6+3 0.551420 0.625320 0.000920 0.994662
H1    H     H_    0.481577 0.281340 0.730151 0.141134
H2    H     H_    0.320592 0.863380 0.186568 0.107003
H3    H     H_    0.286126 0.846761 0.315905 0.120677
H4    H     H_    0.621354 0.064470 0.326628 0.135052
H5    H     H_    0.600334 0.027995 0.199920 0.145777
H6    H     H_    0.077122 0.279410 0.305403 0.139202
H7    H     H_    0.058001 0.820299 0.303087 0.127830
H8    H     H_    0.039543 0.821187 0.177517 0.118639
H9    H     H_    0.606392 0.477744 0.189883 0.112192
H10   H     H_    0.629673 0.468191 0.319230 0.117637
H11   H     H_    0.283933 0.463212 0.821654 0.147059
H12   H     H_    0.586194 0.181432 0.654611 0.168248
H13   H     H_    0.258824 0.443987 0.696680 0.164902
H14   H     H_    0.277067 0.172288 0.797524 0.116221
H15   H     H_    0.107571 0.193582 0.873827 0.130808
H16   H     H_    0.022103 0.109030 0.616362 0.131497
H17   H     H_    0.761727 0.335852 0.897162 0.127678
H18   H     H_    0.426125 0.925218 0.633953 0.230281
H19   H     H_    0.256758 0.883506 0.654207 0.266993
H20   H     H_    0.399189 0.008379 0.795176 0.288529
H21   H     H_    0.196764 0.956241 0.857574 0.119927
H22   H     H_    0.300537 0.946276 0.927385 0.155337
H23   H     H_    0.564577 0.356140 0.852289 0.119328
H24   H     H_    0.168931 0.787194 0.884026 0.153569
H25   H     H_    0.153326 0.360932 0.174136 0.255981
H26   H     H_    0.200689 0.181434 0.222508 0.115396
H27   H     H_    0.248150 0.220804 0.129818 0.134858
H28   H     H_    0.085570 0.064081 0.154070 0.184193
H29   H     H_    0.210172 0.052544 0.621039 0.223310
H30   H     H_    0.311847 0.228022 0.624850 0.223152
H31   H     H_    0.601238 0.507136 0.672574 0.116441
H32   H     H_    0.561744 0.548520 0.798568 0.125041
H33   H     H_    0.989474 0.895826 0.806200 0.149549
H34   H     H_    0.029506 0.855690 0.687485 0.150513
H35   H     H_    0.404982 0.526208 0.322153 0.124890
H36   H     H_    0.434065 0.539234 0.196326 0.134403
N1    N     N_3   0.353415 0.905572 0.675160 -0.638515
N2    N     N_2   0.358312 0.917351 0.824520 -0.477371
N3    N     N_2   0.085623 0.254927 0.165703 -0.506741
N4    N     N_3   0.263904 0.136914 0.656022 -0.658319
O1    O     O_R   0.766500 0.250040 0.579790 -0.534779
O2    O     O_R   0.413330 0.603360 0.920440 -0.545535
O3    O     O_R   0.676110 0.626250 0.926750 -0.509754
O4    O     O_R   0.798570 0.516780 0.574780 -0.497349
O5    O     O_R   0.895350 0.809870 0.080950 -0.532219
O6    O     O_R   0.872490 0.049760 0.073800 -0.479284
O7    O     O_R   0.691680 0.088070 0.079070 -0.539763
O8    O     O_R   0.451720 0.825250 0.074050 -0.512321
O9    O     O_R   0.413580 0.606370 0.080960 -0.526562
O10   O     O_R   0.676340 0.629040 0.075550 -0.503572
O11   O     O_3   0.666780 0.833290 0.000090 -0.267887
O12   O     O_R   0.218690 0.701900 0.425960 -0.508235
O13   O     O_R   0.984000 0.732950 0.581090 -0.541848
O14   O     O_R   0.218600 0.700890 0.574760 -0.511644
O15   O     O_R   0.249390 0.515350 0.579940 -0.527327
O16   O     O_R   0.982790 0.280900 0.573700 -0.505666
O17   O     O_R   0.766600 0.251130 0.419260 -0.518798
O18   O     O_R   0.798660 0.517790 0.425980 -0.503860
O19   O     O_R   0.984100 0.734040 0.420570 -0.529222
O20   O     O_R   0.249490 0.516440 0.419420 -0.527393
O21   O     O_R   0.982880 0.281910 0.424890 -0.508546
O22   O     O_3   0.999980 0.499990 0.499980 -0.238095
O23   O     O_R   0.895110 0.806860 0.920430 -0.535658
O24   O     O_R   0.872260 0.046970 0.925000 -0.524260
O25   O     O_R   0.691430 0.085060 0.918550 -0.502076
O26   O     O_R   0.451490 0.822460 0.925250 -0.469477

loop_
_geom_bond_atom_site_label_1
_geom_bond_atom_site_label_2
_ccdc_geom_bond_type
Cr1   O17   S    
C55   C56   A    
C44   O23   A    
C6    C45   A    
C27   C29   A    
H20   N2    S    
C35   C36   A    
C25   H3    S    
C28   O19   A    
C7    C8    A    
C39   C41   A    
C27   C33   A    
C51   N2    S    
Cr4   O5    S    
C12   C23   A    
C29   C30   A    
C13   H31   S    
Cr3   O20   S    
C5    C6    A    
C36   C37   A    
C15   C44   S    
C54   H26   S    
C16   O16   A    
C30   C31   A    
C28   O18   A    
C43   C52   S    
Cr5   O26   S    
Cr3   O15   S    
C33   C49   S    
C47   O8    A    
C28   C41   S    
C56   H14   S    
C56   C57   A    
C15   C17   A    
C18   C19   A    
C39   H10   S    
Cr5   O8    S    
C27   H4    S    
C3    C55   A    
C8    C9    A    
C4    O15   A    
Cr2   O14   S    
C53   H22   S    
C42   O25   A    
C9    C10   A    
C58   H16   S    
Cr5   O11   S    
Cr1   O18   S    
C22   C47   S    
C35   H7    S    
C8    H1    S    
Cr6   O11   S    
C13   C14   A    
H25   N3    S    
Cr3   O16   S    
C4    O14   A    
C2    C11   A    
H29   N4    S    
C14   H32   S    
C12   C52   A    
C50   C51   A    
C29   H5    S    
C38   C39   A    
C40   O20   A    
C4    C34   S    
C34   C50   A    
Cr6   O10   S    
C13   C19   A    
C51   C52   A    
C54   N3    S    
C24   C25   A    
C5    C7    A    
C21   H36   S    
C32   H6    S    
C25   C26   A    
C1    C19   S    
C3    C45   A    
Cr1   O22   S    
C42   C45   S    
C31   N3    S    
Cr2   O19   S    
C54   H28   S    
C37   C38   A    
C55   H15   S    
C11   C16   S    
C46   O7    A    
C31   C32   A    
Cr4   O6    S    
C53   N2    S    
C23   C34   A    
C49   O17   A    
C20   C21   A    
C17   C18   A    
Cr2   O13   S    
Cr1   O1    S    
C23   H13   S    
C37   C48   S    
Cr6   O2    S    
C1    O13   A    
Cr3   O22   S    
C16   O1    A    
C46   O6    A    
C22   C24   A    
Cr2   O12   S    
Cr6   O3    S    
C48   O10   A    
C44   O3    A    
C47   O9    A    
C57   N4    S    
Cr6   O9    S    
H19   N1    S    
C30   C46   S    
C43   O26   A    
C6    C10   A    
Cr3   O21   S    
C2    C58   A    
C5    C11   A    
C7    H12   S    
C42   O24   A    
C49   O21   A    
C10   H17   S    
Cr1   O4    S    
C32   C33   A    
Cr2   O22   S    
C2    C3    A    
C54   H27   S    
C9    H23   S    
Cr4   O24   S    
C26   C40   S    
C57   C58   A    
C40   O12   A    
C20   H35   S    
C20   C26   A    
H18   N1    S    
C48   O5    A    
C53   H24   S    
Cr5   O25   S    
Cr5   O7    S    
C35   C41   A    
C1    O4    A    
H30   N4    S    
Cr4   O23   S    
Cr4   O11   S    
C24   H2    S    
C50   N1    S    
C12   H11   S    
C14   C15   A    
C53   H21   S    
C18   H34   S    
C21   C22   A    
C17   H33   S    
C43   O2    A    
C36   H8    S    
C38   H9    S    
