data_mof_unit_41817.cif
_audit_creation_date              2013-03-05T16:41:46-0500
_audit_creation_method            fapswitch 2.2
_symmetry_space_group_name_H-M    P1
_symmetry_Int_Tables_number       1
_space_group_crystal_system       triclinic
_cell_length_a                    10.531971
_cell_length_b                    10.705079
_cell_length_c                    9.871659
_cell_angle_alpha                 89.18124
_cell_angle_beta                  89.618214
_cell_angle_gamma                 91.669997
_cell_volume                      1112.37170564

loop_
_atom_site_label
_atom_site_type_symbol
_atom_site_description
_atom_site_fract_x
_atom_site_fract_y
_atom_site_fract_z
_atom_type_partial_charge
O1    O     O_R   0.500020 0.316790 0.614690 -0.631879
O2    O     O_R   0.500000 0.316760 0.385350 -0.582100
C1    C     C_R   0.512010 0.260697 0.500410 0.916430
O3    O     O_R   0.316770 0.500020 0.614690 -0.614890
O4    O     O_R   0.316760 0.499980 0.385350 -0.502154
C2    C     C_R   0.261740 0.521023 0.500153 0.940104
Zn1   Zn    Zn3+2 0.500010 0.500020 0.653130 1.003724
Zn2   Zn    Zn3+2 0.499990 0.499980 0.346870 1.086235
O5    O     O_R   0.500000 0.683240 0.614650 -0.594905
O6    O     O_R   0.499980 0.683210 0.385310 -0.640744
O7    O     O_R   0.683240 0.500020 0.614650 -0.586936
O8    O     O_R   0.683230 0.499980 0.385310 -0.551272
C3    C     C_R   0.501618 0.740429 0.499003 0.892517
C4    C     C_R   0.739468 0.521377 0.498560 0.934974
C5    C     C_R   0.130353 0.644810 0.734685 -0.037830
H1    H     H_    0.232293 0.651515 0.741801 0.209088
C6    C     C_R   0.062855 0.687597 0.845691 -0.219970
H2    H     H_    0.113026 0.717141 0.935624 0.173574
C7    C     C_R   0.932926 0.703369 0.836620 -0.073253
H3    H     H_    0.883348 0.747496 0.918759 0.189266
C8    C     C_R   0.869572 0.676018 0.716620 0.483039
C9    C     C_R   0.933789 0.614376 0.610341 -0.057263
C10   C     C_R   0.066956 0.604613 0.616409 0.008589
C11   C     C_R   0.131736 0.565547 0.498393 -0.213381
C12   C     C_R   0.071326 0.578768 0.372448 0.379455
C13   C     C_R   0.939109 0.572383 0.369423 0.217907
C14   C     C_R   0.871394 0.569443 0.493277 -0.312342
C15   C     C_R   0.530798 0.062424 0.622479 -0.089630
C16   C     C_R   0.543236 0.130540 0.501594 -0.225443
C17   C     C_R   0.578104 0.067368 0.382021 0.310832
C18   C     C_R   0.564382 0.937078 0.380973 -0.255023
H4    H     H_    0.584007 0.887117 0.288834 0.211942
C19   C     C_R   0.522303 0.872592 0.498256 -0.137658
C20   C     C_R   0.517844 0.935070 0.620089 0.028490
C21   C     C_3   0.418913 0.931925 0.730220 0.806221
C22   C     C_3   0.437965 0.073085 0.737065 0.121517
H5    H     H_    0.352679 0.126750 0.710554 0.112658
C23   C     C_R   0.460496 0.395651 0.073349 0.228060
N1    N     N_R   0.499160 0.499140 0.142800 -0.085192
C24   C     C_R   0.549578 0.598365 0.070049 -0.019627
H6    H     H_    0.585681 0.679802 0.122269 0.181581
C25   C     C_R   0.551938 0.597036 0.926518 -0.044465
H7    H     H_    0.593008 0.675636 0.871687 0.215320
N2    N     N_R   0.499160 0.499180 0.857150 -0.107113
C26   C     C_R   0.456037 0.397827 0.930963 0.009908
C27   C     C_3   0.324174 0.340052 0.932705 0.188884
C28   C     C_3   0.335273 0.326933 0.086070 0.127118
H8    H     H_    0.314026 0.249097 0.882979 0.150637
H9    H     H_    0.345428 0.229151 0.123720 0.127694
O9    O     O_3   0.143322 0.600429 0.256194 -0.683362
H10   H     H_    0.089408 0.630742 0.181682 0.362493
O10   O     O_3   0.452745 0.865412 0.848038 -0.739027
H11   H     H_    0.543510 0.885066 0.867414 0.361634
O11   O     O_3   0.498014 0.110017 0.857277 -0.727881
H12   H     H_    0.550001 0.186425 0.835511 0.368415
O12   O     O_3   0.230507 0.422853 0.890223 -0.690232
H13   H     H_    0.246303 0.504350 0.934848 0.370180
O13   O     O_3   0.244304 0.392972 0.156730 -0.656560
H14   H     H_    0.166468 0.338482 0.158861 0.374280
O14   O     O_3   0.753112 0.728292 0.699095 -0.788446
H15   H     H_    0.745008 0.750377 0.601855 0.319701
N3    N     N_R   0.875340 0.571605 0.241650 0.212958
O15   O     O_R   0.893589 0.481979 0.156641 -0.340353
O16   O     O_R   0.815647 0.670179 0.202284 -0.452178
N4    N     N_R   0.624679 0.132605 0.262596 0.211488
O17   O     O_R   0.708930 0.223228 0.273395 -0.343712
O18   O     O_R   0.600068 0.088541 0.143140 -0.363692
O19   O     O_3   0.298537 0.895103 0.682839 -0.808313
H16   H     H_    0.237708 0.912958 0.756784 0.339915

loop_
_geom_bond_atom_site_label_1
_geom_bond_atom_site_label_2
_geom_bond_distance
_ccdc_geom_bond_type
C7    C8    1.394019 A    
O4    Zn2   1.964319 S    
N3    O16   1.299998 A    
C10   C11   1.420428 A    
C18   C19   1.402098 A    
C11   C12   1.407602 A    
C3    C19   1.425103 S    
C16   C17   1.420207 A    
Zn2   N1    2.014734 S    
C4    C14   1.467864 S    
O11   H12   0.991117 S    
C18   H4    1.083479 S    
C7    H3    1.083027 S    
N4    O18   1.301205 A    
Zn2   O8    1.969310 S    
C2    C11   1.462980 S    
C8    C9    1.424755 A    
C24   C25   1.417224 A    
C19   C20   1.385676 A    
C13   C14   1.410826 A    
C15   C20   1.366742 A    
C28   H9    1.114112 S    
O1    Zn1   2.003179 S    
Zn1   N2    2.013867 S    
O12   H13   0.993163 S    
C28   O13   1.396034 S    
Zn1   O7    1.964318 S    
C1    C16   1.440831 S    
C23   C28   1.494951 S    
N3    O15   1.301268 A    
C25   N2    1.366346 A    
C21   O19   1.401966 S    
O3    Zn1   1.969311 S    
O4    C2    1.295003 A    
C5    C10   1.415006 A    
C15   C16   1.392980 A    
C6    C7    1.386984 A    
O8    C4    1.288935 A    
C6    H2    1.082561 S    
O2    C1    1.285755 A    
C9    C14   1.416421 A    
C9    C10   1.411034 A    
C13   N3    1.432958 S    
C17   C18   1.398233 A    
C20   C21   1.500172 S    
O7    C4    1.300717 A    
C27   H8    1.099425 S    
O13   H14   0.992109 S    
C17   N4    1.437702 S    
C22   O11   1.404770 S    
C25   H7    1.072708 S    
O5    C3    1.287463 A    
C5    H1    1.076767 S    
C26   C27   1.503603 S    
N1    C24   1.366120 A    
C23   N1    1.364675 A    
O10   H11   0.993244 S    
C15   C22   1.497967 S    
C8    O14   1.373892 S    
O3    C2    1.293808 A    
N4    O17   1.301506 A    
C27   O12   1.407337 S    
C21   O10   1.408300 S    
C5    C6    1.392440 A    
Zn1   O5    1.992496 S    
C27   C28   1.524049 S    
C22   H5    1.110970 S    
C23   C26   1.406569 A    
C24   H6    1.080029 S    
O9    H10   0.989075 S    
C12   C13   1.392730 A    
C12   O9    1.384305 S    
O19   H16   0.992324 S    
Zn2   O6    2.003180 S    
O2    Zn2   1.992496 S    
N2    C26   1.363339 A    
C21   C22   1.521106 S    
O14   H15   0.990157 S    
O1    C1    1.292706 A    
O6    C3    1.286253 A    
