data_mof_unit_13920.cif
_audit_creation_date              2013-03-05T15:52:19-0500
_audit_creation_method            fapswitch 2.2
_symmetry_space_group_name_H-M    P1
_symmetry_Int_Tables_number       1
_space_group_crystal_system       triclinic
_cell_length_a                    14.796427
_cell_length_b                    15.477316
_cell_length_c                    10.00587
_cell_angle_alpha                 90.561798
_cell_angle_beta                  88.637685
_cell_angle_gamma                 89.572956
_cell_volume                      2290.60852427

loop_
_atom_site_label
_atom_site_type_symbol
_atom_site_description
_atom_site_fract_x
_atom_site_fract_y
_atom_site_fract_z
_atom_type_partial_charge
O1    O     O_R   0.408390 0.908380 0.614690 -0.616985
O2    O     O_R   0.408390 0.091620 0.614690 -0.609328
O3    O     O_R   0.908390 0.408380 0.614690 -0.618005
O4    O     O_R   0.908390 0.591620 0.614690 -0.633525
O5    O     O_R   0.408370 0.908380 0.385360 -0.628310
O6    O     O_R   0.408370 0.091620 0.385360 -0.621116
O7    O     O_R   0.908370 0.408380 0.385360 -0.598578
O8    O     O_R   0.908370 0.591620 0.385360 -0.630906
C1    C     C_R   0.388502 0.873416 0.501496 0.885688
C2    C     C_R   0.393003 0.129198 0.499157 0.869985
C3    C     C_R   0.889050 0.373311 0.499357 0.857607
C4    C     C_R   0.890201 0.627631 0.502472 0.886942
Zn1   Zn    Zn3+2 0.500010 0.000000 0.653130 1.013445
Zn2   Zn    Zn3+2 0.000010 0.500000 0.653130 1.000422
Zn3   Zn    Zn3+2 0.499980 1.000000 0.346870 0.986882
Zn4   Zn    Zn3+2 0.999980 0.500000 0.346870 0.991907
O9    O     O_R   0.591620 0.091610 0.614640 -0.574264
O10   O     O_R   0.591620 0.908390 0.614640 -0.567563
O11   O     O_R   0.091620 0.591610 0.614640 -0.565128
O12   O     O_R   0.091620 0.408390 0.614640 -0.577142
O13   O     O_R   0.591610 0.091610 0.385310 -0.565535
O14   O     O_R   0.591610 0.908390 0.385310 -0.595740
O15   O     O_R   0.091610 0.591610 0.385310 -0.609147
O16   O     O_R   0.091610 0.408390 0.385310 -0.551147
C5    C     C_R   0.617932 0.123250 0.501618 0.922937
C6    C     C_R   0.620451 0.879419 0.497728 0.965665
C7    C     C_R   0.120805 0.619720 0.498418 0.966196
C8    C     C_R   0.118599 0.376836 0.500264 0.925536
C9    C     C_R   0.399183 0.281075 0.691351 -0.162921
C10   C     C_R   0.311658 0.787283 0.757191 -0.114192
C11   C     C_R   0.819708 0.720003 0.759186 -0.145104
C12   C     C_R   0.889922 0.237071 0.704792 -0.142749
H1    H     H_    0.467629 0.261926 0.665611 0.199846
H2    H     H_    0.379810 0.804145 0.782263 0.202503
H3    H     H_    0.888630 0.703241 0.781170 0.196134
H4    H     H_    0.957253 0.260090 0.683592 0.203089
C13   C     C_R   0.380321 0.327213 0.808276 -0.161519
C14   C     C_R   0.250554 0.770296 0.862494 -0.164058
C15   C     C_R   0.757841 0.726877 0.866478 -0.185630
C16   C     C_R   0.872288 0.194038 0.822474 -0.153780
H5    H     H_    0.434502 0.341830 0.875636 0.202783
H6    H     H_    0.273661 0.770656 0.964237 0.171643
H7    H     H_    0.780756 0.717109 0.967317 0.163742
H8    H     H_    0.925537 0.186654 0.894087 0.203873
C17   C     C_R   0.665701 0.736257 0.841689 0.236437
C18   C     C_R   0.783996 0.169972 0.854271 0.170578
C19   C     C_R   0.290589 0.346173 0.844321 0.162865
C20   C     C_R   0.158414 0.763299 0.836086 0.229974
C21   C     C_R   0.639135 0.750184 0.709174 0.296615
C22   C     C_R   0.715079 0.181223 0.759978 0.341758
C23   C     C_R   0.221099 0.327006 0.754051 0.358734
C24   C     C_R   0.133273 0.754271 0.702284 0.293130
C25   C     C_R   0.705586 0.764837 0.608381 -0.034397
C26   C     C_R   0.739384 0.204478 0.626465 -0.028714
C27   C     C_R   0.244788 0.301011 0.620714 -0.030499
C28   C     C_R   0.200812 0.740223 0.603312 -0.039053
C29   C     C_R   0.330081 0.262610 0.603464 -0.001397
C30   C     C_R   0.284502 0.776171 0.623605 0.046849
C31   C     C_R   0.790917 0.731148 0.626948 0.064547
C32   C     C_R   0.822242 0.246723 0.610883 -0.000127
C33   C     C_R   0.347395 0.212960 0.491005 -0.154875
C34   C     C_R   0.337925 0.793287 0.508527 -0.113556
C35   C     C_R   0.842394 0.709918 0.510878 -0.110299
C36   C     C_R   0.838371 0.293544 0.496285 -0.162696
C37   C     C_R   0.307802 0.237437 0.372169 0.115466
C38   C     C_R   0.333911 0.736325 0.398027 0.128711
C39   C     C_R   0.834913 0.761349 0.396985 0.124899
C40   C     C_R   0.801602 0.265409 0.377872 0.132810
C41   C     C_R   0.760356 0.817002 0.390081 0.255020
C42   C     C_R   0.717486 0.225990 0.385643 0.245500
C43   C     C_R   0.222593 0.275891 0.379662 0.264780
C44   C     C_R   0.263688 0.675878 0.396967 0.254373
C45   C     C_R   0.692184 0.814923 0.493174 -0.195749
C46   C     C_R   0.687146 0.190665 0.508104 -0.189978
C47   C     C_R   0.190744 0.311210 0.503487 -0.203741
C48   C     C_R   0.192252 0.683377 0.494066 -0.190738
H9    H     H_    0.639973 0.999433 0.119942 0.217390
H10   H     H_    0.133531 0.539294 0.120773 0.220842
C49   C     C_R   0.331177 0.969547 0.131479 0.228320
C50   C     C_R   0.837829 0.458982 0.139030 0.250225
C51   C     C_R   0.268765 0.932077 0.045067 -0.290369
C52   C     C_R   0.781251 0.399838 0.076684 -0.260513
H11   H     H_    0.207706 0.903052 0.085539 0.177654
H12   H     H_    0.719203 0.380444 0.125943 0.232406
C53   C     C_R   0.267309 0.959708 0.913464 -0.218479
C54   C     C_R   0.790319 0.385027 0.940627 -0.217392
H13   H     H_    0.204656 0.955325 0.859932 0.190086
H14   H     H_    0.735005 0.352787 0.892318 0.207991
C55   C     C_R   0.336153 0.012820 0.867368 0.258207
C56   C     C_R   0.843920 0.442296 0.867842 0.273749
C57   C     C_R   0.419405 0.004765 0.930652 0.043705
C58   C     C_R   0.923015 0.474463 0.929920 0.045923
C59   C     C_R   0.417695 0.995224 0.073615 0.093005
C60   C     C_R   0.921663 0.478575 0.073736 0.095880
N1    N     N_R   0.498810 1.000000 0.142780 -0.120399
N2    N     N_R   0.998810 0.500000 0.142780 -0.115219
C61   C     C_R   0.577035 0.998582 0.068904 -0.116046
C62   C     C_R   0.073278 0.522285 0.069617 -0.149544
C63   C     C_R   0.577291 0.992506 0.927273 0.330521
C64   C     C_R   0.073824 0.522738 0.928133 0.314043
N3    N     N_R   0.498740 0.000000 0.857170 -0.125381
N4    N     N_R   0.998740 0.500000 0.857170 -0.122162
C65   C     C_3   0.365788 0.244684 0.246430 -0.770441
H15   H     H_    0.376281 0.314247 0.226153 0.249480
H16   H     H_    0.434578 0.217474 0.257530 0.285648
H17   H     H_    0.334650 0.212946 0.159463 0.237380
C66   C     C_3   0.407763 0.733107 0.290179 -0.742953
H18   H     H_    0.434943 0.666479 0.277783 0.267943
H19   H     H_    0.380362 0.755200 0.193861 0.231420
H20   H     H_    0.467499 0.772214 0.315120 0.244437
C67   C     C_3   0.909741 0.763553 0.290538 -0.745436
H21   H     H_    0.932853 0.830899 0.275627 0.268170
H22   H     H_    0.971195 0.727540 0.319248 0.243314
H23   H     H_    0.885065 0.737194 0.194599 0.227648
C68   C     C_3   0.868578 0.237947 0.269267 -0.769883
H24   H     H_    0.856320 0.170013 0.238746 0.242587
H25   H     H_    0.866912 0.280832 0.182759 0.256650
H26   H     H_    0.939003 0.239021 0.305607 0.259458
C69   C     C_3   0.303092 0.102535 0.838710 -0.782544
H27   H     H_    0.264247 0.103400 0.745142 0.246284
H28   H     H_    0.257852 0.126601 0.921578 0.248412
H29   H     H_    0.360550 0.147634 0.834191 0.263353
C70   C     C_3   0.786339 0.502036 0.787259 -0.789810
H30   H     H_    0.780131 0.482772 0.681417 0.255212
H31   H     H_    0.715909 0.507092 0.828557 0.218484
H32   H     H_    0.812825 0.566655 0.798107 0.238292
Br1   Br    Br    0.691027 0.968760 0.839374 -0.468370
Br2   Br    Br    0.186893 0.549842 0.843074 -0.498805
C71   C     C_3   0.598842 0.730675 0.956851 -0.840475
H33   H     H_    0.617412 0.777441 0.036354 0.258688
H34   H     H_    0.528968 0.746603 0.927298 0.258586
H35   H     H_    0.600035 0.664444 0.998456 0.240769
C72   C     C_3   0.765095 0.143531 0.994801 -0.764177
H36   H     H_    0.811565 0.090592 0.023742 0.260600
H37   H     H_    0.775323 0.200931 0.057354 0.261278
H38   H     H_    0.695126 0.122303 0.011815 0.291758
C73   C     C_3   0.271785 0.380578 0.982541 -0.720426
H39   H     H_    0.290157 0.330587 0.053173 0.248855
H40   H     H_    0.312807 0.439054 0.001308 0.265622
H41   H     H_    0.199851 0.396630 0.001614 0.291825
C74   C     C_3   0.089911 0.764727 0.949485 -0.855416
H42   H     H_    0.081669 0.831554 0.989104 0.242155
H43   H     H_    0.023206 0.741139 0.917168 0.255948
H44   H     H_    0.112611 0.721959 0.030841 0.245447
Br3   Br    Br    0.521731 0.716331 0.653895 -0.581795
Br4   Br    Br    0.596069 0.207962 0.832273 -0.585160
Br5   Br    Br    0.106291 0.293578 0.831627 -0.554161
Br6   Br    Br    0.019356 0.796192 0.645136 -0.582605
Br7   Br    Br    0.759075 0.897028 0.243185 -0.550201
Br8   Br    Br    0.637700 0.239929 0.238034 -0.580135
Br9   Br    Br    0.147838 0.265286 0.224647 -0.538392
Br10  Br    Br    0.274864 0.577667 0.276656 -0.543003
C75   C     C_3   0.280075 0.018680 0.241116 -0.711621
H45   H     H_    0.294923 0.087379 0.232595 0.253485
H46   H     H_    0.205442 0.017851 0.228982 0.207924
H47   H     H_    0.288102 0.993199 0.342140 0.250061
C76   C     C_3   0.786045 0.526184 0.219755 -0.781703
H48   H     H_    0.814753 0.591186 0.202648 0.235991
H49   H     H_    0.715212 0.532342 0.185821 0.209224
H50   H     H_    0.781017 0.507947 0.326406 0.259001

loop_
_geom_bond_atom_site_label_1
_geom_bond_atom_site_label_2
_geom_bond_distance
_ccdc_geom_bond_type
C30   C34   1.409500 A    
C17   C71   1.504305 S    
C76   H48   1.108235 S    
C28   C48   1.405131 A    
C56   C70   1.505476 S    
C67   H21   1.109787 S    
O10   C6    1.309430 A    
O3    C3    1.309186 A    
C38   C66   1.517611 S    
C44   C48   1.421894 A    
C25   C31   1.379781 A    
C70   H30   1.103515 S    
C26   C32   1.399920 A    
C16   C18   1.391577 A    
C73   H40   1.110447 S    
O5    C1    1.314557 A    
C22   C26   1.425507 A    
Zn1   O10   1.982902 S    
C36   C40   1.383286 A    
C49   C59   1.452176 A    
C74   H43   1.109171 S    
Zn3   N1    2.042583 S    
C54   H14   1.082896 S    
Zn2   N4    2.041237 S    
C57   C59   1.439146 A    
C68   H24   1.109437 S    
C9    H1    1.077714 S    
C6    C45   1.451249 S    
C10   C14   1.400145 A    
C5    C46   1.469514 S    
O8    Zn4   1.983011 S    
C11   C31   1.411436 A    
O2    Zn1   2.000842 S    
C60   N2    1.388849 A    
C51   H11   1.083634 S    
O6    Zn3   1.983011 S    
C26   C46   1.444554 A    
C65   H16   1.107075 S    
Zn3   O14   2.000833 S    
C38   C44   1.403508 A    
C55   C69   1.501311 S    
C28   C30   1.379927 A    
C42   Br8   1.925352 S    
C44   Br10  1.933377 S    
N2    C62   1.356914 A    
H10   C62   1.071770 S    
C72   H38   1.098429 S    
C66   H18   1.108812 S    
C41   C45   1.426263 A    
O15   C7    1.293500 A    
C13   C19   1.395837 A    
O11   C7    1.310320 A    
O4    C4    1.291605 A    
C16   H8    1.083684 S    
C14   C20   1.399644 A    
C58   N4    1.383833 A    
C15   C17   1.398254 A    
C71   H35   1.110336 S    
C27   C47   1.444492 A    
C22   Br4   1.928246 S    
C69   H28   1.112732 S    
C24   Br6   1.904167 S    
O4    Zn2   2.000842 S    
C66   H19   1.110452 S    
C57   N3    1.371360 A    
C58   C60   1.439442 A    
C61   C63   1.419250 A    
C53   H13   1.083848 S    
C15   H7    1.083667 S    
C73   H41   1.102939 S    
C35   C39   1.402509 A    
Zn4   N2    2.042583 S    
C10   H2    1.078232 S    
C1    C34   1.454678 S    
Zn2   O12   1.982902 S    
O1    C1    1.291680 A    
C50   C52   1.397491 A    
C3    C36   1.449690 S    
C54   C56   1.393102 A    
C74   H44   1.110796 S    
C49   C51   1.404566 A    
C4    C35   1.452963 S    
C34   C38   1.409963 A    
C70   H32   1.082306 S    
C19   C23   1.415796 A    
O12   C8    1.293057 A    
C68   H25   1.096550 S    
C52   C54   1.381535 A    
C39   C41   1.397983 A    
C65   H17   1.106726 S    
C76   H49   1.113054 S    
O7    C3    1.294729 A    
C42   C46   1.411567 A    
C49   C75   1.512967 S    
C56   C58   1.428463 A    
C23   Br5   1.927229 S    
O8    C4    1.313782 A    
C68   H26   1.111981 S    
C19   C73   1.496245 S    
C64   N4    1.378666 A    
C17   C21   1.410033 A    
C21   Br3   1.910953 S    
C67   H22   1.108172 S    
C75   H47   1.097382 S    
H9    C61   1.072791 S    
O3    Zn2   2.009800 S    
C39   C67   1.518768 S    
O7    Zn4   2.002764 S    
C63   N3    1.376483 A    
C9    C29   1.393769 A    
Zn4   O15   2.009789 S    
C52   H12   1.077690 S    
C27   C29   1.397227 A    
C72   H36   1.110721 S    
C66   H20   1.106963 S    
C11   H3    1.078663 S    
C2    C33   1.460958 S    
C75   H46   1.113973 S    
C37   C65   1.511441 S    
C50   C60   1.424228 A    
C7    C48   1.450635 S    
O2    C2    1.322942 A    
C12   H4    1.077582 S    
C43   Br9   1.932749 S    
C71   H33   1.110979 S    
C69   H29   1.104403 S    
O13   C5    1.326300 A    
C53   C55   1.386977 A    
C64   Br2   1.910249 S    
Zn2   O11   2.002651 S    
C25   C45   1.412506 A    
O16   C8    1.323229 A    
O6    C2    1.288099 A    
C63   Br1   1.911749 S    
C69   H27   1.110304 S    
N1    C61   1.358380 A    
C29   C33   1.374305 A    
C76   H50   1.107438 S    
C73   H39   1.090287 S    
C18   C22   1.416553 A    
C31   C35   1.408425 A    
Zn1   O9    2.002651 S    
C32   C36   1.379396 A    
C41   Br7   1.931708 S    
O9    C5    1.289589 A    
C37   C43   1.390275 A    
C74   H42   1.108863 S    
C18   C72   1.489011 S    
C43   C47   1.418122 A    
C50   C76   1.504508 S    
C59   N1    1.401693 A    
Zn3   O13   2.009789 S    
C21   C25   1.412785 A    
C10   C30   1.414118 A    
C11   C15   1.396929 A    
C20   C74   1.503266 S    
C67   H23   1.110160 S    
C23   C27   1.424718 A    
C12   C16   1.378975 A    
C13   H5    1.083298 S    
C62   C64   1.415593 A    
O5    Zn3   2.002764 S    
C70   H31   1.113796 S    
C40   C68   1.509006 S    
C14   H6    1.081569 S    
C33   C37   1.392567 A    
C20   C24   1.403958 A    
O1    Zn1   2.009800 S    
Zn4   O16   2.000833 S    
C55   C57   1.403657 A    
O14   C6    1.295492 A    
C9    C13   1.386249 A    
C65   H15   1.108934 S    
C72   H37   1.095227 S    
C40   C42   1.391045 A    
C12   C32   1.397623 A    
C75   H45   1.091079 S    
C8    C47   1.469134 S    
Zn1   N3    2.041237 S    
C51   C53   1.389096 A    
C24   C28   1.404331 A    
C71   H34   1.108746 S    
