data_mof_unit_58329.cif
_audit_creation_date              2012-12-11T16:06:23-0500
_audit_creation_method            fapswitch 2.2
_symmetry_space_group_name_H-M    P1
_symmetry_Int_Tables_number       1
_space_group_crystal_system       triclinic
_cell_length_a                    8.204888
_cell_length_b                    12.63826
_cell_length_c                    17.395697
_cell_angle_alpha                 94.476941
_cell_angle_beta                  95.994215
_cell_angle_gamma                 97.949166
_cell_volume                      1768.90262661

loop_
_atom_site_label
_atom_site_type_symbol
_atom_type_description
_atom_site_fract_x
_atom_site_fract_y
_atom_site_fract_z
_atom_type_partial_charge
Ba1   Ba    Ba6+2 0.158660 0.552610 0.463110 1.653345
Ba2   Ba    Ba6+2 0.651510 0.447380 0.536830 1.643572
C1    C     C_3   0.413699 0.815086 0.170949 -0.290822
C2    C     C_3   0.416445 0.782726 0.253383 0.384061
C3    C     C_3   0.562547 0.775495 0.645781 0.277263
C4    C     C_3   0.563167 0.895539 0.659950 -0.333997
C5    C     C_3   0.889901 0.153729 0.714925 0.336042
C6    C     C_3   0.950305 0.067554 0.762238 -0.396432
C7    C     C_3   0.400566 0.211639 0.750249 0.355427
C8    C     C_3   0.432603 0.180459 0.832536 -0.345093
C9    C     C_R   0.075578 0.184746 0.532928 -0.283706
C10   C     C_R   0.723661 0.817822 0.477414 -0.281438
C11   C     C_R   0.694701 0.998016 0.446231 -0.083471
C12   C     C_3   0.884168 0.826339 0.219747 0.820483
C13   C     C_R   0.628243 0.889784 0.445151 -0.004717
C14   C     C_R   0.883566 0.851677 0.514216 0.063557
C15   C     C_R   0.949098 0.963701 0.520935 -0.053947
C16   C     C_R   0.853742 0.038012 0.485458 -0.055880
C17   C     C_R   0.920270 0.149894 0.491377 0.061319
C18   C     C_R   0.171859 0.112569 0.564143 -0.012155
C19   C     C_R   0.107744 0.003604 0.560452 -0.097794
C20   C     C_R   0.600502 0.543166 0.278781 -0.275975
C21   C     C_R   0.444150 0.485002 0.254870 0.059724
C22   C     C_R   0.383155 0.471182 0.175634 -0.118533
C23   C     C_3   0.872089 0.883405 0.298864 -0.299074
C24   C     C_R   0.481107 0.513715 0.120454 -0.006506
C25   C     C_R   0.642347 0.567141 0.144998 -0.125730
C26   C     C_R   0.701897 0.581028 0.224292 -0.024838
C27   C     C_R   0.414136 0.521606 0.835369 -0.109685
C28   C     C_R   0.358599 0.511920 0.755762 0.033112
C29   C     C_R   0.096730 0.414247 0.779858 0.011432
C30   C     C_R   0.151169 0.422973 0.859718 -0.131121
C31   C     C_R   0.311529 0.475775 0.887671 -0.000793
C32   C     C_1   0.368752 0.487759 0.970018 0.011896
C33   C     C_1   0.419050 0.499110 0.038623 0.013875
C34   C     C_3   0.747974 0.314416 0.303985 0.302676
C35   C     C_R   0.203358 0.454717 0.728333 -0.284105
C36   C     C_3   0.713963 0.284633 0.216794 -0.343820
C37   C     C_3   0.056776 0.681155 0.695303 0.295124
C38   C     C_3   0.095447 0.710127 0.782485 -0.378395
C39   C     C_3   0.246940 0.230320 0.374184 0.271169
C40   C     C_3   0.201006 0.110460 0.354102 -0.339020
H1    H     H_    0.323043 0.710047 0.253164 0.088369
H2    H     H_    0.605191 0.220535 0.203490 0.141334
H3    H     H_    0.688041 0.355397 0.186551 0.052612
H4    H     H_    0.823704 0.255438 0.194861 0.156745
H5    H     H_    0.163595 0.650791 0.672376 0.011804
H6    H     H_    0.947027 0.617976 0.684349 0.073506
H7    H     H_    0.211872 0.767983 0.795285 0.139051
H8    H     H_    0.110016 0.637566 0.812701 0.066571
H9    H     H_    0.992526 0.746986 0.805079 0.137176
H10   H     H_    0.138832 0.263221 0.393863 0.008036
H11   H     H_    0.351388 0.245099 0.421349 0.078091
H12   H     H_    0.286187 0.825089 0.147855 0.199650
H13   H     H_    0.087501 0.095197 0.311847 0.168067
H14   H     H_    0.176821 0.069849 0.406615 0.065647
H15   H     H_    0.303831 0.077247 0.328515 0.177946
H16   H     H_    0.541409 0.763089 0.271815 -0.105912
H17   H     H_    0.454752 0.751695 0.132920 0.062814
H18   H     H_    0.690508 0.760048 0.639640 0.014435
H19   H     H_    0.480599 0.747325 0.590981 0.059119
H20   H     H_    0.635198 0.926255 0.716541 0.126877
H21   H     H_    0.619523 0.937164 0.613241 0.069282
H22   H     H_    0.434321 0.912603 0.660990 0.136863
H23   H     H_    0.498146 0.891512 0.169960 0.155794
H24   H     H_    0.794971 0.948639 0.293456 0.092931
H25   H     H_    0.790191 0.115831 0.669024 0.080191
H26   H     H_    0.995564 0.190163 0.686034 -0.051409
H27   H     H_    0.988555 0.003965 0.723238 0.090066
H28   H     H_    0.057714 0.103596 0.804706 0.117775
H29   H     H_    0.267274 0.218752 0.738386 -0.075351
H30   H     H_    0.476010 0.290717 0.746688 0.090120
H31   H     H_    0.393826 0.240757 0.874073 0.070712
H32   H     H_    0.566537 0.177071 0.847498 0.160015
H33   H     H_    0.760883 0.784018 0.194151 -0.142779
H34   H     H_    0.361234 0.100543 0.837743 0.119242
H35   H     H_    0.619660 0.049380 0.416622 0.106531
H36   H     H_    0.184527 0.951255 0.587634 0.099596
H37   H     H_    0.126732 0.268885 0.537020 0.066359
H38   H     H_    0.671789 0.733917 0.474503 0.066796
H39   H     H_    0.534529 0.566898 0.856571 0.087605
H40   H     H_    0.721836 0.596243 0.102852 0.096433
H41   H     H_    0.068527 0.390877 0.899656 0.083539
H42   H     H_    0.261773 0.425578 0.157002 0.093270
H43   H     H_    0.648082 0.552228 0.339702 0.069627
H44   H     H_    0.160775 0.448546 0.666908 0.062887
H45   H     H_    0.814171 0.824582 0.335223 -0.003726
H46   H     H_    0.997248 0.915806 0.328235 0.133934
H47   H     H_    0.635888 0.339459 0.325437 0.001157
H48   H     H_    0.852305 0.381625 0.315530 0.068174
O1    O     O_2   0.163080 0.763400 0.536930 -0.464501
O2    O     O_3   0.291389 0.276074 0.307466 -0.625159
O3    O     O_3   0.003412 0.756671 0.226766 -0.595462
O4    O     O_2   0.647210 0.236530 0.463040 -0.472600
O5    O     O_3   0.916960 0.371010 0.461280 -0.495853
O6    O     O_3   0.430470 0.302400 0.600330 -0.481645
O7    O     O_3   0.787451 0.224219 0.339306 -0.630488
O8    O     O_3   0.388290 0.554800 0.590630 -0.479678
O9    O     O_3   0.856660 0.356630 0.638500 -0.477585
O10   O     O_2   0.757319 0.423155 0.773470 -0.490156
O11   O     O_3   0.825244 0.227202 0.764172 -0.587735
O12   O     O_3   0.893330 0.628980 0.538660 -0.492655
O13   O     O_3   0.422000 0.445190 0.409310 -0.494171
O14   O     O_2   0.648720 0.552000 0.685060 -0.460724
O15   O     O_3   0.505659 0.726272 0.709482 -0.636996
O16   O     O_2   0.509078 0.113400 0.554293 -0.491358
O17   O     O_3   0.445223 0.133155 0.697986 -0.597002
O18   O     O_3   0.379830 0.697590 0.399610 -0.489615
O19   O     O_2   0.283665 0.884149 0.441206 -0.480494
O20   O     O_3   0.025814 0.773574 0.660787 -0.645230
O21   O     O_3   0.378727 0.867275 0.302679 -0.574634
O22   O     O_2   0.161570 0.447940 0.314920 -0.454317
O23   O     O_3   0.953630 0.643360 0.361440 -0.472477
O24   O     O_2   0.027151 0.556039 0.226835 -0.483827
P1    P     P_3+3 0.990420 0.746550 0.559720 0.976017
P2    P     P_3+3 0.330880 0.415450 0.326700 0.990006
P3    P     P_3+3 0.918609 0.635259 0.259262 0.947042
P4    P     P_3+3 0.819870 0.253440 0.440220 0.975062
P5    P     P_3+3 0.883681 0.357627 0.739860 0.964511
P6    P     P_3+3 0.417455 0.836868 0.398804 0.973542
P7    P     P_3+3 0.473502 0.587032 0.687419 0.950349
P8    P     P_3+3 0.388189 0.163662 0.603420 0.946392
H49   H     H_    0.850852 0.031353 0.794823 0.141864
S1    S     S_3+6 0.944900 0.921897 0.153822 -0.079006
O25   O     O_2   0.945360 0.863899 0.075076 -0.292424
O26   O     O_2   0.824205 0.001086 0.148355 -0.330543
O27   O     O_3   0.135858 0.987272 0.184741 -0.534514
H50   H     H_    0.157672 0.040899 0.147080 0.361463

loop_
_geom_bond_atom_site_label_1
_geom_bond_atom_site_label_2
_ccdc_geom_bond_type
C34   H47   S    
O8    P7    S    
O4    P4    D    
C39   C40   S    
O18   P6    S    
C7    H30   S    
Ba2   P4    S    
C5    C6    S    
C3    O15   S    
C36   H2    S    
C9    C17   A    
C6    H27   S    
Ba1   O23   S    
C11   C16   A    
C37   H5    S    
Ba2   O5    S    
C22   C24   A    
C16   C17   A    
C26   P3    S    
Ba1   O22   S    
C3    C4    S    
C32   C33   T    
C1    H12   S    
Ba2   O12   S    
C38   H7    S    
C27   C31   A    
C23   H45   S    
C13   P6    S    
Ba1   Ba2   S    
C20   H43   S    
C4    H22   S    
O7    P4    S    
C36   H3    S    
O12   P1    S    
C40   H14   S    
C5    H26   S    
C8    H34   S    
C37   O20   S    
C10   C14   A    
C17   P4    S    
C14   C15   A    
C19   H36   S    
C21   C22   A    
C28   P7    S    
C34   O7    S    
Ba1   P2    S    
Ba1   O12   S    
C7    C8    S    
Ba1   O13   S    
C12   O3    S    
C18   P8    S    
C21   P2    S    
Ba1   O1    S    
C20   C26   A    
C1    H23   S    
O3    P3    S    
C40   H15   S    
C31   C32   S    
O5    P4    S    
C11   H35   S    
C9    C18   A    
C12   S1    S    
C3    H19   S    
O11   P5    S    
C35   H44   S    
Ba2   O4    S    
C37   C38   S    
O14   P7    D    
C5    H25   S    
C23   H46   S    
C15   C19   A    
C29   C35   A    
C28   C35   A    
O21   P6    S    
C4    H21   S    
C27   H39   S    
C27   C28   A    
C40   H13   S    
C29   C30   A    
C10   C13   A    
Ba2   O14   S    
Ba1   O5    S    
C29   P5    S    
O16   P8    D    
C15   C16   A    
C24   C25   A    
O15   P7    S    
O10   P5    D    
O2    P2    S    
C39   H11   S    
C9    H37   S    
S1    O27   S    
O23   P3    S    
C2    O21   S    
Ba2   O9    S    
C11   C13   A    
O27   H50   S    
C14   P1    S    
O22   P2    D    
S1    O26   D    
C34   H48   S    
C30   H41   S    
C39   H10   S    
C3    H18   S    
C25   H40   S    
C23   H24   S    
C7    H29   S    
Ba1   O8    S    
C6    H49   S    
C2    H1    S    
C7    O17   S    
C38   H9    S    
C6    H28   S    
O6    P8    S    
C12   H33   S    
C4    H20   S    
C34   C36   S    
O13   P2    S    
C22   H42   S    
C30   C31   A    
C8    H32   S    
Ba2   O13   S    
C38   H8    S    
C10   H38   S    
Ba2   O6    S    
C8    H31   S    
O1    P1    D    
C12   C23   S    
C36   H4    S    
O24   P3    D    
Ba1   O18   S    
O9    P5    S    
C24   C33   S    
C39   O2    S    
C18   C19   A    
Ba2   O8    S    
C5    O11   S    
C2    H16   S    
C25   C26   A    
C20   C21   A    
S1    O25   D    
Ba1   P1    S    
O17   P8    S    
O20   P1    S    
C1    C2    S    
O19   P6    D    
C37   H6    S    
C1    H17   S    
