data_mof_unit_8815.cif
_audit_creation_date              2012-12-10T18:33:32-0500
_audit_creation_method            fapswitch 2.2
_symmetry_space_group_name_H-M    P1
_symmetry_Int_Tables_number       1
_space_group_crystal_system       triclinic
_cell_length_a                    8.730195
_cell_length_b                    15.10245
_cell_length_c                    13.869494
_cell_angle_alpha                 89.74967
_cell_angle_beta                  97.940312
_cell_angle_gamma                 90.177676
_cell_volume                      1811.10054655

loop_
_atom_site_label
_atom_site_type_symbol
_atom_type_description
_atom_site_fract_x
_atom_site_fract_y
_atom_site_fract_z
_atom_type_partial_charge
C1    C     C_R   0.499191 0.329932 0.500162 0.796251
C2    C     C_R   0.499320 0.670118 0.499695 0.797200
C3    C     C_R   0.571450 0.568485 0.113827 -0.284681
C4    C     C_R   0.381416 0.458251 0.881968 -0.285499
C5    C     C_R   0.571074 0.566846 0.215257 0.075376
C6    C     C_R   0.384269 0.458404 0.780772 0.078876
C7    C     C_R   0.428928 0.433229 0.203473 0.080818
C8    C     C_R   0.615727 0.541587 0.800459 0.081435
C9    C     C_R   0.428598 0.431634 0.102010 -0.284596
C10   C     C_R   0.618551 0.541854 0.902155 -0.284822
C11   C     C_R   0.500016 0.500071 0.054674 0.132541
C12   C     C_R   0.499986 0.500073 0.945305 0.132546
C13   C     C_R   0.203690 0.499962 0.475108 0.884880
C14   C     C_R   0.796314 0.500014 0.524900 0.886085
C15   C     C_2   0.037885 0.499986 0.461382 -0.369332
C16   C     C_2   0.962127 0.499955 0.538653 -0.375561
C17   C     C_R   0.406289 0.096133 0.567209 0.173774
C18   C     C_R   0.413966 0.903868 0.413899 0.173998
C19   C     C_R   0.414923 0.188749 0.566950 -0.231593
C20   C     C_R   0.422367 0.811280 0.415967 -0.237782
C21   C     C_R   0.494902 0.233524 0.500627 -0.050123
C22   C     C_R   0.495170 0.766613 0.498404 -0.051004
C23   C     C_R   0.570598 0.186075 0.435174 -0.198463
C24   C     C_R   0.563837 0.814300 0.579107 -0.191920
C25   C     C_R   0.567233 0.094264 0.436237 -0.216044
C26   C     C_R   0.560325 0.906108 0.577447 -0.215710
C27   C     C_R   0.482842 0.048629 0.499797 0.095613
C28   C     C_R   0.482985 0.951542 0.496792 0.095743
Cu1   Cu    Cu3+1 0.500000 0.499990 0.596430 0.935246
Cu2   Cu    Cu3+1 0.500000 0.500010 0.403570 0.933295
H1    H     H_    0.977916 0.500063 0.387260 0.176115
H2    H     H_    0.022087 0.499879 0.612781 0.168856
H3    H     H_    0.356508 0.226438 0.617303 0.139456
H4    H     H_    0.369427 0.773553 0.353758 0.145304
H5    H     H_    0.634946 0.220032 0.384628 0.149639
H6    H     H_    0.622774 0.780568 0.642670 0.146231
H7    H     H_    0.631041 0.058458 0.387250 0.133552
H8    H     H_    0.618573 0.942079 0.639414 0.132814
H9    H     H_    0.625873 0.623954 0.082379 0.126068
H10   H     H_    0.285253 0.426386 0.909696 0.126421
H11   H     H_    0.627577 0.619667 0.259162 0.121994
H12   H     H_    0.292797 0.425281 0.733772 0.115550
H13   H     H_    0.372346 0.380392 0.237970 0.123438
H14   H     H_    0.707212 0.574629 0.768987 0.117371
H15   H     H_    0.374195 0.376174 0.061600 0.126382
H16   H     H_    0.714699 0.573751 0.946284 0.126694
N1    N     N_R   0.500000 0.500020 0.258690 -0.172790
N2    N     N_R   0.500000 0.499980 0.741310 -0.170628
O1    O     O_R   0.500010 0.371450 0.581430 -0.584615
O2    O     O_R   0.499990 0.628550 0.418570 -0.597158
O3    O     O_R   0.500010 0.371460 0.418560 -0.595312
O4    O     O_R   0.499990 0.628540 0.581440 -0.583357
O5    O     O_R   0.274840 0.499990 0.562640 -0.587042
O6    O     O_R   0.725160 0.500010 0.437360 -0.577299
O7    O     O_R   0.274840 0.500000 0.399770 -0.587616
O8    O     O_R   0.725160 0.500000 0.600230 -0.598282
C29   C     C_3   0.316588 0.051426 0.640393 -0.418682
C30   C     C_3   0.166091 0.009585 0.592219 -0.826188
H17   H     H_    0.095541 0.059102 0.546351 0.249765
H18   H     H_    0.189832 0.952037 0.547328 0.265902
H19   H     H_    0.098269 0.985593 0.649246 0.238617
H20   H     H_    0.388382 0.000852 0.683322 0.201100
H21   H     H_    0.286205 0.100403 0.694268 0.195001
C31   C     C_3   0.332767 0.948376 0.322458 -0.416811
C32   C     C_3   0.179366 0.990192 0.338229 -0.834235
H22   H     H_    0.104660 0.940688 0.368723 0.250005
H23   H     H_    0.198712 0.047828 0.387601 0.265549
H24   H     H_    0.118162 0.014050 0.267421 0.236991
H25   H     H_    0.408403 0.998919 0.295075 0.199662
H26   H     H_    0.307730 0.899290 0.262788 0.194990

loop_
_geom_bond_atom_site_label_1
_geom_bond_atom_site_label_2
_ccdc_geom_bond_type
C25   H7    S    
C2    C22   S    
C14   O8    A    
Cu2   O3    S    
C8    N2    A    
C13   O5    A    
C1    C21   S    
Cu1   Cu2   S    
Cu1   O8    S    
C7    H13   S    
C4    C12   A    
C5    N1    A    
Cu2   O7    S    
C23   H5    S    
C3    C11   A    
C11   C12   S    
C32   H24   S    
C20   H4    S    
C31   C32   S    
Cu2   O6    S    
C30   H19   S    
C13   C15   S    
Cu2   O2    S    
C3    C5    A    
C3    H9    S    
C29   H20   S    
C4    H10   S    
Cu1   O1    S    
C31   H25   S    
C15   H1    S    
C1    O3    A    
C18   C31   S    
C29   C30   S    
C24   H6    S    
C2    O4    A    
C9    H15   S    
C10   C12   A    
C22   C24   A    
C4    C6    A    
C26   C28   A    
C19   C21   A    
C24   C26   A    
C29   H21   S    
C18   C20   A    
C9    C11   A    
C21   C23   A    
C6    H12   S    
C25   C27   A    
C31   H26   S    
C14   C16   S    
C16   H2    S    
Cu1   N2    S    
C30   H18   S    
C15   C16   D    
C17   C27   A    
C8    H14   S    
Cu2   N1    S    
C23   C25   A    
C18   C28   A    
C8    C10   A    
C32   H22   S    
C19   H3    S    
C7    N1    A    
C17   C29   S    
C27   C28   S    
C7    C9    A    
C5    H11   S    
C17   C19   A    
C2    O2    A    
C14   O6    A    
C30   H17   S    
C10   H16   S    
C1    O1    A    
C26   H8    S    
C32   H23   S    
Cu1   O5    S    
C20   C22   A    
C13   O7    A    
Cu1   O4    S    
C6    N2    A    
