data_mof_unit_37685.cif
_audit_creation_date              2012-10-26T18:53:18-0400
_audit_creation_method            fapswitch 2.2
_symmetry_space_group_name_H-M    P1
_symmetry_Int_Tables_number       1
_space_group_crystal_system       triclinic
_cell_length_a                    14.703638
_cell_length_b                    14.67032
_cell_length_c                    15.871258
_cell_angle_alpha                 76.887972
_cell_angle_beta                  102.794867
_cell_angle_gamma                 114.982424
_cell_volume                      2991.55080124

loop_
_atom_site_label
_atom_site_type_symbol
_atom_type_description
_atom_site_fract_x
_atom_site_fract_y
_atom_site_fract_z
_atom_type_partial_charge
C1    C     C_R   0.880178 0.311761 0.514558 0.551241
C2    C     C_R   0.187669 0.795614 0.488528 -0.003911
C3    C     C_R   0.782682 0.024378 0.570229 -0.085528
C4    C     C_R   0.999695 0.499974 0.659686 0.553263
C5    C     C_R   0.849487 0.124859 0.549844 0.237768
C6    C     C_R   0.708304 0.177357 0.520615 -0.185917
C7    C     C_R   0.639547 0.076283 0.539612 -0.028145
C8    C     C_R   0.677947 0.998428 0.564502 0.021403
C9    C     C_R   0.533672 0.050805 0.532121 0.028338
C10   C     C_R   0.466915 0.947003 0.539942 -0.009688
C11   C     C_R   0.507480 0.871988 0.572210 -0.139572
C12   C     C_3   0.021699 0.408304 0.072168 -0.214158
C13   C     C_R   0.612618 0.895863 0.583905 0.269942
C14   C     C_R   0.491954 0.125209 0.518107 -0.127827
C15   C     C_R   0.387778 0.098404 0.505174 -0.135328
C16   C     C_R   0.119830 0.687974 0.487247 0.543821
C17   C     C_R   0.321575 0.997394 0.502294 0.052767
C18   C     C_R   0.360632 0.920977 0.517785 0.033740
C19   C     C_R   0.216616 0.971896 0.483294 -0.137987
C20   C     C_R   0.149894 0.871395 0.477262 -0.139926
C21   C     C_R   0.292363 0.821380 0.506752 -0.136362
C22   C     C_R   0.717707 0.671564 0.357957 -0.157759
C23   C     C_3   0.000171 0.499426 0.082926 0.071200
C24   C     C_R   0.798736 0.641255 0.380288 0.041645
C25   C     C_R   0.713503 0.507328 0.486641 0.035977
C26   C     C_R   0.627859 0.533838 0.466614 -0.000918
C27   C     C_R   0.632295 0.618498 0.400991 0.042261
C28   C     C_R   0.000203 0.499848 0.340332 0.545646
C29   C     C_R   0.539293 0.480637 0.509357 0.015762
C30   C     C_R   0.457372 0.514487 0.486169 0.013042
C31   C     C_R   0.466324 0.599577 0.420459 -0.154672
C32   C     C_R   0.551914 0.650117 0.378889 -0.127597
C33   C     C_R   0.529732 0.394693 0.574202 -0.152537
C34   C     C_3   0.082669 0.599184 0.044896 -0.214187
C35   C     C_R   0.444246 0.344313 0.615949 -0.142213
C36   C     C_R   0.364866 0.377370 0.595238 0.030695
C37   C     C_R   0.369549 0.462358 0.529922 -0.005117
C38   C     C_R   0.280602 0.325996 0.639856 -0.162616
C39   C     C_R   0.201015 0.358380 0.619474 0.046369
C40   C     C_3   0.021188 0.408461 0.974379 -0.213402
C41   C     C_R   0.285354 0.490967 0.511884 0.020615
C42   C     C_3   0.895118 0.491113 0.931952 -0.214129
C43   C     C_3   0.895620 0.490944 0.029739 -0.213141
C44   C     C_1   0.000637 0.499500 0.250783 -0.042023
C45   C     C_3   0.082159 0.599349 0.947116 -0.213294
C46   C     C_3   0.999317 0.499698 0.917157 0.070056
C47   C     C_3   0.591135 0.721134 0.623983 0.016047
C48   C     C_3   0.558106 0.685002 0.715110 -0.274006
C49   C     C_3   0.481151 0.575251 0.723952 -0.478792
C50   C     C_3   0.976812 0.155821 0.472766 0.029704
C51   C     C_3   0.969133 0.053991 0.455531 -0.283404
C52   C     C_3   0.003331 0.065661 0.368258 -0.491212
C53   C     C_1   0.000587 0.499362 0.175209 -0.080416
C54   C     C_1   0.998971 0.499869 0.824865 -0.077452
C55   C     C_1   0.999066 0.499978 0.749269 -0.035419
C56   C     C_R   0.812515 0.202918 0.527784 -0.009863
Cu1   Cu    Cu3+1 0.081750 0.475690 0.522550 0.932130
Cu2   Cu    Cu3+1 0.918250 0.524310 0.477450 0.926613
H1    H     H_    0.963287 0.335543 0.098936 0.111129
H2    H     H_    0.456955 0.795618 0.592615 0.093255
H3    H     H_    0.186335 0.029830 0.473139 0.106940
H4    H     H_    0.555327 0.715155 0.328924 0.107459
H5    H     H_    0.281118 0.553001 0.462157 0.120746
H6    H     H_    0.135263 0.317978 0.653005 0.154004
H7    H     H_    0.722018 0.736465 0.307642 0.087151
H8    H     H_    0.865098 0.682617 0.347637 0.122791
H9    H     H_    0.717999 0.445785 0.536878 0.117647
H10   H     H_    0.877653 0.555995 0.891610 0.116750
H11   H     H_    0.408427 0.629792 0.399546 0.091659
H12   H     H_    0.096616 0.412721 0.109700 0.114498
H13   H     H_    0.587168 0.363825 0.594384 0.090245
H14   H     H_    0.276113 0.260889 0.689965 0.097431
H15   H     H_    0.834185 0.419922 0.911022 0.113341
H16   H     H_    0.834921 0.419669 0.055715 0.114139
H17   H     H_    0.878375 0.555740 0.036299 0.114964
H18   H     H_    0.068058 0.666182 0.907058 0.116919
H19   H     H_    0.158682 0.607020 0.081932 0.113613
H20   H     H_    0.095860 0.412932 0.965009 0.114722
H21   H     H_    0.634391 0.677135 0.617734 0.163128
H22   H     H_    0.526714 0.703471 0.569926 0.126828
H23   H     H_    0.068821 0.665943 0.051737 0.113864
H24   H     H_    0.625785 0.690724 0.765041 0.167866
H25   H     H_    0.524349 0.734109 0.728713 0.164719
H26   H     H_    0.410969 0.568983 0.677399 0.165077
H27   H     H_    0.461367 0.550452 0.791331 0.143888
H28   H     H_    0.513409 0.524469 0.711035 0.161989
H29   H     H_    0.056690 0.211191 0.472068 0.167153
H30   H     H_    0.930503 0.187663 0.418581 0.117361
H31   H     H_    0.017270 0.024345 0.508926 0.171141
H32   H     H_    0.889464 0.997843 0.454171 0.158973
H33   H     H_    0.953974 0.092203 0.313776 0.146603
H34   H     H_    0.319589 0.762892 0.509604 0.115117
H35   H     H_    0.998168 0.991082 0.358116 0.144813
H36   H     H_    0.083100 0.121167 0.367549 0.143876
H37   H     H_    0.537637 0.204892 0.519269 0.102706
H38   H     H_    0.440508 0.278819 0.665458 0.110568
H39   H     H_    0.157934 0.607281 0.937247 0.114631
H40   H     H_    0.069113 0.853122 0.463827 0.126101
H41   H     H_    0.358967 0.157584 0.495011 0.114463
H42   H     H_    0.813935 0.966579 0.589547 0.175308
H43   H     H_    0.682124 0.238146 0.498326 0.133247
H44   H     H_    0.962525 0.335772 0.954234 0.114496
N1    N     N_R   0.795410 0.560790 0.443550 -0.230489
N2    N     N_R   0.204590 0.439170 0.556520 -0.240519
O1    O     O_R   0.977910 0.338120 0.529720 -0.463898
O2    O     O_3   0.951579 0.145506 0.556560 -0.567138
O3    O     O_R   0.839850 0.379180 0.491640 -0.520397
O4    O     O_R   0.069060 0.479460 0.639610 -0.496994
O5    O     O_R   0.931000 0.520530 0.601530 -0.496021
O6    O     O_R   0.160150 0.620820 0.508360 -0.512713
O7    O     O_R   0.022090 0.661880 0.470280 -0.505426
O8    O     O_R   0.069000 0.479470 0.398470 -0.504252
O9    O     O_R   0.930940 0.520540 0.360390 -0.494401
O10   O     O_3   0.657608 0.824896 0.615652 -0.592598

loop_
_geom_bond_atom_site_label_1
_geom_bond_atom_site_label_2
_ccdc_geom_bond_type
C47   O10   S    
Cu1   O1    S    
C4    O5    A    
C8    C13   A    
C18   C21   A    
C5    C56   A    
C35   C36   A    
C25   H9    S    
C47   H21   S    
C16   O6    A    
C7    C8    A    
C45   C46   S    
C28   O8    A    
C40   C46   S    
C39   H6    S    
C4    O4    A    
C12   C23   S    
C26   C27   A    
C45   H18   S    
C49   H26   S    
C36   C37   A    
C1    C56   S    
C10   C18   A    
C51   H32   S    
C30   C31   A    
Cu1   O8    S    
Cu2   O5    S    
C29   C33   A    
C23   C43   S    
C7    C9    A    
Cu2   O3    S    
C42   C46   S    
C6    H43   S    
C17   C19   A    
C12   H1    S    
C3    H42   S    
Cu1   O6    S    
Cu2   O9    S    
C52   H36   S    
C34   H23   S    
C2    C16   S    
C9    C10   A    
C13   O10   S    
C50   H30   S    
C43   H16   S    
C42   H10   S    
C47   H22   S    
C44   C53   T    
C23   C53   S    
C5    O2    S    
C43   H17   S    
C38   H14   S    
C2    C20   A    
C51   C52   S    
C49   H27   S    
C39   N2    A    
C3    C8    A    
C28   O9    A    
C15   H41   S    
C25   N1    A    
C50   C51   S    
C25   C26   A    
C35   H38   S    
C28   C44   S    
Cu2   O7    S    
C30   C37   A    
C12   C40   S    
C9    C14   A    
C22   H7    S    
C29   C30   A    
C47   C48   S    
C23   C34   S    
C46   C54   S    
C2    C21   A    
C17   C18   A    
C52   H35   S    
C34   C45   S    
C50   H29   S    
C1    O3    A    
C48   C49   S    
C22   C27   A    
C4    C55   S    
C40   H20   S    
C42   C43   S    
C41   H5    S    
C11   H2    S    
C14   H37   S    
C15   C17   A    
Cu1   N2    S    
C12   H12   S    
C54   C55   T    
C42   H15   S    
C27   C32   A    
C49   H28   S    
C31   C32   A    
C6    C56   A    
C3    C5    A    
C48   H25   S    
C6    C7    A    
C24   H8    S    
C41   N2    A    
C24   N1    A    
C19   C20   A    
C36   C38   A    
C32   H4    S    
C34   H19   S    
C45   H39   S    
C51   H31   S    
C11   C13   A    
Cu1   Cu2   S    
C38   C39   A    
C19   H3    S    
C33   C35   A    
C48   H24   S    
C22   C24   A    
C37   C41   A    
C10   C11   A    
C33   H13   S    
C40   H44   S    
C31   H11   S    
Cu1   O4    S    
C20   H40   S    
C26   C29   A    
C50   O2    S    
C14   C15   A    
C52   H33   S    
Cu2   N1    S    
C16   O7    A    
C1    O1    A    
C21   H34   S    
