data_mof_unit_35177.cif
_audit_creation_date              2012-12-10T18:56:24-0500
_audit_creation_method            fapswitch 2.2
_symmetry_space_group_name_H-M    P1
_symmetry_Int_Tables_number       1
_space_group_crystal_system       triclinic
_cell_length_a                    10.719705
_cell_length_b                    9.818116
_cell_length_c                    19.300759
_cell_angle_alpha                 89.947199
_cell_angle_beta                  90.094324
_cell_angle_gamma                 90.011022
_cell_volume                      2031.34925896

loop_
_atom_site_label
_atom_site_type_symbol
_atom_type_description
_atom_site_fract_x
_atom_site_fract_y
_atom_site_fract_z
_atom_type_partial_charge
C1    C     C_R   0.872604 0.500020 0.500046 -0.012263
C2    C     C_R   0.127392 0.499977 0.499942 -0.011924
C3    C     C_R   0.609885 0.558655 0.964079 -0.129026
C4    C     C_R   0.411991 0.439277 0.036650 -0.116237
C5    C     C_R   0.610430 0.559692 0.035852 -0.173077
C6    C     C_R   0.410954 0.439123 0.964905 -0.140226
C7    C     C_R   0.511451 0.500026 0.071846 0.212194
C8    C     C_R   0.509919 0.498764 0.928715 0.215998
C9    C     C_R   0.259798 0.499990 0.499958 0.870172
C10   C     C_R   0.740201 0.500010 0.500038 0.867246
C11   C     C_R   0.500400 0.500078 0.365665 0.929862
C12   C     C_R   0.500309 0.499924 0.634366 0.929966
C13   C     C_R   0.063907 0.378209 0.512592 -0.196627
C14   C     C_R   0.936088 0.621787 0.487393 -0.197805
C15   C     C_R   0.936119 0.378235 0.512660 -0.196091
C16   C     C_R   0.063877 0.621761 0.487324 -0.194233
C17   C     C_R   0.509273 0.375972 0.745612 -0.308722
C18   C     C_R   0.488963 0.622972 0.254158 -0.307809
C19   C     C_R   0.524074 0.378374 0.254639 -0.295982
C20   C     C_R   0.498704 0.623057 0.745852 -0.307833
C21   C     C_R   0.508474 0.374387 0.817907 0.491916
C22   C     C_R   0.494824 0.624635 0.181929 0.496366
C23   C     C_R   0.529670 0.378351 0.182732 0.490567
C24   C     C_R   0.505437 0.624056 0.818054 0.495459
C25   C     C_R   0.508319 0.499084 0.853577 -0.134385
C26   C     C_R   0.511760 0.501046 0.146737 -0.145451
C27   C     C_R   0.574814 0.071970 0.544615 -0.081051
C28   C     C_R   0.425168 0.928029 0.455397 -0.077882
C29   C     C_R   0.425164 0.072090 0.455401 -0.076713
C30   C     C_R   0.574808 0.927907 0.544617 -0.079410
C31   C     C_R   0.502420 0.499655 0.709682 -0.172048
C32   C     C_R   0.504247 0.500408 0.290443 -0.177210
H1    H     H_    0.634563 0.126679 0.580231 0.123077
H2    H     H_    0.365401 0.873318 0.419791 0.124548
H3    H     H_    0.365392 0.126894 0.419798 0.129941
H4    H     H_    0.634542 0.873102 0.580244 0.124724
H5    H     H_    0.112577 0.283556 0.522821 0.157381
H6    H     H_    0.887417 0.716440 0.477165 0.157200
H7    H     H_    0.887472 0.283603 0.522948 0.154080
H8    H     H_    0.112523 0.716393 0.477037 0.154361
H9    H     H_    0.516163 0.280805 0.717621 0.175413
H10   H     H_    0.469757 0.716605 0.281728 0.176427
H11   H     H_    0.535604 0.282920 0.282128 0.182853
H12   H     H_    0.489911 0.718478 0.718142 0.177355
H13   H     H_    0.687019 0.603855 0.936099 0.131802
H14   H     H_    0.335323 0.393401 0.064783 0.141870
H15   H     H_    0.687757 0.605880 0.063369 0.125330
H16   H     H_    0.333086 0.393643 0.937572 0.133366
N1    N     N_R   0.500000 0.857200 0.500000 -0.079083
N2    N     N_R   0.500000 0.142800 0.500000 -0.079756
O1    O     O_R   0.316770 0.614620 0.500000 -0.627094
O2    O     O_R   0.683230 0.385380 0.500000 -0.628078
O3    O     O_R   0.683230 0.614620 0.500000 -0.628429
O4    O     O_R   0.316770 0.385380 0.500000 -0.627955
O5    O     O_R   0.500030 0.614710 0.398180 -0.625448
O6    O     O_R   0.499970 0.385290 0.601820 -0.626046
O7    O     O_R   0.499970 0.614710 0.601820 -0.624209
O8    O     O_R   0.500030 0.385290 0.398180 -0.623908
Zn1   Zn    Zn3+2 0.500000 0.653120 0.500000 0.943310
Zn2   Zn    Zn3+2 0.500000 0.346880 0.500000 0.942961
O9    O     O_3   0.519772 0.253502 0.854793 -0.604818
C33   C     C_3   0.421174 0.164144 0.837737 -0.313075
H17   H     H_    0.440334 0.110676 0.788217 0.163540
H18   H     H_    0.329300 0.217111 0.835368 0.149440
H19   H     H_    0.414376 0.085415 0.878811 0.217446
O10   O     O_3   0.470940 0.742586 0.144585 -0.589682
C34   C     C_3   0.561260 0.842465 0.160386 -0.280148
H20   H     H_    0.657901 0.800714 0.159133 0.131953
H21   H     H_    0.541896 0.890735 0.211268 0.167137
H22   H     H_    0.555794 0.923600 0.120496 0.217080
O11   O     O_3   0.546181 0.257373 0.147290 -0.598723
C35   C     C_3   0.674745 0.227275 0.145995 -0.328439
H23   H     H_    0.710526 0.204687 0.198922 0.157634
H24   H     H_    0.729447 0.311390 0.121953 0.163588
H25   H     H_    0.689259 0.135091 0.113859 0.188703
O12   O     O_3   0.497119 0.744729 0.855196 -0.598139
C36   C     C_3   0.595697 0.832967 0.836759 -0.320642
H26   H     H_    0.575033 0.886104 0.787244 0.161502
H27   H     H_    0.687004 0.779042 0.833614 0.147156
H28   H     H_    0.604803 0.912042 0.877463 0.214752

loop_
_geom_bond_atom_site_label_1
_geom_bond_atom_site_label_2
_ccdc_geom_bond_type
O5    Zn1   S    
C9    O1    A    
C10   O2    A    
O3    Zn1   S    
O4    Zn2   S    
C36   H26   S    
C27   H1    S    
C5    H15   S    
C7    C26   S    
C6    H16   S    
C28   C29   A    
C18   H10   S    
C4    H14   S    
O7    Zn1   S    
O8    Zn2   S    
C23   C26   A    
C10   O3    A    
C2    C13   A    
C22   O10   S    
C33   H18   S    
O2    Zn2   S    
C20   C24   A    
C1    C15   A    
C11   O8    A    
C2    C16   A    
C13   H5    S    
C27   N2    A    
O10   C34   S    
C28   H2    S    
C27   C30   A    
C8    C25   S    
C4    C7    A    
C19   C32   A    
C20   H12   S    
C19   H11   S    
C29   N2    A    
C36   H27   S    
C34   H20   S    
C23   O11   S    
O12   C36   S    
C4    C6    A    
C3    C8    A    
C5    C7    A    
C24   O12   S    
C6    C8    A    
C3    H13   S    
C17   C21   A    
O6    Zn2   S    
C34   H21   S    
C19   C23   A    
C33   H17   S    
C14   H6    S    
C28   N1    A    
C24   C25   A    
C15   H7    S    
C12   O6    A    
C16   H8    S    
C12   O7    A    
C35   H24   S    
C30   N1    A    
C11   C32   S    
C13   C15   A    
C12   C31   S    
C17   C31   A    
C14   C16   A    
O1    Zn1   S    
C11   O5    A    
C36   H28   S    
C21   C25   A    
C33   H19   S    
C18   C22   A    
C21   O9    S    
C1    C10   S    
C35   H23   S    
C3    C5    A    
C9    O4    A    
C29   H3    S    
N1    Zn1   S    
C30   H4    S    
C34   H22   S    
N2    Zn2   S    
O11   C35   S    
C35   H25   S    
O9    C33   S    
C17   H9    S    
C18   C32   A    
C22   C26   A    
C1    C14   A    
C2    C9    S    
C20   C31   A    
