data_mof_unit_23158.cif
_audit_creation_date              2012-12-10T17:20:52-0500
_audit_creation_method            fapswitch 2.2
_symmetry_space_group_name_H-M    P1
_symmetry_Int_Tables_number       1
_space_group_crystal_system       triclinic
_cell_length_a                    14.341726
_cell_length_b                    10.800407
_cell_length_c                    9.607666
_cell_angle_alpha                 90.060627
_cell_angle_beta                  89.953613
_cell_angle_gamma                 92.069557
_cell_volume                      1487.22163341

loop_
_atom_site_label
_atom_site_type_symbol
_atom_type_description
_atom_site_fract_x
_atom_site_fract_y
_atom_site_fract_z
_atom_type_partial_charge
C1    C     C_R   0.497281 0.262613 0.499973 0.767404
C2    C     C_1   0.771149 0.500278 0.499883 -0.189845
C3    C     C_R   0.347561 0.126208 0.644782 -0.302670
C4    C     C_R   0.277082 0.061068 0.715881 -0.323256
C5    C     C_R   0.274189 0.932523 0.715572 0.628183
C6    C     C_R   0.341997 0.867800 0.644493 0.494593
C7    C     C_R   0.416643 0.931915 0.574612 -0.107339
C8    C     C_R   0.418662 0.063371 0.574633 0.038586
C9    C     C_R   0.489846 0.128621 0.499918 -0.033173
C10   C     C_R   0.555167 0.065781 0.422101 -0.183391
C11   C     C_R   0.554143 0.938059 0.422536 -0.215294
C12   C     C_R   0.331174 0.498611 0.500027 0.866940
C13   C     C_R   0.487489 0.870638 0.500178 -0.050283
C14   C     C_R   0.623160 0.664815 0.143840 -0.136169
C15   C     C_R   0.682742 0.745965 0.071766 -0.203015
C16   C     C_R   0.682677 0.746096 0.928455 -0.191327
C17   C     C_R   0.623020 0.665088 0.856247 -0.131047
C18   C     C_R   0.560273 0.581250 0.925244 0.212565
C19   C     C_R   0.560302 0.581154 0.074775 0.211565
C20   C     C_R   0.442678 0.422672 0.073810 -0.045679
C21   C     C_R   0.442698 0.422701 0.926019 -0.028020
C22   C     C_R   0.495237 0.737083 0.500161 0.857690
C23   C     C_R   0.668794 0.500257 0.499935 0.778534
C24   C     C_1   0.228809 0.498675 0.500114 -0.124362
C25   C     C_1   0.143381 0.498980 0.500171 0.026788
C26   C     C_1   0.042704 0.499439 0.500144 0.029136
C27   C     C_1   0.957269 0.499808 0.500062 0.021264
C28   C     C_1   0.856585 0.500141 0.499943 0.000581
Cu1   Cu    Cu3+1 0.499990 0.499990 0.640660 0.974007
Cu2   Cu    Cu3+1 0.500010 0.500010 0.359340 0.944294
H1    H     H_    0.729583 0.809148 0.872429 0.158286
H2    H     H_    0.223359 0.110723 0.769193 0.192807
H3    H     H_    0.607348 0.891401 0.364338 0.132446
H4    H     H_    0.395700 0.359206 0.128838 0.140327
N1    N     N_R   0.500820 0.501210 0.147910 -0.193455
N2    N     N_R   0.500850 0.501290 0.852040 -0.187615
O1    O     O_R   0.499990 0.319640 0.618810 -0.580777
O2    O     O_R   0.500000 0.319660 0.381240 -0.576086
O3    O     O_R   0.376050 0.499990 0.618810 -0.514797
O4    O     O_R   0.376060 0.500010 0.381240 -0.568213
O5    O     O_R   0.500000 0.680340 0.618760 -0.551094
O6    O     O_R   0.500010 0.680360 0.381190 -0.597106
O7    O     O_R   0.623940 0.499990 0.618760 -0.578542
O8    O     O_R   0.623950 0.500010 0.381190 -0.577918
H5    H     H_    0.608822 0.116124 0.363415 0.148661
H6    H     H_    0.629818 0.672535 0.746645 0.185705
H7    H     H_    0.395730 0.359255 0.870913 0.133284
H8    H     H_    0.344158 0.225951 0.643371 0.174968
F1    F     F_    0.203590 0.869803 0.781875 -0.622009
F2    F     F_    0.330413 0.743164 0.640317 -0.644932
H9    H     H_    0.630093 0.672030 0.253410 0.185842
H10   H     H_    0.729675 0.808931 0.127905 0.152955

loop_
_geom_bond_atom_site_label_1
_geom_bond_atom_site_label_2
_ccdc_geom_bond_type
C12   O4    A    
C7    C13   A    
C24   C25   T    
C6    C7    A    
C4    H2    S    
Cu1   Cu2   S    
C9    C10   A    
C12   C24   S    
C14   H9    S    
Cu2   O6    S    
C1    O1    A    
C20   H4    S    
Cu1   O3    S    
C10   H5    S    
C17   C18   A    
C25   C26   S    
Cu2   O4    S    
C7    C8    A    
C21   N2    A    
C19   N1    A    
C15   H10   S    
Cu1   O7    S    
C16   H1    S    
C11   C13   A    
Cu1   N2    S    
C5    F1    S    
C26   C27   T    
C22   O6    A    
Cu2   N1    S    
C12   O3    A    
C4    C5    A    
C1    O2    A    
C13   C22   S    
C3    C8    A    
Cu2   O8    S    
C5    C6    A    
C21   H7    S    
C22   O5    A    
C10   C11   A    
C3    C4    A    
C1    C9    S    
C3    H8    S    
C11   H3    S    
C23   O7    A    
C17   H6    S    
Cu2   O2    S    
C18   C19   A    
Cu1   O1    S    
C2    C23   S    
C14   C15   A    
C16   C17   A    
C2    C28   T    
Cu1   O5    S    
C20   C21   A    
C20   N1    A    
C18   N2    A    
C14   C19   A    
C6    F2    S    
C23   O8    A    
C15   C16   A    
C8    C9    A    
C27   C28   S    
