data_mof_unit_17433.cif
_audit_creation_date              2012-12-10T19:15:20-0500
_audit_creation_method            fapswitch 2.2
_symmetry_space_group_name_H-M    P1
_symmetry_Int_Tables_number       1
_space_group_crystal_system       triclinic
_cell_length_a                    11.017618
_cell_length_b                    9.953395
_cell_length_c                    23.320108
_cell_angle_alpha                 91.18622
_cell_angle_beta                  86.730214
_cell_angle_gamma                 88.242829
_cell_volume                      2551.33627301

loop_
_atom_site_label
_atom_site_type_symbol
_atom_type_description
_atom_site_fract_x
_atom_site_fract_y
_atom_site_fract_z
_atom_type_partial_charge
C1    C     C_R   0.258160 0.502185 0.497997 1.014869
C2    C     C_R   0.531898 0.481507 0.113330 0.694251
C3    C     C_R   0.446213 0.376644 0.239294 0.660007
C4    C     C_R   0.498293 0.498968 0.389442 0.898961
C5    C     C_R   0.466158 0.376396 0.297675 -0.279084
C6    C     C_R   0.485550 0.497592 0.327184 -0.213689
C7    C     C_R   0.485665 0.618822 0.297257 -0.281799
C8    C     C_R   0.466004 0.618847 0.238856 0.670596
C9    C     C_R   0.445718 0.497874 0.209944 -0.007314
C10   C     C_R   0.355870 0.601746 0.762623 0.404529
C11   C     C_R   0.400513 0.603700 0.705342 -0.236821
C12   C     C_R   0.171696 0.522323 0.989271 0.321562
C13   C     C_R   0.467779 0.495933 0.677831 -0.245673
C14   C     C_R   0.484268 0.378774 0.712198 0.252080
C15   C     C_R   0.407964 0.365114 0.762717 0.308295
C16   C     C_R   0.742373 0.498577 0.501014 0.982089
C17   C     C_R   0.363758 0.481941 0.792616 0.010120
C18   C     C_3   0.063572 0.636674 0.528301 0.491752
C19   C     C_3   0.074602 0.385248 0.532800 0.415697
C20   C     C_3   0.922578 0.630579 0.534748 0.722298
C21   C     C_3   0.939357 0.363331 0.525946 0.684757
C22   C     C_3   0.075162 0.497989 0.437024 -0.591532
C23   C     C_R   0.182809 0.496954 0.048064 0.319408
C24   C     C_3   0.120948 0.506112 0.498609 -0.351328
C25   C     C_3   0.879514 0.498517 0.502995 -0.358887
C26   C     C_3   0.933545 0.508734 0.439420 -0.419310
C27   C     C_3   0.378490 0.088228 0.523551 0.784025
C28   C     C_3   0.383205 0.925383 0.528201 0.753819
C29   C     C_3   0.517228 0.076556 0.439547 -0.477707
C30   C     C_3   0.503590 0.916808 0.439275 -0.504817
C31   C     C_3   0.597509 0.075683 0.531953 0.294207
C32   C     C_3   0.610338 0.918806 0.522550 0.537328
C33   C     C_R   0.496576 0.499776 0.612354 1.086800
C34   C     C_R   0.299521 0.495821 0.070500 -0.154962
C35   C     C_R   0.481821 0.484919 0.875938 0.699591
C36   C     C_R   0.265993 0.490521 0.889866 0.756067
C37   C     C_R   0.274575 0.501259 0.950252 -0.177158
C38   C     C_R   0.391037 0.483716 0.972347 -0.090073
C39   C     C_R   0.495574 0.466144 0.934624 -0.174212
C40   C     C_R   0.403632 0.485916 0.032228 -0.123625
C41   C     C_R   0.520743 0.475881 0.053771 -0.213890
C42   C     C_R   0.622907 0.451876 0.015822 0.630231
C43   C     C_R   0.609812 0.433799 0.957006 0.234072
C44   C     C_R   0.316864 0.507850 0.129908 0.705739
F1    F     F_    0.109132 0.658173 0.581225 -0.502370
F2    F     F_    0.427845 0.259089 0.211064 -0.591571
F3    F     F_    0.467006 0.736182 0.210258 -0.592217
F4    F     F_    0.097664 0.410510 0.589384 -0.530076
F5    F     F_    0.879140 0.742518 0.506764 -0.642210
F6    F     F_    0.931389 0.264683 0.483250 -0.647838
F7    F     F_    0.292475 0.118839 0.483994 -0.622884
F8    F     F_    0.285951 0.880111 0.498598 -0.600500
F9    F     F_    0.575977 0.101920 0.589695 -0.556906
F10   F     F_    0.643603 0.854605 0.571028 -0.479202
F11   F     F_    0.735259 0.438876 0.036281 -0.510863
H1    H     H_    0.382198 0.691711 0.683524 0.267175
H2    H     H_    0.684989 0.120352 0.518191 0.162502
H3    H     H_    0.690252 0.898544 0.491737 0.132241
H4    H     H_    0.608882 0.100431 0.420615 0.200013
H5    H     H_    0.580580 0.868560 0.412629 0.205435
H6    H     H_    0.464984 0.281755 0.319751 0.206189
H7    H     H_    0.500180 0.713718 0.318976 0.204414
H8    H     H_    0.002323 0.775562 0.912331 0.400736
H9    H     H_    0.709948 0.507675 0.735414 0.386323
H10   H     H_    0.381861 0.117228 0.877508 0.410361
H11   H     H_    0.849288 0.830534 0.666480 0.407401
H12   H     H_    0.089908 0.723943 0.501745 0.196641
H13   H     H_    0.685107 0.288663 0.592987 0.425012
H14   H     H_    0.029290 0.287976 0.155434 0.404071
H15   H     H_    0.313646 0.142620 0.681012 0.419164
H16   H     H_    0.447119 0.907955 0.677602 0.427743
H17   H     H_    0.622865 0.149442 0.922906 0.359955
H18   H     H_    0.089663 0.808391 0.804258 0.406751
H19   H     H_    0.123454 0.290799 0.518020 0.225480
H20   H     H_    0.113273 0.580461 0.410760 0.231886
H21   H     H_    0.107160 0.401154 0.415768 0.267600
H22   H     H_    0.904216 0.605086 0.420333 0.242966
H23   H     H_    0.898528 0.428633 0.411375 0.257112
H24   H     H_    0.451831 0.122474 0.410529 0.276595
H25   H     H_    0.421224 0.889820 0.416717 0.281396
N1    N     N_R   0.368994 0.486986 0.854300 -0.332166
N2    N     N_R   0.430902 0.496711 0.149540 -0.336384
N3    N     N_3   0.499750 0.138610 0.498760 -0.233800
N4    N     N_3   0.499750 0.861390 0.498760 -0.228179
O1    O     O_R   0.314910 0.616040 0.499990 -0.538469
O2    O     O_2   0.157389 0.479371 0.866835 -0.380211
O3    O     O_2   0.222205 0.536346 0.167824 -0.453653
O4    O     O_2   0.642390 0.471349 0.135395 -0.414450
O5    O     O_2   0.956203 0.516104 0.941157 -0.134710
O6    O     O_2   0.972734 0.679890 0.019749 -0.199770
O7    O     O_3   0.079743 0.729885 0.921510 -0.478539
O8    O     O_2   0.647123 0.270910 0.781848 -0.128313
O9    O     O_2   0.661096 0.190455 0.683899 -0.100296
O10   O     O_3   0.735442 0.432616 0.708425 -0.398424
O11   O     O_2   0.248147 0.177029 0.788430 -0.215157
O12   O     O_R   0.314910 0.383960 0.499990 -0.567216
O13   O     O_2   0.456827 0.095731 0.763313 -0.188875
O14   O     O_3   0.408051 0.205890 0.863799 -0.550447
O15   O     O_2   0.733493 0.630934 0.617007 -0.246900
O16   O     O_2   0.934076 0.569435 0.649343 -0.126322
O17   O     O_3   0.888019 0.818071 0.627266 -0.356548
O18   O     O_2   0.861145 0.138791 0.577396 -0.183237
O19   O     O_2   0.943624 0.297576 0.643136 -0.047151
O20   O     O_3   0.739036 0.359246 0.604049 -0.530897
O21   O     O_2   0.989404 0.544552 0.122699 -0.155282
O22   O     O_2   0.971080 0.369123 0.048527 -0.140524
O23   O     O_R   0.500080 0.616070 0.416130 -0.645521
O24   O     O_3   0.103736 0.314576 0.133246 -0.491619
O25   O     O_2   0.299602 0.320227 0.596452 -0.228609
O26   O     O_2   0.178665 0.131181 0.594584 -0.171893
O27   O     O_3   0.377644 0.127617 0.649908 -0.476900
O28   O     O_2   0.243474 0.923358 0.635266 -0.167724
O29   O     O_2   0.310570 0.721229 0.594863 -0.203859
O30   O     O_3   0.473837 0.868930 0.639576 -0.460798
O31   O     O_2   0.785408 0.409014 0.870211 -0.098631
O32   O     O_2   0.818584 0.279087 0.955583 -0.153714
O33   O     O_3   0.656062 0.198783 0.889358 -0.430520
O34   O     O_R   0.500080 0.383930 0.416130 -0.636427
O35   O     O_2   0.323267 0.774440 0.853168 -0.262755
O36   O     O_2   0.300467 0.867179 0.757989 -0.239320
O37   O     O_3   0.129884 0.718175 0.799396 -0.426625
O38   O     O_R   0.685320 0.616040 0.499970 -0.546446
O39   O     O_R   0.685320 0.383960 0.499970 -0.628558
O40   O     O_R   0.500150 0.616010 0.583820 -0.498729
O41   O     O_R   0.500150 0.383990 0.583820 -0.574973
O42   O     O_2   0.579780 0.506275 0.840643 -0.499567
S1    S     S_3+6 0.039277 0.611582 0.968616 0.166879
S2    S     S_3+6 0.279694 0.746505 0.794325 0.129028
S3    S     S_3+6 0.633634 0.313103 0.721236 0.201435
S4    S     S_3+6 0.380227 0.205707 0.793732 0.130590
S5    S     S_3+6 0.866506 0.656366 0.609237 0.224067
S6    S     S_3+6 0.873930 0.286474 0.589789 0.212210
S7    S     S_3+6 0.055948 0.432837 0.088404 0.176788
S8    S     S_3+6 0.309197 0.171886 0.590689 0.167721
S9    S     S_3+6 0.350004 0.861217 0.600609 0.164928
S10   S     S_3+6 0.723264 0.331975 0.917544 0.205209
Zn1   Zn    Zn3+2 0.500150 0.654960 0.499970 1.115234
Zn2   Zn    Zn3+2 0.500150 0.345040 0.499970 1.055222

loop_
_geom_bond_atom_site_label_1
_geom_bond_atom_site_label_2
_ccdc_geom_bond_type
C28   N4    S    
C28   S9    S    
C11   C13   A    
C41   C42   A    
C22   H21   S    
C35   N1    A    
O16   S5    D    
C7    C8    A    
C7    H7    S    
C12   S1    S    
O39   Zn2   S    
C20   F5    S    
O7    S1    S    
C18   C24   S    
C22   C24   S    
C36   C37   A    
C19   C21   S    
C16   O39   A    
O18   S6    D    
O13   S4    D    
C29   N3    S    
C44   N2    A    
O12   Zn2   S    
C38   C39   A    
C10   S2    S    
C20   C25   S    
C10   C17   A    
O20   S6    S    
C31   N3    S    
C12   C37   A    
C16   O38   A    
O22   S7    D    
C29   H4    S    
C8    C9    A    
C30   H5    S    
H17   O33   S    
O11   S4    D    
O30   S9    S    
C2    O4    S    
C32   H3    S    
C29   C30   S    
O19   S6    D    
C17   N1    S    
C9    N2    S    
C30   H25   S    
O35   S2    D    
C13   C14   A    
H11   O17   S    
C4    O34   A    
C22   H20   S    
O9    S3    D    
C32   F10   S    
C21   F6    S    
H14   O24   S    
C27   F7    S    
C1    O1    A    
C32   N4    S    
C4    O23   A    
C26   H22   S    
C23   S7    S    
O10   S3    S    
O40   Zn1   S    
C34   C44   A    
O37   S2    S    
C4    C6    S    
H15   O27   S    
C19   F4    S    
C12   C23   A    
C36   O2    S    
C18   H12   S    
H16   O30   S    
O23   Zn1   S    
C35   O42   S    
C35   C39   A    
C21   S6    S    
C13   C33   S    
C37   C38   A    
C3    C9    A    
C42   F11   S    
C33   O40   A    
C31   C32   S    
C29   H24   S    
C36   N1    A    
O6    S1    D    
C23   C34   A    
O14   S4    S    
C33   O41   A    
C5    H6    S    
C26   H23   S    
C31   F9    S    
O17   S5    S    
C40   C41   A    
N4    Zn1   S    
H18   O37   S    
C22   C26   S    
C34   C40   A    
O26   S8    D    
C42   C43   A    
C20   S5    S    
O31   S10   D    
C44   O3    S    
C18   F1    S    
O1    Zn1   S    
O21   S7    D    
O5    S1    D    
C16   C25   S    
C15   C17   A    
C21   C25   S    
O25   S8    D    
C27   S8    S    
C19   H19   S    
H13   O20   S    
O38   Zn1   S    
C3    C5    A    
H10   O14   S    
C39   C43   A    
O36   S2    D    
O27   S8    S    
C6    C7    A    
O32   S10   D    
O41   Zn2   S    
C3    F2    S    
O15   S5    D    
C31   H2    S    
C27   N3    S    
O8    S3    D    
C25   C26   S    
C8    F3    S    
H9    O10   S    
O24   S7    S    
C38   C40   A    
C28   F8    S    
C5    C6    A    
C15   S4    S    
C1    O12   A    
C19   C24   S    
C18   C20   S    
C30   N4    S    
C43   S10   S    
C2    N2    A    
C10   C11   A    
C1    C24   S    
O29   S9    D    
H8    O7    S    
C27   C28   S    
C2    C41   A    
C14   C15   A    
O28   S9    D    
O34   Zn2   S    
O33   S10   S    
N3    Zn2   S    
C11   H1    S    
C14   S3    S    
