data_mof_unit_10490.cif
_audit_creation_date              2012-12-11T15:22:34-0500
_audit_creation_method            fapswitch 2.2
_symmetry_space_group_name_H-M    P1
_symmetry_Int_Tables_number       1
_space_group_crystal_system       triclinic
_cell_length_a                    22.793926
_cell_length_b                    7.306077
_cell_length_c                    20.789351
_cell_angle_alpha                 89.852829
_cell_angle_beta                  93.312927
_cell_angle_gamma                 90.177549
_cell_volume                      3456.32508279

loop_
_atom_site_label
_atom_site_type_symbol
_atom_type_description
_atom_site_fract_x
_atom_site_fract_y
_atom_site_fract_z
_atom_type_partial_charge
O1    O     O_R   0.438030 0.494310 0.439340 -0.537603
O2    O     O_R   0.561970 0.994310 0.560660 -0.537409
O3    O     O_R   0.556900 0.822900 0.435960 -0.532056
O4    O     O_R   0.443100 0.322900 0.564040 -0.531639
C1    C     C_R   0.575720 0.656029 0.421344 0.716387
C2    C     C_R   0.424310 0.155333 0.578637 0.716306
O5    O     O_R   0.438170 0.823950 0.431660 -0.540839
O6    O     O_R   0.561830 0.323950 0.568340 -0.540944
O7    O     O_R   0.442390 0.995390 0.556340 -0.534694
O8    O     O_R   0.557610 0.495390 0.443660 -0.534253
C3    C     C_R   0.418725 0.655347 0.415584 0.696267
C4    C     C_R   0.581265 0.155412 0.584425 0.696333
O9    O     O_3   0.501520 0.661170 0.540910 -0.378592
O10   O     O_3   0.498480 0.161170 0.459090 -0.378575
V1    V     V_3+5 0.499720 0.935580 0.492410 1.399789
V2    V     V_3+5 0.500280 0.435580 0.507590 1.399641
C5    C     C_R   0.829611 0.936053 0.856549 -0.221326
C6    C     C_R   0.170364 0.436690 0.143360 -0.221221
C7    C     C_R   0.869050 0.083700 0.866019 -0.076727
C8    C     C_R   0.130975 0.583856 0.133943 -0.076750
C9    C     C_R   0.860211 0.243521 0.828639 -0.219036
C10   C     C_R   0.139859 0.743172 0.171373 -0.219236
C11   C     C_R   0.813027 0.256317 0.782338 0.088483
C12   C     C_R   0.187033 0.755899 0.217695 0.088554
C13   C     C_R   0.773366 0.108586 0.773753 0.055292
C14   C     C_R   0.226638 0.608643 0.226238 0.055278
C15   C     C_R   0.781566 0.948212 0.811183 0.089886
C16   C     C_R   0.218398 0.448811 0.188740 0.089795
C17   C     C_R   0.804768 0.414470 0.744442 -0.196276
C18   C     C_R   0.195332 0.913496 0.255662 -0.196151
C19   C     C_R   0.757406 0.426842 0.698706 -0.189952
C20   C     C_R   0.242681 0.925799 0.301424 -0.190044
C21   C     C_R   0.717304 0.281570 0.690149 0.089729
C22   C     C_R   0.282725 0.781010 0.309936 0.089686
C23   C     C_R   0.725405 0.121325 0.727668 0.055409
C24   C     C_R   0.274582 0.621311 0.272349 0.055400
C25   C     C_R   0.685730 0.973617 0.719061 0.088626
C26   C     C_R   0.314201 0.474077 0.280914 0.088684
C27   C     C_R   0.693862 0.815747 0.757140 -0.199530
C28   C     C_R   0.306030 0.316766 0.242764 -0.199291
C29   C     C_R   0.741306 0.803242 0.802804 -0.190101
C30   C     C_R   0.258598 0.304328 0.197075 -0.190162
C31   C     C_R   0.669575 0.293251 0.644417 -0.222894
C32   C     C_R   0.330442 0.792643 0.355682 -0.222879
C33   C     C_R   0.630292 0.145385 0.634700 -0.075587
C34   C     C_R   0.369677 0.645252 0.365344 -0.075578
C35   C     C_R   0.638764 0.986064 0.672446 -0.217128
C36   C     C_R   0.361158 0.486446 0.327549 -0.217417
H1    H     H_    0.835604 0.812908 0.885359 0.126342
H2    H     H_    0.164335 0.313946 0.114505 0.126364
H3    H     H_    0.890396 0.357828 0.835152 0.131517
H4    H     H_    0.109709 0.857090 0.164892 0.131453
H5    H     H_    0.834879 0.529083 0.750301 0.132628
H6    H     H_    0.165264 0.027727 0.249840 0.132647
H7    H     H_    0.752081 0.550456 0.670079 0.134880
H8    H     H_    0.248043 0.048982 0.330104 0.134780
H9    H     H_    0.663755 0.416184 0.615459 0.125849
H10   H     H_    0.336298 0.915169 0.384685 0.125804
H11   H     H_    0.608544 0.871847 0.665879 0.129564
H12   H     H_    0.391342 0.372615 0.334083 0.129479
H13   H     H_    0.663676 0.701292 0.751366 0.131393
H14   H     H_    0.336172 0.202694 0.248502 0.131433
H15   H     H_    0.746624 0.679654 0.831443 0.135135
H16   H     H_    0.253244 0.181169 0.168382 0.135071
C37   C     C_3   0.237061 0.296715 0.794411 -0.384736
C38   C     C_3   0.763226 0.793374 0.203853 -0.386727
C39   C     C_3   0.256316 0.957513 0.808606 -0.372809
C40   C     C_3   0.743369 0.453868 0.192810 -0.372320
C41   C     C_3   0.304080 0.961342 0.757060 -0.190818
C42   C     C_3   0.694878 0.463192 0.243533 -0.188989
H17   H     H_    0.330614 0.294350 0.786545 0.093903
H18   H     H_    0.669867 0.800253 0.214055 0.094742
H19   H     H_    0.251203 0.332756 0.844960 0.116975
H20   H     H_    0.748187 0.824750 0.153129 0.116720
H21   H     H_    0.235834 0.818979 0.809158 0.142594
H22   H     H_    0.763625 0.315386 0.194442 0.140651
H23   H     H_    0.275362 0.981173 0.858155 0.144988
H24   H     H_    0.724885 0.472620 0.142728 0.145679
H25   H     H_    0.294632 0.843164 0.726228 0.132740
H26   H     H_    0.702012 0.345161 0.275350 0.132121
C43   C     C_1   0.378755 0.145910 0.624329 -0.174281
C44   C     C_1   0.621313 0.648584 0.375632 -0.175071
C45   C     C_3   0.208093 0.103832 0.792418 0.241681
C46   C     C_3   0.791848 0.600944 0.207631 0.243630
C47   C     C_3   0.291587 0.300075 0.752327 0.202960
C48   C     C_3   0.709651 0.802046 0.247193 0.200863
C49   C     C_3   0.293629 0.125697 0.709676 0.227168
C50   C     C_3   0.706432 0.628010 0.290330 0.227334
C51   C     C_3   0.232087 0.089470 0.674103 -0.366480
C52   C     C_3   0.767715 0.589024 0.325989 -0.360755
C53   C     C_3   0.183036 0.070761 0.722609 -0.335684
C54   C     C_3   0.816918 0.571818 0.277684 -0.334931
C55   C     C_1   0.340462 0.137176 0.662473 -0.040255
C56   C     C_1   0.659625 0.640934 0.337487 -0.042486
C57   C     C_1   0.160427 0.092567 0.838415 -0.071758
C58   C     C_1   0.839501 0.588610 0.161640 -0.072325
C59   C     C_1   0.121608 0.083985 0.876021 -0.182865
C60   C     C_1   0.878332 0.581275 0.124021 -0.182860
H27   H     H_    0.147480 0.170871 0.709959 0.142334
H28   H     H_    0.851951 0.674633 0.289749 0.142008
H29   H     H_    0.163179 0.931551 0.718704 0.146049
H30   H     H_    0.837459 0.434069 0.282525 0.145421
H31   H     H_    0.219311 0.195052 0.638062 0.153389
H32   H     H_    0.780773 0.691326 0.362964 0.151352
H33   H     H_    0.204271 0.401127 0.777462 0.158006
H34   H     H_    0.796579 0.898985 0.218542 0.157530
H35   H     H_    0.233608 0.961475 0.645497 0.129725
H36   H     H_    0.765574 0.459937 0.353990 0.127852
O11   O     O_R   0.942420 0.735670 0.056390 -0.531652
O12   O     O_R   0.057580 0.235670 0.943610 -0.531899
O13   O     O_R   0.061840 0.404850 0.068350 -0.540477
O14   O     O_R   0.938160 0.904850 0.931650 -0.540579
C61   C     C_R   0.081476 0.573538 0.084203 0.694263
C62   C     C_R   0.918531 0.073465 0.915791 0.694046
O15   O     O_R   0.943100 0.406010 0.064050 -0.534371
O16   O     O_R   0.056900 0.906010 0.935950 -0.534132
O17   O     O_R   0.938020 0.234710 0.939330 -0.537090
O18   O     O_R   0.061980 0.734710 0.060670 -0.537243
C63   C     C_R   0.924308 0.573938 0.078599 0.713235
C64   C     C_R   0.075663 0.074633 0.921420 0.713311
O19   O     O_3   0.998500 0.567790 0.959120 -0.377686
O20   O     O_3   0.001500 0.067790 0.040880 -0.377698
V3    V     V_3+5 0.000280 0.293330 0.007580 1.399978
V4    V     V_3+5 0.999720 0.793330 0.992420 1.399646
C65   C     C_R   0.367564 0.936987 0.784272 0.098817
C66   C     C_R   0.389968 0.024533 0.841015 -0.121437
C67   C     C_R   0.448580 0.000614 0.863070 -0.118280
C68   C     C_R   0.485710 0.889676 0.829111 -0.101051
C69   C     C_R   0.464309 0.801904 0.773011 -0.109104
C70   C     C_R   0.405768 0.824935 0.750775 -0.132877
H37   H     H_    0.362837 0.112358 0.868563 0.089633
H38   H     H_    0.465284 0.068782 0.906556 0.107275
H39   H     H_    0.531102 0.871973 0.846214 0.107766
H40   H     H_    0.493161 0.716388 0.746535 0.110138
H41   H     H_    0.390452 0.756909 0.706693 0.127494
C71   C     C_R   0.631637 0.443500 0.215003 0.100929
C72   C     C_R   0.611034 0.533735 0.158000 -0.124530
C73   C     C_R   0.552635 0.513649 0.134526 -0.118353
C74   C     C_R   0.513984 0.403482 0.167223 -0.099849
C75   C     C_R   0.533676 0.312376 0.223402 -0.111830
C76   C     C_R   0.592003 0.331558 0.247050 -0.128226
H42   H     H_    0.639533 0.620291 0.131270 0.090537
H43   H     H_    0.537304 0.583973 0.090876 0.107410
H44   H     H_    0.468770 0.388658 0.149009 0.107796
H45   H     H_    0.503682 0.227067 0.248796 0.109467
H46   H     H_    0.606058 0.260336 0.291011 0.125554
N1    N     N_2   0.298447 0.472293 0.718724 -0.519535
H47   H     H_    0.303823 0.575744 0.751663 0.247601
C77   C     C_3   0.261648 0.517267 0.661730 -0.545986
H48   H     H_    0.270568 0.658897 0.646142 0.173506
H49   H     H_    0.214366 0.505227 0.671155 0.187277
H50   H     H_    0.273345 0.431256 0.620654 0.205394
N2    N     N_2   0.705935 0.975623 0.280381 -0.518847
H51   H     H_    0.703783 0.078882 0.246930 0.247282
C78   C     C_3   0.743881 0.015336 0.336937 -0.545467
H52   H     H_    0.738759 0.159460 0.351266 0.173474
H53   H     H_    0.790711 0.992388 0.327481 0.188204
H54   H     H_    0.730045 0.934671 0.378642 0.205901

loop_
_geom_bond_atom_site_label_1
_geom_bond_atom_site_label_2
_ccdc_geom_bond_type
C7    C9    A    
C18   C20   A    
C72   H42   S    
C39   C45   S    
C66   C67   A    
C44   C56   T    
C78   H53   S    
N1    H47   S    
O1    C3    A    
O11   C63   A    
O2    C4    A    
C68   C69   A    
C2    O7    A    
O14   C62   A    
C42   C50   S    
C37   H19   S    
C60   C63   S    
C27   C29   A    
O5    C3    A    
C18   H6    S    
C54   H28   S    
C11   C17   A    
C23   C25   A    
C48   N2    S    
C38   H34   S    
O14   V4    S    
C73   H43   S    
C77   H49   S    
C8    C61   S    
C48   C50   S    
C37   C45   S    
C38   H20   S    
C28   H14   S    
C46   C58   S    
C67   H38   S    
O19   V4    S    
C5    C7    A    
H17   C47   S    
C52   C54   S    
C65   C70   A    
C70   H41   S    
C32   H10   S    
C49   C51   S    
C58   C60   T    
C19   C21   A    
C25   C35   A    
C26   C36   A    
C41   C49   S    
C54   H30   S    
C61   O18   A    
C47   C49   S    
C41   C65   S    
O6    V2    S    
C2    C43   S    
C51   H31   S    
C78   H54   S    
C42   C71   S    
C53   H29   S    
C37   H33   S    
C32   C34   A    
C36   H12   S    
C50   C56   S    
C33   C35   A    
C40   H24   S    
C27   H13   S    
C34   C36   A    
C35   H11   S    
O15   V3    S    
C42   H26   S    
C5    C15   A    
C6    C16   A    
C75   C76   A    
O4    C2    A    
C77   H50   S    
O12   C64   A    
C4    C33   S    
O5    V1    S    
C7    C62   S    
O13   V3    S    
O16   C64   A    
C39   C41   S    
C40   C46   S    
O4    V2    S    
C71   C76   A    
O12   V3    S    
C43   C55   T    
C74   H44   S    
C15   C29   A    
C28   C30   A    
O6    C4    A    
C45   C57   S    
C51   H35   S    
C22   C32   A    
O13   C61   A    
O1    V2    S    
O18   V4    S    
O2    V1    S    
C31   C33   A    
C52   H32   S    
C76   H46   S    
C13   C23   A    
C14   C24   A    
C50   C52   S    
O15   C63   A    
C9    C11   A    
C65   C66   A    
C10   C12   A    
C41   H25   S    
N2    C78   S    
C29   H15   S    
C5    H1    S    
C67   C68   A    
C30   H16   S    
C9    H3    S    
O3    V1    S    
C6    H2    S    
C10   H4    S    
C69   C70   A    
O16   V4    S    
N1    C77   S    
C39   H23   S    
C47   N1    S    
C8    C10   A    
C71   C72   A    
O3    C1    A    
C75   H45   S    
C38   C48   S    
H18   C48   S    
C74   C75   A    
C57   C59   T    
O11   V4    S    
C37   C47   S    
C40   H22   S    
C45   C53   S    
C72   C73   A    
C14   C16   A    
C19   H7    S    
C59   C64   S    
C24   C26   A    
O17   V3    S    
C52   H36   S    
C1    O8    A    
C17   C19   A    
O8    V2    S    
C68   H39   S    
C26   C28   A    
C1    C44   S    
C12   C14   A    
C17   H5    S    
C66   H37   S    
C49   C55   S    
C16   C30   A    
C21   C23   A    
C22   C24   A    
C6    C8    A    
C11   C13   A    
O7    V1    S    
C12   C18   A    
C62   O17   A    
C73   C74   A    
C31   H9    S    
C38   C46   S    
C69   H40   S    
C39   H21   S    
C25   C27   A    
C51   C53   S    
O9    V2    S    
C78   H52   S    
C40   C42   S    
O10   V1    S    
C3    C34   S    
C46   C54   S    
C53   H27   S    
O20   V3    S    
C77   H48   S    
C21   C31   A    
C20   H8    S    
C20   C22   A    
N2    H51   S    
C13   C15   A    
