data_mof_unit_55969.cif
_audit_creation_date              2012-12-11T17:14:04-0500
_audit_creation_method            fapswitch 2.2
_symmetry_space_group_name_H-M    P1
_symmetry_Int_Tables_number       1
_space_group_crystal_system       triclinic
_cell_length_a                    18.215002
_cell_length_b                    7.091473
_cell_length_c                    13.009933
_cell_angle_alpha                 90.000018
_cell_angle_beta                  71.844962
_cell_angle_gamma                 90.000012
_cell_volume                      1596.84759496

loop_
_atom_site_label
_atom_site_type_symbol
_atom_type_description
_atom_site_fract_x
_atom_site_fract_y
_atom_site_fract_z
_atom_type_partial_charge
O1    O     O_R   0.453880 0.506200 0.150010 -0.530939
O2    O     O_R   0.546120 0.006200 0.849990 -0.530939
O3    O     O_R   0.604080 0.177770 0.007280 -0.535293
O4    O     O_R   0.395920 0.677770 0.992720 -0.535293
C1    C     C_R   0.635983 0.344509 0.001749 0.738027
C2    C     C_R   0.364017 0.844509 0.998251 0.738027
O5    O     O_R   0.458010 0.176640 0.159130 -0.543981
O6    O     O_R   0.541990 0.676640 0.840870 -0.543981
O7    O     O_R   0.399010 0.004010 0.002930 -0.538480
O8    O     O_R   0.600990 0.504010 0.997070 -0.538480
C3    C     C_R   0.442938 0.345421 0.201843 0.711678
C4    C     C_R   0.557061 0.845421 0.798157 0.711678
O9    O     O_3   0.480810 0.338440 0.948570 -0.377064
O10   O     O_3   0.519190 0.838440 0.051430 -0.377064
V1    V     V_3+5 0.503560 0.064490 0.009540 1.462848
V2    V     V_3+5 0.496440 0.564490 0.990460 1.462848
C5    C     C_R   0.579939 0.906740 0.502738 0.166910
C6    C     C_R   0.420061 0.406742 0.497262 0.166910
H1    H     H_    0.484502 0.909102 0.651437 0.102335
H2    H     H_    0.515498 0.409104 0.348563 0.102335
H3    H     H_    0.663312 0.905999 0.289495 0.136122
H4    H     H_    0.336688 0.406004 0.710505 0.136122
C7    C     C_R   0.592030 0.856854 0.681013 -0.079316
C8    C     C_R   0.407970 0.356854 0.318987 -0.079316
C9    C     C_R   0.953452 0.865054 0.384855 -0.212573
C10   C     C_R   0.046548 0.365054 0.615145 -0.212573
C11   C     C_R   0.922218 0.893696 0.495430 -0.122604
C12   C     C_R   0.077783 0.393697 0.504570 -0.122605
C13   C     C_R   0.842530 0.913382 0.543655 0.248644
C14   C     C_R   0.157470 0.413383 0.456345 0.248644
C15   C     C_R   0.791274 0.885401 0.481014 0.033722
C16   C     C_R   0.208726 0.385402 0.518986 0.033723
C17   C     C_R   0.824483 0.873349 0.366407 0.036310
C18   C     C_R   0.175517 0.373350 0.633593 0.036310
C19   C     C_R   0.708892 0.877657 0.525988 0.057414
C20   C     C_R   0.291108 0.377658 0.474012 0.057414
C21   C     C_R   0.661644 0.895279 0.457229 0.118584
C22   C     C_R   0.338356 0.395281 0.542771 0.118584
C23   C     C_R   0.696870 0.896791 0.344821 -0.204679
C24   C     C_R   0.303130 0.396795 0.655178 -0.204678
C25   C     C_R   0.776293 0.879073 0.300453 -0.184321
C26   C     C_R   0.223706 0.379076 0.699546 -0.184322
C27   C     C_R   0.671893 0.840774 0.636293 -0.160828
C28   C     C_R   0.328107 0.340773 0.363707 -0.160827
C29   C     C_R   0.546489 0.894956 0.615124 -0.188303
C30   C     C_R   0.453511 0.394958 0.384876 -0.188303
C31   C     C_R   0.905706 0.862488 0.319397 -0.078129
C32   C     C_R   0.094294 0.362489 0.680603 -0.078129
H5    H     H_    0.703930 0.793668 0.688541 0.166390
H6    H     H_    0.296069 0.293665 0.311460 0.166389
H7    H     H_    0.015685 0.857896 0.349197 0.156485
H8    H     H_    0.984315 0.357895 0.650803 0.156486
H9    H     H_    0.960991 0.912577 0.543058 0.165918
H10   H     H_    0.039009 0.412578 0.456942 0.165918
H11   H     H_    0.799782 0.874137 0.213120 0.119400
H12   H     H_    0.200218 0.374140 0.786880 0.119400
C33   C     C_1   0.216292 0.858709 0.000380 -0.145505
C34   C     C_1   0.783708 0.358709 0.999619 -0.145505
C35   C     C_1   0.283593 0.852554 0.999182 -0.149577
C36   C     C_1   0.716407 0.352554 0.000818 -0.149577
O11   O     O_R   0.899030 0.205490 0.002790 -0.533464
O12   O     O_R   0.100970 0.705490 0.997210 -0.533464
O13   O     O_R   0.042000 0.536370 0.840840 -0.540101
O14   O     O_R   0.958000 0.036370 0.159160 -0.540101
C37   C     C_R   0.057668 0.368323 0.798122 0.699357
C38   C     C_R   0.942332 0.868323 0.201878 0.699358
O15   O     O_R   0.895930 0.535070 0.992690 -0.540130
O16   O     O_R   0.104070 0.035070 0.007310 -0.540129
O17   O     O_R   0.953870 0.707520 0.150040 -0.538333
O18   O     O_R   0.046130 0.207520 0.849960 -0.538333
C39   C     C_R   0.864137 0.366729 0.998664 0.733146
C40   C     C_R   0.135863 0.866729 0.001336 0.733146
O19   O     O_3   0.019200 0.374340 0.051340 -0.370972
O20   O     O_3   0.980800 0.874340 0.948660 -0.370972
V3    V     V_3+5 0.996440 0.648350 0.990470 1.475303
V4    V     V_3+5 0.003560 0.148350 0.009530 1.475303
C41   C     C_3   0.527526 0.930879 0.433825 -0.772485
H13   H     H_    0.532759 0.806701 0.380030 0.208147
H14   H     H_    0.465908 0.943903 0.483596 0.220118
H15   H     H_    0.543659 0.060453 0.384129 0.205408
C42   C     C_3   0.472474 0.430881 0.566175 -0.772489
H16   H     H_    0.467241 0.306703 0.619970 0.208147
H17   H     H_    0.534092 0.443903 0.516405 0.220119
H18   H     H_    0.456342 0.560454 0.615870 0.205408
Br1   Br    Br    0.814211 0.028011 0.685155 -0.615189
Br2   Br    Br    0.185789 0.528013 0.314844 -0.615189

loop_
_geom_bond_atom_site_label_1
_geom_bond_atom_site_label_2
_ccdc_geom_bond_type
C14   C16   A    
O13   C37   A    
C7    C29   A    
C11   C13   A    
O1    C3    A    
O2    C4    A    
C2    O7    A    
C42   H16   S    
C23   C25   A    
C41   H13   S    
O5    C3    A    
C4    C7    S    
O20   V4    S    
C16   C20   A    
C19   C21   A    
C5    C29   A    
C34   C39   S    
C33   C35   T    
C38   O17   A    
C34   C36   T    
C37   O18   A    
C3    C8    S    
C6    C42   S    
C7    C27   A    
C25   H11   S    
C26   H12   S    
C18   C26   A    
C15   C17   A    
C32   C37   S    
C14   Br2   S    
C19   C27   A    
C9    C31   A    
C31   C38   S    
C13   Br1   S    
C10   C32   A    
O11   C39   A    
C24   C26   A    
O6    V2    S    
O19   V3    S    
C6    C30   A    
C42   H17   S    
C41   H14   S    
O11   V4    S    
O20   V3    S    
O4    C2    A    
C12   H10   S    
C27   H5    S    
O5    V1    S    
H1    C29   S    
C16   C18   A    
O4    V2    S    
C9    H7    S    
C10   H8    S    
H3    C23   S    
O16   C40   A    
H4    C24   S    
C5    C41   S    
O14   V4    S    
O12   C40   A    
O1    V2    S    
C5    C21   A    
O2    V1    S    
O18   V4    S    
C9    C11   A    
C8    C28   A    
O19   V4    S    
C15   C19   A    
O12   V3    S    
C20   C28   A    
C18   C32   A    
C42   H18   S    
O3    V1    S    
C41   H15   S    
C28   H6    S    
C1    C36   S    
C2    C35   S    
O3    C1    A    
C11   H9    S    
O16   V4    S    
C10   C12   A    
C17   C25   A    
C12   C14   A    
C6    C22   A    
C8    C30   A    
C1    O8    A    
C21   C23   A    
O8    V2    S    
C22   C24   A    
O13   V3    S    
C17   C31   A    
C20   C22   A    
O17   V3    S    
O15   C39   A    
C33   C40   S    
O7    V1    S    
O15   V3    S    
C13   C15   A    
O9    V2    S    
O10   V1    S    
H2    C30   S    
O6    C4    A    
O14   C38   A    
