data_mof_unit_68588.cif
_audit_creation_date              2012-12-11T15:11:42-0500
_audit_creation_method            fapswitch 2.2
_symmetry_space_group_name_H-M    P1
_symmetry_Int_Tables_number       1
_space_group_crystal_system       triclinic
_cell_length_a                    20.219044
_cell_length_b                    7.163423
_cell_length_c                    14.00935
_cell_angle_alpha                 89.913289
_cell_angle_beta                  103.832532
_cell_angle_gamma                 90.471756
_cell_volume                      1970.16714844

loop_
_atom_site_label
_atom_site_type_symbol
_atom_type_description
_atom_site_fract_x
_atom_site_fract_y
_atom_site_fract_z
_atom_type_partial_charge
O1    O     O_R   0.449830 0.506740 0.599960 -0.546777
O2    O     O_R   0.550170 0.006740 0.400040 -0.542279
O3    O     O_R   0.588980 0.179860 0.596720 -0.553682
O4    O     O_R   0.411020 0.679860 0.403280 -0.546872
C1    C     C_R   0.614611 0.344472 0.622219 0.705780
C2    C     C_R   0.382380 0.843351 0.385064 0.714775
O5    O     O_R   0.452740 0.177340 0.612040 -0.561141
O6    O     O_R   0.547260 0.677340 0.387960 -0.550931
O7    O     O_R   0.412960 0.002070 0.415460 -0.550440
O8    O     O_R   0.587040 0.502070 0.584540 -0.548530
C3    C     C_R   0.434697 0.344582 0.634253 0.723697
C4    C     C_R   0.567046 0.845643 0.367376 0.726844
O9    O     O_3   0.487110 0.337570 0.435490 -0.392024
O10   O     O_3   0.512890 0.837570 0.564510 -0.394407
V1    V     V_3+5 0.502390 0.064650 0.511970 1.342010
V2    V     V_3+5 0.497610 0.564650 0.488030 1.345407
C5    C     C_R   0.612663 0.906516 0.126321 0.446717
C6    C     C_R   0.394992 0.341857 0.880688 0.476473
H1    H     H_    0.520399 0.903936 0.175504 0.153395
H2    H     H_    0.485529 0.329278 0.825234 0.141618
H3    H     H_    0.690576 0.865418 0.000390 0.171076
H4    H     H_    0.312996 0.299432 0.002308 0.156345
C7    C     C_R   0.607912 0.855213 0.294212 -0.110697
C8    C     C_R   0.396036 0.348483 0.709050 -0.111783
C9    C     C_R   0.936841 0.835841 0.312250 0.415035
C10   C     C_R   0.073330 0.413019 0.687248 0.454436
C11   C     C_R   0.902574 0.840133 0.389274 -0.248665
C12   C     C_R   0.107095 0.390248 0.612582 -0.201820
C13   C     C_R   0.831777 0.844639 0.369991 -0.246530
C14   C     C_R   0.175575 0.350582 0.633151 -0.292799
C15   C     C_R   0.791706 0.845766 0.272906 0.113648
C16   C     C_R   0.213760 0.339902 0.730924 0.099922
C17   C     C_R   0.826116 0.847784 0.194890 0.009842
C18   C     C_R   0.177783 0.336997 0.807591 0.030117
C19   C     C_R   0.718732 0.851571 0.250292 0.041319
C20   C     C_R   0.286620 0.339696 0.754629 0.054943
C21   C     C_R   0.683025 0.870498 0.150701 0.021848
C22   C     C_R   0.322823 0.333543 0.854702 0.047283
C23   C     C_R   0.717737 0.860089 0.076122 -0.212748
C24   C     C_R   0.286496 0.320536 0.927400 -0.224331
C25   C     C_R   0.787828 0.846143 0.097439 -0.255882
C26   C     C_R   0.215567 0.322396 0.904912 -0.250207
C27   C     C_R   0.679530 0.845028 0.322068 -0.255094
C28   C     C_R   0.325017 0.351477 0.682436 -0.251266
C29   C     C_R   0.575080 0.886829 0.196673 -0.263071
C30   C     C_R   0.430529 0.337329 0.806744 -0.293512
C31   C     C_R   0.898257 0.851743 0.215332 -0.151937
C32   C     C_R   0.105693 0.365122 0.785559 -0.182389
H5    H     H_    0.702908 0.831810 0.399356 0.112828
H6    H     H_    0.301896 0.360618 0.604935 0.111889
H7    H     H_    0.809886 0.848432 0.432956 0.137690
H8    H     H_    0.197414 0.340019 0.570479 0.146792
H9    H     H_    0.929671 0.841610 0.465425 0.139997
H10   H     H_    0.080886 0.418176 0.537233 0.125381
H11   H     H_    0.811788 0.842205 0.036173 0.103264
H12   H     H_    0.190795 0.317579 0.965334 0.107267
C33   C     C_3   0.239453 0.753391 0.148401 0.300589
C34   C     C_3   0.755382 0.250332 0.865260 0.323757
H13   H     H_    0.216701 0.620745 0.113921 0.008997
H14   H     H_    0.778247 0.118305 0.899385 0.016376
C35   C     C_3   0.301314 0.703452 0.234085 0.335985
C36   C     C_3   0.693577 0.196642 0.777652 0.326413
H15   H     H_    0.290654 0.564464 0.264394 -0.045059
H16   H     H_    0.711744 0.065510 0.748706 -0.071138
H17   H     H_    0.164603 0.629829 0.282761 0.111817
H18   H     H_    0.822674 0.122637 0.727434 0.116856
H19   H     H_    0.262306 0.642249 0.403404 0.041018
H20   H     H_    0.729526 0.156931 0.601256 0.042347
C37   C     C_3   0.182225 0.777499 0.293991 -0.425678
C38   C     C_3   0.809321 0.272821 0.717435 -0.463127
C39   C     C_3   0.216691 0.063318 0.218218 -0.296422
C40   C     C_3   0.778573 0.562020 0.793722 -0.281689
C41   C     C_3   0.186550 0.864052 0.192390 -0.084243
C42   C     C_3   0.808434 0.362389 0.819131 -0.076903
H21   H     H_    0.185905 0.139986 0.261315 0.162727
H22   H     H_    0.807681 0.636032 0.746713 0.168383
H23   H     H_    0.215359 0.148406 0.151444 0.140331
H24   H     H_    0.782752 0.651903 0.859180 0.129472
C43   C     C_3   0.309212 0.847988 0.320043 -0.060206
C44   C     C_3   0.685147 0.348078 0.692752 -0.043725
C45   C     C_3   0.252535 0.786831 0.373623 0.247579
C46   C     C_3   0.740967 0.295950 0.638050 0.268428
C47   C     C_3   0.291222 0.049417 0.279071 -0.315617
C48   C     C_3   0.702581 0.547135 0.738002 -0.328092
H25   H     H_    0.325301 0.087196 0.231257 0.185548
H26   H     H_    0.669612 0.575750 0.789242 0.167254
H27   H     H_    0.299478 0.153259 0.339836 0.154632
H28   H     H_    0.692319 0.657015 0.680288 0.159528
H29   H     H_    0.143229 0.854879 0.321038 0.206149
H30   H     H_    0.847385 0.342151 0.688610 0.184793
O11   O     O_R   0.912980 0.203550 0.915410 -0.547186
O12   O     O_R   0.087020 0.703550 0.084590 -0.543616
O13   O     O_R   0.047270 0.535570 0.887960 -0.530602
O14   O     O_R   0.952730 0.035570 0.112040 -0.542610
C49   C     C_R   0.066500 0.369607 0.864554 0.697494
C50   C     C_R   0.935064 0.866882 0.135939 0.757715
O15   O     O_R   0.911030 0.532970 0.903270 -0.547659
O16   O     O_R   0.088970 0.032970 0.096730 -0.546346
O17   O     O_R   0.949820 0.708150 0.099970 -0.547432
O18   O     O_R   0.050180 0.208150 0.900030 -0.548411
C51   C     C_R   0.882277 0.365480 0.885225 0.643100
C52   C     C_R   0.115409 0.865848 0.120492 0.696371
O19   O     O_3   0.012900 0.375230 0.064480 -0.379138
O20   O     O_3   0.987100 0.875230 0.935520 -0.382048
V3    V     V_3+5 0.997610 0.648190 0.988040 1.398232
V4    V     V_3+5 0.002390 0.148190 0.011960 1.382669
O21   O     O_3   0.268245 0.858644 0.082005 -0.553813
C53   C     C_3   0.223639 0.910534 0.993211 0.035338
H31   H     H_    0.255358 0.996846 0.957224 0.185619
H32   H     H_    0.180769 0.996531 0.002868 0.121828
C54   C     C_3   0.200733 0.751862 0.921936 -0.344968
H33   H     H_    0.246720 0.681008 0.910448 0.218382
H34   H     H_    0.168272 0.653943 0.951678 0.203769
C55   C     C_3   0.160525 0.828128 0.823768 -0.785116
H35   H     H_    0.190449 0.936937 0.795853 0.225686
H36   H     H_    0.111540 0.887908 0.831369 0.252680
H37   H     H_    0.150034 0.714848 0.769071 0.250113
O22   O     O_3   0.728199 0.352702 0.934189 -0.560788
C56   C     C_3   0.776292 0.421638 0.017762 0.020882
H38   H     H_    0.746617 0.507788 0.057461 0.175897
H39   H     H_    0.815518 0.513191 0.999547 0.126397
C57   C     C_3   0.809091 0.271993 0.090022 -0.360290
H40   H     H_    0.768107 0.196619 0.113344 0.210315
H41   H     H_    0.838208 0.176398 0.054220 0.208588
C58   C     C_3   0.856879 0.354533 0.181654 -0.767559
H42   H     H_    0.829963 0.458565 0.216800 0.229679
H43   H     H_    0.901585 0.420819 0.162400 0.257838
H44   H     H_    0.875333 0.242282 0.235861 0.229364
O23   O     O_3   0.361849 0.693855 0.200380 -0.553043
C59   C     C_3   0.367053 0.516973 0.158553 0.073640
H45   H     H_    0.382418 0.541873 0.090039 0.196287
H46   H     H_    0.318037 0.437958 0.138263 0.068819
C60   C     C_3   0.418621 0.399579 0.230355 -0.289277
H47   H     H_    0.465755 0.482734 0.258319 0.227683
H48   H     H_    0.395176 0.364733 0.292095 0.198918
C61   C     C_3   0.437186 0.218007 0.186444 -0.755774
H49   H     H_    0.394275 0.160795 0.129046 0.252980
H50   H     H_    0.451606 0.112333 0.245481 0.234621
H51   H     H_    0.481695 0.240269 0.154812 0.249936
O24   O     O_3   0.631660 0.162507 0.807076 -0.562661
C62   C     C_3   0.613684 0.970422 0.792439 0.108666
H52   H     H_    0.650550 0.885941 0.845845 0.102137
H53   H     H_    0.615733 0.921545 0.717774 0.125528
C63   C     C_3   0.541457 0.929436 0.801506 -0.274422
H54   H     H_    0.529188 0.001216 0.864176 0.240111
H55   H     H_    0.504655 0.977263 0.735488 0.217428
C64   C     C_3   0.531427 0.720920 0.810819 -0.824430
H56   H     H_    0.539696 0.647114 0.745231 0.249003
H57   H     H_    0.478770 0.693985 0.817367 0.231551
H58   H     H_    0.568573 0.667836 0.876524 0.234277
O25   O     O_3   0.247577 0.910139 0.451253 -0.569785
C65   C     C_3   0.301263 0.883473 0.536697 0.083749
H59   H     H_    0.334032 0.010258 0.546937 0.150878
H60   H     H_    0.333946 0.760439 0.533357 0.098710
C66   C     C_3   0.273029 0.857099 0.627471 -0.323766
H61   H     H_    0.239232 0.975160 0.633799 0.217352
H62   H     H_    0.243948 0.723918 0.619772 0.200753
C67   C     C_3   0.329983 0.846022 0.721121 -0.809528
H63   H     H_    0.364531 0.729298 0.716147 0.242605
H64   H     H_    0.307940 0.822315 0.785473 0.234553
H65   H     H_    0.360279 0.976881 0.732792 0.243747
O26   O     O_3   0.748654 0.436702 0.569653 -0.574894
C68   C     C_3   0.706606 0.403099 0.474551 0.088532
H66   H     H_    0.679897 0.534429 0.448353 0.148156
H67   H     H_    0.666081 0.295641 0.471596 0.105035
C69   C     C_3   0.749788 0.345319 0.404153 -0.319587
H68   H     H_    0.790712 0.450481 0.405472 0.208459
H69   H     H_    0.773871 0.208846 0.428142 0.189248
C70   C     C_3   0.705908 0.326782 0.299548 -0.826523
H70   H     H_    0.660254 0.238669 0.297789 0.241639
H71   H     H_    0.735968 0.260483 0.252904 0.237983
H72   H     H_    0.689039 0.465704 0.268675 0.237961
O27   O     O_3   0.581041 0.977935 0.035844 -0.565886
C71   C     C_3   0.597595 0.170234 0.036471 -0.194519
H73   H     H_    0.653042 0.194797 0.047906 0.165483
H74   H     H_    0.578673 0.246930 0.093339 0.129196
H75   H     H_    0.574119 0.230726 0.964086 0.188533
O28   O     O_3   0.430426 0.346506 0.978380 -0.567407
C72   C     C_3   0.472351 0.508379 0.996425 -0.311928
H76   H     H_    0.443697 0.637033 0.967927 0.166016
H77   H     H_    0.517601 0.493776 0.966596 0.149788
H78   H     H_    0.492389 0.526779 0.076686 0.165956
O29   O     O_3   0.007348 0.821459 0.324926 -0.588753
C73   C     C_3   0.042970 0.762467 0.419040 0.052941
H79   H     H_    0.086834 0.677409 0.410753 0.132934
H80   H     H_    0.013251 0.665118 0.454910 0.131865
C74   C     C_3   0.070358 0.933566 0.481420 -0.297609
H81   H     H_    0.112449 0.999377 0.454663 0.218112
H82   H     H_    0.029712 0.038513 0.475212 0.192391
C75   C     C_3   0.096139 0.879431 0.588022 -0.829185
H83   H     H_    0.133663 0.766523 0.594567 0.241313
H84   H     H_    0.053499 0.828635 0.617564 0.276503
H85   H     H_    0.119710 0.001455 0.631645 0.240126
O30   O     O_3   0.017226 0.526444 0.664045 -0.589340
C76   C     C_3   0.956704 0.430039 0.663030 0.065871
H86   H     H_    0.915262 0.528335 0.629969 0.130241
H87   H     H_    0.952892 0.406041 0.739429 0.131306
C77   C     C_3   0.944637 0.248923 0.600961 -0.391118
H88   H     H_    0.890194 0.238965 0.560979 0.181581
H89   H     H_    0.974038 0.251938 0.543767 0.197432
C78   C     C_3   0.961656 0.075680 0.666006 -0.740829
H90   H     H_    0.016910 0.069886 0.699994 0.233099
H91   H     H_    0.945658 0.947870 0.622022 0.217195
H92   H     H_    0.934748 0.076717 0.726151 0.226154

loop_
_geom_bond_atom_site_label_1
_geom_bond_atom_site_label_2
_ccdc_geom_bond_type
C34   C36   S    
C47   H27   S    
C75   H83   S    
C7    C29   A    
C32   C49   S    
C66   H62   S    
C70   H71   S    
C78   H90   S    
C68   H66   S    
O1    C3    A    
C64   H56   S    
C44   C48   S    
O2    C4    A    
C2    O7    A    
O20   V4    S    
O28   C72   S    
C23   C25   A    
H18   C38   S    
O27   C71   S    
C73   H79   S    
O5    C3    A    
C4    C7    S    
C58   H42   S    
C16   C20   A    
C36   C44   S    
C68   H67   S    
C48   H26   S    
O23   C59   S    
C62   H53   S    
H17   C37   S    
C33   H13   S    
C11   C13   A    
C34   H14   S    
C50   O17   A    
H2    C30   S    
C3    C8    S    
C34   O22   S    
C7    C27   A    
C53   H31   S    
C70   H70   S    
C33   C41   S    
C35   H15   S    
O22   C56   S    
C25   H11   S    
C74   C75   S    
C36   H16   S    
C67   H65   S    
C26   H12   S    
C71   H73   S    
C67   H64   S    
C54   H34   S    
C54   H33   S    
C53   H32   S    
C12   C14   A    
C43   C47   S    
C18   C26   A    
C38   C42   S    
C58   H44   S    
C40   H24   S    
O25   C65   S    
C15   C17   A    
C37   C41   S    
C77   H88   S    
C14   C16   A    
C19   C27   A    
C9    C31   A    
C75   H85   S    
O12   C52   A    
C76   C77   S    
O15   V3    S    
O6    V2    S    
C24   C26   A    
O30   C76   S    
O13   C49   A    
C72   H77   S    
C66   C67   S    
C69   H69   S    
C78   H91   S    
O11   V4    S    
C69   H68   S    
C38   H30   S    
O11   C51   A    
C63   C64   S    
C37   H29   S    
C6    C30   A    
O13   V3    S    
O20   V3    S    
C5    O27   S    
C55   H35   S    
C39   C47   S    
C56   H39   S    
O17   V3    S    
C10   C32   A    
C39   H21   S    
C64   H58   S    
O24   C62   S    
C40   C42   S    
C62   C63   S    
C43   C45   S    
C12   H10   S    
C49   O18   A    
C27   H5    S    
C46   O26   S    
O16   C52   A    
C31   C50   S    
C72   H76   S    
C16   C18   A    
O19   V4    S    
O4    V2    S    
C59   H46   S    
O29   C73   S    
H20   C46   S    
C60   C61   S    
C63   H55   S    
H3    C23   S    
C65   C66   S    
O6    C4    A    
H4    C24   S    
C68   C69   S    
C77   C78   S    
H1    C29   S    
C40   H22   S    
O19   V3    S    
O1    V2    S    
C5    C21   A    
C1    C44   S    
O14   C50   A    
O2    V1    S    
C71   H75   S    
C40   C48   S    
C42   C51   S    
O4    C2    A    
C41   C52   S    
C47   H25   S    
C65   H60   S    
H19   C45   S    
C17   C25   A    
C60   H47   S    
C17   C31   A    
C78   H92   S    
C15   C19   A    
C20   C28   A    
C59   C60   S    
C18   C32   A    
O21   C53   S    
C57   H41   S    
C10   O30   S    
C39   H23   S    
O3    V1    S    
C34   C42   S    
C61   H50   S    
C39   C41   S    
O26   C68   S    
C13   H7    S    
C56   C57   S    
C28   H6    S    
C14   H8    S    
O14   V4    S    
C75   H84   S    
C19   C21   A    
C10   C12   A    
C48   H28   S    
C5    C29   A    
C61   H49   S    
O3    C1    A    
C55   H36   S    
C56   H38   S    
C11   H9    S    
C33   C35   S    
C35   O23   S    
C9    C11   A    
C64   H57   S    
C33   O21   S    
O18   V4    S    
O16   V4    S    
C53   C54   S    
C63   H54   S    
C73   C74   S    
C72   H78   S    
C57   C58   S    
C20   C22   A    
C59   H45   S    
C6    C22   A    
C8    C30   A    
C1    O8    A    
C21   C23   A    
O8    V2    S    
C62   H52   S    
C61   H51   S    
C22   C24   A    
C2    C43   S    
C67   H63   S    
C35   C43   S    
C8    C28   A    
O5    V1    S    
C70   H72   S    
C44   C46   S    
C73   H80   S    
C54   C55   S    
O7    V1    S    
C38   C46   S    
C71   H74   S    
C74   H82   S    
C55   H37   S    
C37   C45   S    
C76   H86   S    
O12   V3    S    
C74   H81   S    
C45   O25   S    
C65   H59   S    
C6    O28   S    
C69   C70   S    
C13   C15   A    
O9    V2    S    
C66   H61   S    
C58   H43   S    
C60   H48   S    
O10   V1    S    
C77   H89   S    
C36   O24   S    
C57   H40   S    
O15   C51   A    
C9    O29   S    
C76   H87   S    
