data_mof_unit_54636.cif
_audit_creation_date              2012-12-11T14:15:07-0500
_audit_creation_method            fapswitch 2.2
_symmetry_space_group_name_H-M    P1
_symmetry_Int_Tables_number       1
_space_group_crystal_system       triclinic
_cell_length_a                    24.717163
_cell_length_b                    17.467791
_cell_length_c                    15.87054
_cell_angle_alpha                 90.133109
_cell_angle_beta                  129.857515
_cell_angle_gamma                 90.319864
_cell_volume                      5259.7685734

loop_
_atom_site_label
_atom_site_type_symbol
_atom_type_description
_atom_site_fract_x
_atom_site_fract_y
_atom_site_fract_z
_atom_type_partial_charge
C1    C     C_R   0.336850 0.381555 0.210106 -0.203270
C2    C     C_R   0.668151 0.401098 0.802732 -0.204107
C3    C     C_R   0.836890 0.881449 0.210221 -0.203301
C4    C     C_R   0.168116 0.900867 0.802649 -0.203914
C5    C     C_R   0.410015 0.639523 0.591560 -0.105669
C6    C     C_R   0.592124 0.638727 0.409806 -0.113997
C7    C     C_R   0.910041 0.139548 0.591554 -0.105525
C8    C     C_R   0.092020 0.138802 0.409785 -0.113798
C9    C     C_R   0.360068 0.682433 0.499724 0.148124
C10   C     C_R   0.644456 0.680348 0.502978 0.158783
C11   C     C_R   0.860124 0.182480 0.499721 0.147973
C12   C     C_R   0.144313 0.180456 0.502945 0.158781
C13   C     C_R   0.363037 0.651833 0.163756 0.220971
C14   C     C_R   0.635910 0.658021 0.831343 0.203970
C15   C     C_R   0.862863 0.151413 0.163332 0.220826
C16   C     C_R   0.135915 0.158012 0.831361 0.203880
C17   C     C_2   0.653407 0.787297 0.418020 -0.079330
C18   C     C_2   0.343920 0.780602 0.586867 -0.108115
C19   C     C_2   0.153354 0.287296 0.417933 -0.079374
C20   C     C_2   0.843919 0.280590 0.586860 -0.108038
C21   C     C_2   0.678657 0.749526 0.508928 -0.120958
C22   C     C_2   0.326501 0.751240 0.495109 -0.105924
C23   C     C_2   0.178478 0.249671 0.508888 -0.120543
C24   C     C_2   0.826569 0.251302 0.495113 -0.106161
C25   C     C_2   0.203435 0.323484 0.412358 -0.170212
C26   C     C_2   0.788455 0.310510 0.583399 -0.169689
C27   C     C_2   0.703385 0.823633 0.412331 -0.170090
C28   C     C_2   0.288503 0.810600 0.583466 -0.169661
C29   C     C_2   0.257240 0.366255 0.494250 -0.176427
C30   C     C_2   0.738954 0.356948 0.504454 -0.165467
C31   C     C_2   0.757188 0.866406 0.494227 -0.176528
C32   C     C_2   0.238970 0.856989 0.504462 -0.165552
C33   C     C_2   0.703883 0.348052 0.978934 0.343434
C34   C     C_2   0.310534 0.314019 0.047963 0.310731
C35   C     C_2   0.203762 0.847721 0.978933 0.342265
C36   C     C_2   0.810594 0.813831 0.048162 0.310644
C37   C     C_2   0.767334 0.327535 0.011833 -0.289178
C38   C     C_2   0.242676 0.334845 0.975803 -0.317606
C39   C     C_2   0.267702 0.828348 0.012920 -0.287327
C40   C     C_2   0.742770 0.834768 0.975916 -0.317820
C41   C     C_2   0.327997 0.710535 0.081821 -0.402942
C42   C     C_2   0.670572 0.721139 0.909275 -0.310389
C43   C     C_2   0.827695 0.209866 0.081124 -0.403782
C44   C     C_2   0.170561 0.221153 0.909259 -0.310617
C45   C     C_R   0.615485 0.397703 0.412168 -0.189561
C46   C     C_R   0.382072 0.403270 0.585990 -0.218330
C47   C     C_R   0.115495 0.897731 0.412172 -0.189559
C48   C     C_R   0.882025 0.903416 0.585964 -0.218562
C49   C     C_2   0.315041 0.778176 0.105046 0.500366
C50   C     C_2   0.690244 0.784096 0.886169 0.463134
C51   C     C_2   0.814800 0.277612 0.104179 0.500496
C52   C     C_2   0.190185 0.284125 0.886097 0.463362
C53   C     C_R   0.688946 0.399207 0.594098 0.187751
C54   C     C_R   0.309592 0.402061 0.404866 0.191078
C55   C     C_R   0.188959 0.899249 0.594098 0.187832
C56   C     C_R   0.809573 0.902129 0.404859 0.191113
C57   C     C_R   0.578971 0.390659 0.801585 0.178545
C58   C     C_R   0.424485 0.383537 0.204925 0.193314
C59   C     C_R   0.078897 0.890448 0.801430 0.178355
C60   C     C_R   0.924516 0.883431 0.205014 0.193096
C61   C     C_R   0.357308 0.354914 0.152705 0.015616
C62   C     C_R   0.651028 0.377124 0.865340 -0.018518
C63   C     C_R   0.857366 0.854752 0.152872 0.015852
C64   C     C_R   0.150966 0.876815 0.865236 -0.018191
C65   C     C_R   0.682470 0.379494 0.503877 0.073641
C66   C     C_R   0.314535 0.386014 0.494391 0.078192
C67   C     C_R   0.182485 0.879544 0.503880 0.073657
C68   C     C_R   0.814487 0.886170 0.494373 0.078252
C69   C     C_R   0.338096 0.641741 0.408657 -0.128876
C70   C     C_R   0.665618 0.639663 0.592995 -0.134004
C71   C     C_R   0.838149 0.141781 0.408652 -0.128938
C72   C     C_R   0.165536 0.139732 0.592972 -0.134062
C73   C     C_R   0.428459 0.622317 0.212409 -0.147789
C74   C     C_R   0.571555 0.624894 0.786249 -0.138084
C75   C     C_R   0.928360 0.122079 0.212165 -0.147087
C76   C     C_R   0.071558 0.124888 0.786258 -0.138161
C77   C     C_R   0.661613 0.623535 0.785223 -0.065945
C78   C     C_R   0.337650 0.620177 0.211863 -0.095518
C79   C     C_R   0.161617 0.123525 0.785241 -0.066238
C80   C     C_R   0.837559 0.119952 0.211644 -0.095975
H1    H     H_    0.284750 0.376260 0.183105 0.133803
H2    H     H_    0.720261 0.416030 0.835136 0.137100
H3    H     H_    0.784802 0.876092 0.183258 0.133849
H4    H     H_    0.220209 0.915635 0.834916 0.136714
H5    H     H_    0.731211 0.761180 0.585841 0.139985
H6    H     H_    0.277572 0.766536 0.415192 0.152008
H7    H     H_    0.230977 0.261396 0.585870 0.140018
H8    H     H_    0.777672 0.266639 0.415185 0.151917
H9    H     H_    0.200326 0.304634 0.344258 0.131812
H10   H     H_    0.786281 0.288696 0.645239 0.132968
H11   H     H_    0.700246 0.804821 0.344194 0.131815
H12   H     H_    0.286375 0.788857 0.645381 0.133004
H13   H     H_    0.262497 0.380190 0.565986 0.154950
H14   H     H_    0.738195 0.375411 0.438391 0.158996
H15   H     H_    0.762472 0.880267 0.566006 0.155019
H16   H     H_    0.238173 0.875381 0.438338 0.158928
H17   H     H_    0.779184 0.331562 0.957031 0.094836
H18   H     H_    0.224330 0.386710 0.988019 0.128593
H19   H     H_    0.280297 0.833500 0.959226 0.094513
H20   H     H_    0.724476 0.886720 0.988070 0.128716
H21   H     H_    0.306870 0.695839 0.999012 0.136241
H22   H     H_    0.686820 0.712904 0.990499 0.140995
H23   H     H_    0.806323 0.194852 0.998281 0.136397
H24   H     H_    0.186820 0.212937 0.990495 0.140845
H25   H     H_    0.600716 0.404897 0.332873 0.148418
H26   H     H_    0.396087 0.415483 0.663804 0.142469
H27   H     H_    0.100731 0.904943 0.332883 0.148344
H28   H     H_    0.896041 0.915714 0.663770 0.142474
H29   H     H_    0.296871 0.658213 0.324950 0.126657
H30   H     H_    0.708828 0.654477 0.677010 0.126124
H31   H     H_    0.796977 0.158282 0.324934 0.126395
H32   H     H_    0.208735 0.154572 0.676980 0.126231
H33   H     H_    0.458384 0.629924 0.185062 0.094381
H34   H     H_    0.542366 0.632245 0.814849 0.088210
H35   H     H_    0.958268 0.129602 0.184770 0.094280
H36   H     H_    0.042369 0.132238 0.814858 0.088218
H37   H     H_    0.714447 0.629764 0.813810 0.137676
H38   H     H_    0.284644 0.625441 0.182763 0.112698
H39   H     H_    0.214455 0.129752 0.813838 0.137694
H40   H     H_    0.784552 0.125177 0.182558 0.112117
H41   H     H_    0.433781 0.651459 0.675350 0.080592
H42   H     H_    0.568160 0.651204 0.326124 0.087154
H43   H     H_    0.933808 0.151489 0.675342 0.080588
H44   H     H_    0.067979 0.151321 0.326082 0.087198
H45   H     H_    0.601881 0.773760 0.340604 0.126824
H46   H     H_    0.391464 0.763668 0.666901 0.121711
H47   H     H_    0.101884 0.273695 0.340460 0.126862
H48   H     H_    0.891431 0.263622 0.666902 0.121693
N1    N     N_R   0.389060 0.424180 0.294540 -0.053876
N2    N     N_R   0.610940 0.424180 0.705460 -0.048722
N3    N     N_R   0.889060 0.924180 0.294540 -0.053917
N4    N     N_R   0.110940 0.924180 0.705460 -0.048729
N5    N     N_R   0.579670 0.423790 0.443360 -0.053317
N6    N     N_R   0.420330 0.423790 0.556640 -0.051324
N7    N     N_R   0.079670 0.923790 0.443360 -0.053299
N8    N     N_R   0.920330 0.923790 0.556640 -0.051333
N9    N     N_R   0.625470 0.423490 0.556600 -0.056989
N10   N     N_R   0.374530 0.423490 0.443400 -0.054295
N11   N     N_R   0.125470 0.923490 0.556600 -0.056959
N12   N     N_R   0.874530 0.923490 0.443400 -0.054261
N13   N     N_R   0.555250 0.423100 0.705420 -0.058013
N14   N     N_R   0.444750 0.423100 0.294580 -0.059146
N15   N     N_R   0.055250 0.923100 0.705420 -0.058066
N16   N     N_R   0.944750 0.923100 0.294580 -0.059145
N17   N     N_R   0.375210 0.577180 0.443400 -0.052986
N18   N     N_R   0.624790 0.577180 0.556600 -0.053740
N19   N     N_R   0.875210 0.077180 0.443400 -0.052949
N20   N     N_R   0.124790 0.077180 0.556600 -0.053771
N21   N     N_R   0.445430 0.577570 0.294580 -0.046410
N22   N     N_R   0.554570 0.577570 0.705420 -0.042012
N23   N     N_R   0.945430 0.077570 0.294580 -0.046379
N24   N     N_R   0.054570 0.077570 0.705420 -0.041985
N25   N     N_R   0.611620 0.576500 0.705460 -0.055991
N26   N     N_R   0.388380 0.576500 0.294540 -0.052075
N27   N     N_R   0.111620 0.076500 0.705460 -0.055983
N28   N     N_R   0.888380 0.076500 0.294540 -0.051929
N29   N     N_R   0.421010 0.576890 0.556640 -0.042825
N30   N     N_R   0.578990 0.576890 0.443360 -0.046419
N31   N     N_R   0.921010 0.076890 0.556640 -0.042815
N32   N     N_R   0.078990 0.076890 0.443360 -0.046477
Ni1   Ni    Ni4+2 0.383200 0.500680 0.370150 0.215097
Ni2   Ni    Ni4+2 0.616800 0.500680 0.629850 0.216522
Ni3   Ni    Ni4+2 0.883200 0.000680 0.370150 0.215109
Ni4   Ni    Ni4+2 0.116800 0.000680 0.629850 0.216520
Ni5   Ni    Ni4+2 0.512440 0.500680 0.370150 0.211475
Ni6   Ni    Ni4+2 0.487560 0.500680 0.629850 0.213568
Ni7   Ni    Ni4+2 0.012440 0.000680 0.370150 0.211452
Ni8   Ni    Ni4+2 0.987560 0.000680 0.629850 0.213505
Br1   Br    Br    0.360260 0.811506 0.253177 -0.463005
Br2   Br    Br    0.657051 0.808078 0.741696 -0.529014
Br3   Br    Br    0.860518 0.311400 0.252327 -0.462119
Br4   Br    Br    0.156981 0.308061 0.741608 -0.528878
Br5   Br    Br    0.682763 0.336747 0.076290 -0.577067
Br6   Br    Br    0.345621 0.224349 0.026282 -0.590580
Br7   Br    Br    0.182007 0.834633 0.075215 -0.578438
Br8   Br    Br    0.845630 0.724044 0.026600 -0.590168
C81   C     C_3   0.758626 0.413718 0.709230 -0.477915
C82   C     C_3   0.769770 0.496559 0.748954 -0.296679
C83   C     C_3   0.839663 0.506966 0.865259 -0.853899
H49   H     H_    0.841093 0.469956 0.923470 0.261441
H50   H     H_    0.884484 0.492380 0.868080 0.259584
H51   H     H_    0.845644 0.567579 0.891465 0.279078
H52   H     H_    0.770174 0.534239 0.693090 0.210683
H53   H     H_    0.727292 0.514142 0.749224 0.207107
H54   H     H_    0.764179 0.371957 0.766538 0.178186
H55   H     H_    0.804090 0.403665 0.712953 0.211640
C84   C     C_3   0.239605 0.417849 0.290378 -0.479036
C85   C     C_3   0.234267 0.492863 0.236374 -0.282899
C86   C     C_3   0.164667 0.497399 0.118890 -0.903301
H56   H     H_    0.160811 0.450382 0.067952 0.256184
H57   H     H_    0.119386 0.493313 0.117882 0.271683
H58   H     H_    0.161883 0.552941 0.082426 0.258607
H59   H     H_    0.236364 0.541006 0.283856 0.209251
H60   H     H_    0.276928 0.498546 0.232895 0.213112
H61   H     H_    0.224981 0.367722 0.236430 0.180251
H62   H     H_    0.196976 0.423430 0.294945 0.213765
C87   C     C_3   0.258658 0.913818 0.709201 -0.478096
C88   C     C_3   0.269714 0.996610 0.749047 -0.296577
C89   C     C_3   0.339602 0.007003 0.865360 -0.854486
H63   H     H_    0.341063 0.969903 0.923527 0.261187
H64   H     H_    0.384433 0.992527 0.868158 0.259656
H65   H     H_    0.345538 0.067588 0.891640 0.279191
H66   H     H_    0.270078 0.034402 0.693238 0.210664
H67   H     H_    0.227228 0.014053 0.749362 0.207204
H68   H     H_    0.264348 0.871949 0.766517 0.178216
H69   H     H_    0.304091 0.903961 0.712787 0.211682
C90   C     C_3   0.739593 0.917917 0.290359 -0.479051
C91   C     C_3   0.734286 0.992858 0.236253 -0.282807
C92   C     C_3   0.664685 0.997355 0.118763 -0.904020
H70   H     H_    0.660800 0.950260 0.067896 0.256328
H71   H     H_    0.619406 0.993372 0.117768 0.271717
H72   H     H_    0.661924 0.052838 0.082205 0.258315
H73   H     H_    0.736413 0.041075 0.283666 0.209170
H74   H     H_    0.776944 0.998435 0.232759 0.213181
H75   H     H_    0.724933 0.867745 0.236457 0.180284
H76   H     H_    0.696978 0.923601 0.294946 0.213736
C93   C     C_3   0.532452 0.357412 0.822529 -0.405988
C94   C     C_3   0.512960 0.416282 0.870755 -0.252340
C95   C     C_3   0.461231 0.381001 0.882468 -0.879761
H77   H     H_    0.415891 0.352877 0.805188 0.254376
H78   H     H_    0.488242 0.337104 0.947918 0.281642
H79   H     H_    0.440152 0.426172 0.903376 0.256870
H80   H     H_    0.560942 0.435892 0.952713 0.241777
H81   H     H_    0.489541 0.467823 0.818072 0.176208
H82   H     H_    0.485636 0.331153 0.745914 0.185707
H83   H     H_    0.558213 0.307731 0.877974 0.226134
C96   C     C_3   0.460349 0.385971 0.155775 -0.418853
C97   C     C_3   0.481187 0.467905 0.150535 -0.300212
C98   C     C_3   0.533237 0.470199 0.128595 -0.896688
H84   H     H_    0.585583 0.491431 0.202446 0.250186
H85   H     H_    0.540853 0.412829 0.107827 0.288024
H86   H     H_    0.514364 0.510205 0.060583 0.249801
H87   H     H_    0.432633 0.499478 0.084958 0.200676
H88   H     H_    0.506346 0.498405 0.228913 0.206233
H89   H     H_    0.505716 0.346726 0.202270 0.203775
H90   H     H_    0.424494 0.363120 0.070555 0.224647
C99   C     C_3   0.032245 0.857023 0.822002 -0.405369
C100  C     C_3   0.012943 0.915601 0.870798 -0.252461
C101  C     C_3   0.961122 0.880182 0.882218 -0.879600
H91   H     H_    0.915761 0.852261 0.804753 0.254372
H92   H     H_    0.988051 0.836109 0.947416 0.281912
H93   H     H_    0.940080 0.925236 0.903344 0.256872
H94   H     H_    0.060989 0.934872 0.952909 0.241831
H95   H     H_    0.989666 0.967362 0.818582 0.176148
H96   H     H_    0.985363 0.831109 0.745153 0.185635
H97   H     H_    0.057748 0.807017 0.876799 0.226542
C102  C     C_3   0.960380 0.885759 0.155867 -0.418799
C103  C     C_3   0.981125 0.967672 0.150368 -0.299995
C104  C     C_3   0.033083 0.969886 0.128244 -0.897210
H98   H     H_    0.085484 0.991040 0.202051 0.250211
H99   H     H_    0.040579 0.912500 0.107334 0.288158
H100  H     H_    0.014188 0.009914 0.060244 0.249754
H101  H     H_    0.932526 0.999167 0.084756 0.200680
H102  H     H_    0.006315 0.998269 0.228696 0.206095
H103  H     H_    0.005790 0.846576 0.202490 0.203868
H104  H     H_    0.924550 0.862772 0.070720 0.224613

loop_
_geom_bond_atom_site_label_1
_geom_bond_atom_site_label_2
_ccdc_geom_bond_type
C15   C75   A    
C72   H32   S    
C18   C28   S    
N5    N9    A    
C91   H73   S    
C100  H95   S    
C84   H62   S    
C69   N17   A    
N26   Ni1   S    
C87   H68   S    
C101  H91   S    
N8    N12   A    
N19   N31   A    
C52   Br4   S    
C37   H17   S    
C82   C83   S    
C44   H24   S    
C73   H33   S    
C57   C62   A    
C4    N4    A    
C54   N10   A    
N12   Ni3   S    
N7    N11   A    
C96   H90   S    
N18   Ni2   S    
C12   C23   S    
C96   C97   S    
C59   C64   A    
C20   C26   S    
C60   C63   A    
C3    N3    A    
C14   C74   A    
N11   Ni4   S    
C59   C99   S    
C9    C69   A    
C46   C66   A    
C98   H86   S    
C77   H37   S    
N9    Ni2   S    
C56   N12   A    
C11   C71   A    
C9    C22   S    
N32   Ni7   S    
C38   C52   S    
C76   N24   A    
C81   H54   S    
C1    H1    S    
C74   H34   S    
C5    H41   S    
C11   C24   S    
C92   H72   S    
C55   N11   A    
N31   Ni8   S    
N20   N32   A    
C14   C77   A    
C41   C49   D    
C86   H57   S    
N2    N13   A    
C7    C11   A    
C70   H30   S    
C77   N25   A    
C100  C101  S    
C45   C65   A    
C69   H29   S    
C82   H53   S    
C20   C24   D    
N28   Ni3   S    
C75   N23   A    
C91   C92   S    
N22   N25   A    
C71   H31   S    
C89   H65   S    
N6    Ni6   S    
C27   H11   S    
C88   C89   S    
C70   N18   A    
C101  H93   S    
C36   C63   S    
C53   C65   A    
C16   C44   S    
C97   H88   S    
C82   H52   S    
C7    N31   A    
C38   H18   S    
C93   H83   S    
C14   C42   S    
C83   H51   S    
C47   N7    A    
C102  H104  S    
N2    Ni2   S    
N4    N15   A    
C22   H6    S    
C12   C72   A    
C85   H60   S    
C89   H63   S    
C34   C38   D    
C99   C100  S    
C23   H7    S    
C57   C93   S    
C87   H69   S    
C86   H56   S    
C94   H80   S    
C42   H22   S    
C28   C32   D    
C47   C67   A    
C97   C98   S    
C6    N30   A    
C45   H25   S    
C80   N28   A    
C43   H23   S    
N4    Ni4   S    
N23   Ni7   S    
C10   C21   S    
C25   C29   D    
C31   C68   S    
C5    N29   A    
C21   H5    S    
C104  H99   S    
C95   H79   S    
N16   Ni7   S    
C27   C31   D    
C90   C91   S    
C17   C27   S    
C36   C40   D    
N21   Ni5   S    
C50   Br2   S    
C95   H77   S    
C103  H101  S    
C8    H44   S    
N1    N14   A    
N8    Ni8   S    
C93   C94   S    
C72   N20   A    
C33   C62   S    
C100  H94   S    
C34   C61   S    
C33   C37   D    
C81   H55   S    
C83   H49   S    
C79   H39   S    
C85   C86   S    
C1    C61   A    
N20   Ni4   S    
N29   Ni6   S    
C86   H58   S    
C19   C23   D    
N21   N26   A    
C17   H45   S    
N22   Ni6   S    
C5    C9    A    
C98   H84   S    
C34   Br6   S    
N5    Ni5   S    
C46   N6    A    
N17   N29   A    
C45   N5    A    
C58   N14   A    
C39   H19   S    
C15   C80   A    
C4    H4    S    
N24   N27   A    
N3    Ni3   S    
C8    C12   A    
C90   H75   S    
C92   H70   S    
C104  H98   S    
N1    Ni1   S    
C101  H92   S    
N23   N28   A    
C48   C68   A    
C94   H81   S    
C24   H8    S    
N13   Ni6   S    
C97   H87   S    
C35   C64   S    
C73   N21   A    
C42   C50   D    
C32   C67   S    
N18   N30   A    
C10   C70   A    
C31   H15   S    
C32   H16   S    
C13   C73   A    
C85   H59   S    
C36   Br8   S    
C47   H27   S    
C54   C84   S    
C88   H67   S    
C48   H28   S    
C53   N9    A    
C80   H40   S    
C2    H2    S    
C75   H35   S    
C6    H42   S    
C8    N32   A    
C49   Br1   S    
C2    N2    A    
C33   Br5   S    
C103  C104  S    
C99   H96   S    
C13   C78   A    
C92   H71   S    
C104  H100  S    
C91   H74   S    
C78   H38   S    
C16   C76   A    
C25   H9    S    
C48   N8    A    
C78   N26   A    
C7    H43   S    
C53   C81   S    
C44   C52   D    
N6    N10   A    
C55   C67   A    
C102  C103  S    
C39   C49   S    
C20   H48   S    
C13   C41   S    
C54   C66   A    
C3    C63   A    
N27   Ni4   S    
C26   H10   S    
C79   N27   A    
C96   H89   S    
C4    C64   A    
C1    N1    A    
C57   N13   A    
N25   Ni2   S    
C40   H20   S    
C16   C79   A    
C35   Br7   S    
C18   C22   D    
C84   H61   S    
C15   C43   S    
C84   C85   S    
C98   H85   S    
C56   C68   A    
C60   N16   A    
N14   Ni5   S    
C29   H13   S    
C43   C51   D    
C94   C95   S    
C55   C87   S    
C56   C90   S    
N17   Ni1   S    
C58   C61   A    
C37   C51   S    
C35   C39   D    
C46   H26   S    
C51   Br3   S    
C90   H76   S    
C76   H36   S    
C41   H21   S    
C99   H97   S    
N10   Ni1   S    
C103  H102  S    
C95   H78   S    
N24   Ni8   S    
C87   C88   S    
C19   C25   S    
C17   C21   D    
N15   Ni8   S    
C30   C65   S    
C6    C10   A    
N3    N16   A    
C59   N15   A    
C29   C66   S    
C28   H12   S    
C71   N19   A    
C40   C50   S    
C3    H3    S    
C60   C102  S    
C30   H14   S    
C81   C82   S    
C88   H66   S    
C89   H64   S    
N7    Ni7   S    
C74   N22   A    
N19   Ni3   S    
C19   H47   S    
C18   H46   S    
C58   C96   S    
C2    C62   A    
N30   Ni5   S    
C93   H82   S    
C83   H50   S    
C26   C30   D    
C102  H103  S    
