data_mof_unit_61992.cif
_audit_creation_date              2012-12-10T18:22:27-0500
_audit_creation_method            fapswitch 2.2
_symmetry_space_group_name_H-M    P1
_symmetry_Int_Tables_number       1
_space_group_crystal_system       triclinic
_cell_length_a                    47.893796
_cell_length_b                    35.65839
_cell_length_c                    32.023709
_cell_angle_alpha                 89.999987
_cell_angle_beta                  131.906306
_cell_angle_gamma                 90.000029
_cell_volume                      40702.8186893

loop_
_atom_site_label
_atom_site_type_symbol
_atom_type_description
_atom_site_fract_x
_atom_site_fract_y
_atom_site_fract_z
_atom_type_partial_charge
C1    C     C_R   0.072391 0.000023 0.572420 0.787998
C2    C     C_R   0.927609 0.000023 0.427579 0.788083
C3    C     C_R   0.572391 0.500023 0.572421 0.788045
C4    C     C_R   0.427609 0.500023 0.427581 0.787913
C5    C     C_3   0.960560 0.987124 0.185748 -0.387996
C6    C     C_3   0.040445 0.990744 0.815261 -0.387908
C7    C     C_3   0.458926 0.494176 0.184110 -0.387857
C8    C     C_3   0.539727 0.488039 0.814540 -0.387970
C9    C     C_3   0.961321 0.983648 0.235024 0.037856
C10   C     C_3   0.040005 0.987210 0.766305 0.037742
C11   C     C_3   0.459067 0.490616 0.232767 0.037665
C12   C     C_3   0.539047 0.484544 0.765344 0.037819
C13   C     C_1   0.999739 0.999965 0.162320 -0.100434
C14   C     C_1   0.000261 0.999993 0.837680 -0.100441
C15   C     C_1   0.499744 0.500028 0.162324 -0.100449
C16   C     C_1   0.500261 0.499972 0.837680 -0.100436
C17   C     C_1   0.999668 0.999928 0.337122 -0.104676
C18   C     C_1   0.000345 0.999951 0.662891 -0.104706
C19   C     C_1   0.499656 0.499977 0.337110 -0.104746
C20   C     C_1   0.500334 0.499934 0.662881 -0.104676
C21   C     C_1   0.999915 0.999992 0.375038 -0.184652
C22   C     C_1   0.000092 0.999995 0.624969 -0.184647
C23   C     C_1   0.499909 0.499999 0.375033 -0.184638
C24   C     C_1   0.500087 0.499993 0.624964 -0.184646
C25   C     C_R   0.326877 0.000154 0.864835 -0.159849
C26   C     C_R   0.673123 0.000153 0.135163 -0.159831
C27   C     C_R   0.826877 0.500154 0.864836 -0.159835
C28   C     C_R   0.173124 0.500155 0.135168 -0.159871
C29   C     C_R   0.366085 0.000159 0.904040 -0.193277
C30   C     C_R   0.633914 0.000158 0.095959 -0.193276
C31   C     C_R   0.866086 0.500158 0.904041 -0.193279
C32   C     C_R   0.133916 0.500159 0.095962 -0.193283
C33   C     C_R   0.386112 0.000147 0.886181 -0.037341
C34   C     C_R   0.613888 0.000146 0.113818 -0.037344
C35   C     C_R   0.886112 0.500147 0.886181 -0.037342
C36   C     C_R   0.113888 0.500147 0.113820 -0.037337
C37   C     C_R   0.366075 0.000135 0.828310 -0.193234
C38   C     C_R   0.633925 0.000135 0.171689 -0.193228
C39   C     C_R   0.866075 0.500135 0.828311 -0.193230
C40   C     C_R   0.133924 0.500135 0.171690 -0.193238
C41   C     C_R   0.326868 0.000131 0.789197 -0.159641
C42   C     C_R   0.673133 0.000130 0.210802 -0.159646
C43   C     C_R   0.826867 0.500131 0.789198 -0.159649
C44   C     C_R   0.173131 0.500132 0.210804 -0.159638
C45   C     C_R   0.000039 0.000013 0.419987 0.836699
C46   C     C_R   0.999962 0.000013 0.580014 0.836609
C47   C     C_R   0.500039 0.500013 0.419987 0.836525
C48   C     C_R   0.499961 0.500013 0.580014 0.836669
C49   C     C_R   0.307219 0.000139 0.807387 0.147536
C50   C     C_R   0.692781 0.000138 0.192611 0.147528
C51   C     C_R   0.807219 0.500139 0.807389 0.147533
C52   C     C_R   0.192781 0.500140 0.192616 0.147547
C53   C     C_1   0.266897 0.000125 0.767111 -0.068301
C54   C     C_1   0.733103 0.000123 0.232887 -0.068284
C55   C     C_1   0.766897 0.500124 0.767112 -0.068291
C56   C     C_1   0.233103 0.500126 0.232894 -0.068317
C57   C     C_1   0.233105 0.000110 0.733338 -0.068526
C58   C     C_1   0.766895 0.000108 0.266658 -0.068502
C59   C     C_1   0.733105 0.500109 0.733341 -0.068511
C60   C     C_1   0.266895 0.500111 0.266668 -0.068550
C61   C     C_R   0.173149 0.966119 0.673290 -0.161914
C62   C     C_R   0.826851 0.966117 0.326689 -0.161844
C63   C     C_R   0.673149 0.466118 0.673307 -0.161866
C64   C     C_R   0.326851 0.466119 0.326728 -0.161966
C65   C     C_R   0.133941 0.966055 0.634023 -0.195682
C66   C     C_R   0.866059 0.966055 0.365957 -0.195588
C67   C     C_R   0.633941 0.466055 0.634039 -0.195608
C68   C     C_R   0.366059 0.466056 0.365993 -0.195713
C69   C     C_R   0.113886 0.000045 0.613992 -0.034756
C70   C     C_R   0.886114 0.000045 0.386005 -0.034651
C71   C     C_R   0.613886 0.500045 0.613994 -0.034679
C72   C     C_R   0.386113 0.500045 0.386012 -0.034856
C73   C     C_R   0.133904 0.034057 0.634119 -0.194230
C74   C     C_R   0.866096 0.034056 0.365894 -0.194205
C75   C     C_R   0.633904 0.534056 0.634108 -0.194216
C76   C     C_R   0.366096 0.534057 0.365875 -0.194309
C77   C     C_R   0.173112 0.034036 0.673387 -0.161531
C78   C     C_R   0.826888 0.034036 0.326625 -0.161501
C79   C     C_R   0.673112 0.534036 0.673377 -0.161514
C80   C     C_R   0.326888 0.534037 0.326609 -0.161580
C81   C     C_R   0.192783 0.000088 0.693013 0.147545
C82   C     C_R   0.807217 0.000087 0.306983 0.147560
C83   C     C_R   0.692783 0.500088 0.693016 0.147555
C84   C     C_R   0.307217 0.500089 0.306994 0.147524
C85   C     C_R   0.000000 0.072306 1.000000 0.811991
C86   C     C_R   0.500000 0.572306 0.000000 0.811990
C87   C     C_3   0.007261 0.039809 0.281267 -0.359653
C88   C     C_3   0.989169 0.038985 0.715163 -0.359755
C89   C     C_3   0.514071 0.537942 0.288080 -0.359873
C90   C     C_3   0.491820 0.539630 0.717815 -0.359676
C91   C     C_R   0.000000 0.999934 0.080066 0.835252
C92   C     C_R   1.000000 0.999935 0.919934 0.835255
C93   C     C_R   0.500000 0.499937 0.080066 0.835259
C94   C     C_R   0.500000 0.499935 0.919934 0.835255
C95   C     C_R   1.000000 0.927517 1.000000 0.788480
C96   C     C_R   0.500000 0.427517 1.000000 0.788492
C97   C     C_R   0.500000 0.927687 0.000000 0.798121
C98   C     C_R   0.000000 0.427687 0.000000 0.798123
C99   C     C_R   0.427600 0.000140 0.927617 0.797996
C100  C     C_R   0.572400 0.000140 0.072383 0.797998
C101  C     C_R   0.927600 0.500140 0.927617 0.798000
C102  C     C_R   0.072400 0.500140 0.072383 0.797995
C103  C     C_R   0.500000 0.072536 1.000000 0.797954
C104  C     C_R   0.000000 0.572536 1.000000 0.797953
C105  C     C_R   0.500046 0.827035 0.962229 -0.161878
C106  C     C_R   0.499954 0.827035 0.037772 -0.161880
C107  C     C_R   0.000046 0.327035 0.962229 -0.161879
C108  C     C_R   0.999954 0.327035 0.037772 -0.161878
C109  C     C_R   0.500046 0.866219 0.962182 -0.193224
C110  C     C_R   0.499954 0.866219 0.037818 -0.193224
C111  C     C_R   0.000046 0.366219 0.962182 -0.193227
C112  C     C_R   0.999954 0.366219 0.037818 -0.193225
C113  C     C_R   0.500000 0.886232 0.000000 -0.036928
C114  C     C_R   0.000000 0.386232 0.000000 -0.036927
C115  C     C_R   0.500000 0.807408 0.000000 0.149383
C116  C     C_R   0.000000 0.307408 0.000000 0.149384
C117  C     C_1   0.500000 0.767138 0.000001 -0.073542
C118  C     C_1   0.000000 0.267138 0.000000 -0.073542
C119  C     C_3   0.030991 0.974239 0.305425 -0.446371
C120  C     C_3   0.971473 0.971538 0.697037 -0.446140
C121  C     C_3   0.526041 0.469249 0.300477 -0.445914
C122  C     C_3   0.469614 0.473529 0.695180 -0.446318
C123  C     C_1   0.000000 0.233375 0.000000 -0.091462
C124  C     C_1   0.500000 0.733375 0.000001 -0.091464
C125  C     C_R   0.965447 0.173173 0.965475 0.156179
C126  C     C_R   0.034553 0.173173 0.034525 0.156179
C127  C     C_R   0.465447 0.673173 0.965487 0.156178
C128  C     C_R   0.534553 0.673173 0.034516 0.156178
C129  C     C_R   0.966055 0.133693 0.966081 -0.190468
C130  C     C_R   0.033945 0.133693 0.033918 -0.190467
C131  C     C_R   0.466055 0.633693 0.966092 -0.190467
C132  C     C_R   0.533945 0.633693 0.033910 -0.190473
C133  C     C_R   0.000000 0.113856 1.000000 -0.139165
C134  C     C_R   0.500000 0.613856 0.000001 -0.139167
C135  C     C_R   0.000000 0.192789 0.000000 0.017422
C136  C     C_R   0.500000 0.692789 0.000001 0.017418
C137  C     C_R   0.500012 0.173204 0.037828 -0.159785
C138  C     C_R   0.499988 0.173203 0.962172 -0.159805
C139  C     C_R   0.000012 0.673203 0.037828 -0.159810
C140  C     C_R   0.999988 0.673203 0.962172 -0.159800
C141  C     C_R   0.500012 0.134016 0.037874 -0.193231
C142  C     C_R   0.499988 0.134016 0.962126 -0.193231
C143  C     C_R   0.000012 0.634016 0.037874 -0.193236
C144  C     C_R   0.999988 0.634016 0.962126 -0.193240
C145  C     C_R   0.500000 0.113998 1.000000 -0.037054
C146  C     C_R   1.000000 0.613998 1.000000 -0.037049
C147  C     C_R   0.500000 0.192841 1.000000 0.147634
C148  C     C_R   1.000000 0.692841 1.000000 0.147643
C149  C     C_1   0.500000 0.233134 1.000000 -0.068252
C150  C     C_1   1.000000 0.733135 1.000000 -0.068266
C151  C     C_3   0.030081 0.973164 0.255971 -0.384640
C152  C     C_3   0.972473 0.970553 0.746581 -0.384851
C153  C     C_3   0.524965 0.468359 0.250857 -0.385032
C154  C     C_3   0.470548 0.472476 0.744658 -0.384698
C155  C     C_1   1.000000 0.766905 1.000000 -0.068485
C156  C     C_1   0.500000 0.266905 0.999999 -0.068469
C157  C     C_R   0.966026 0.826836 0.966042 -0.161763
C158  C     C_R   0.033974 0.826836 0.033957 -0.161768
C159  C     C_R   0.466026 0.326836 0.966041 -0.161751
C160  C     C_R   0.533974 0.326836 0.033958 -0.161746
C161  C     C_R   0.965984 0.866024 0.966000 -0.194860
C162  C     C_R   0.034016 0.866024 0.033999 -0.194866
C163  C     C_R   0.465984 0.366024 0.966000 -0.194854
C164  C     C_R   0.534016 0.366024 0.034000 -0.194850
C165  C     C_R   1.000000 0.886047 1.000000 -0.034596
C166  C     C_R   0.500000 0.386047 1.000000 -0.034597
C167  C     C_R   1.000000 0.807199 1.000000 0.147580
C168  C     C_R   0.500000 0.307199 0.999999 0.147577
C169  C     C_1   0.999920 0.999957 0.124823 -0.178507
C170  C     C_1   0.000080 0.999970 0.875177 -0.178508
C171  C     C_1   0.499921 0.499987 0.124825 -0.178507
C172  C     C_1   0.500081 0.499961 0.875177 -0.178510
C173  C     C_3   0.999128 0.999848 0.290500 0.317197
C174  C     C_3   0.000888 0.999922 0.709516 0.317188
C175  C     C_3   0.499113 0.499998 0.290486 0.317177
C176  C     C_3   0.500876 0.499867 0.709504 0.317198
C177  C     C_3   0.007003 0.039878 0.232597 -0.382255
C178  C     C_3   0.989417 0.039080 0.763823 -0.382139
C179  C     C_3   0.513829 0.538065 0.239425 -0.381998
C180  C     C_3   0.492077 0.539705 0.766483 -0.382230
C181  C     C_3   0.999398 0.999945 0.208037 0.291820
C182  C     C_3   0.000605 0.000001 0.791967 0.291824
C183  C     C_3   0.499402 0.500062 0.208041 0.291824
C184  C     C_3   0.500603 0.499959 0.791965 0.291822
Cu1   Cu    Cu3+1 0.000000 0.037300 0.500000 0.938321
Cu2   Cu    Cu3+1 0.500000 0.537300 0.500000 0.938312
Cu3   Cu    Cu3+1 0.000000 0.962740 0.500000 0.936453
Cu4   Cu    Cu3+1 0.500000 0.462740 0.500000 0.936600
Cu5   Cu    Cu3+1 0.037280 0.999890 0.037280 0.937995
Cu6   Cu    Cu3+1 0.962720 0.999890 0.962720 0.938014
Cu7   Cu    Cu3+1 0.537280 0.499890 0.037280 0.938005
Cu8   Cu    Cu3+1 0.462720 0.499890 0.962720 0.937979
Cu9   Cu    Cu3+1 0.500020 0.000110 0.958700 0.932681
Cu10  Cu    Cu3+1 0.499980 0.000110 0.041300 0.932685
Cu11  Cu    Cu3+1 0.000020 0.500110 0.958700 0.932665
Cu12  Cu    Cu3+1 0.999980 0.500110 0.041300 0.932673
H1    H     H_    0.034499 0.050242 0.248295 0.165483
H2    H     H_    0.961096 0.046916 0.747297 0.165589
H3    H     H_    0.542707 0.543502 0.256506 0.165677
H4    H     H_    0.464349 0.549432 0.750553 0.165510
H5    H     H_    0.987236 0.060903 0.273178 0.171054
H6    H     H_    0.007203 0.061803 0.721262 0.171081
H7    H     H_    0.498020 0.562192 0.283968 0.171091
H8    H     H_    0.511352 0.561181 0.725412 0.171061
H9    H     H_    0.985082 0.059600 0.199275 0.160653
H10   H     H_    0.009463 0.060705 0.795270 0.160569
H11   H     H_    0.495666 0.561294 0.209865 0.160505
H12   H     H_    0.513536 0.559929 0.799343 0.160629
H13   H     H_    0.953063 0.959480 0.164401 0.138421
H14   H     H_    0.050413 0.963893 0.839079 0.138532
H15   H     H_    0.446741 0.468256 0.158075 0.138641
H16   H     H_    0.547861 0.460576 0.836523 0.138451
H17   H     H_    0.311904 0.000161 0.879325 0.130431
H18   H     H_    0.688095 0.000159 0.120673 0.130457
H19   H     H_    0.811905 0.500160 0.879327 0.130449
H20   H     H_    0.188098 0.500162 0.120680 0.130403
H21   H     H_    0.380678 0.000168 0.948274 0.151488
H22   H     H_    0.619321 0.000167 0.051724 0.151494
H23   H     H_    0.880679 0.500168 0.948275 0.151491
H24   H     H_    0.119323 0.500168 0.051728 0.151478
H25   H     H_    0.311888 0.000119 0.744792 0.130635
H26   H     H_    0.688113 0.000118 0.255207 0.130633
H27   H     H_    0.811887 0.500118 0.744792 0.130629
H28   H     H_    0.188111 0.500120 0.255210 0.130635
H29   H     H_    0.119374 0.939408 0.619382 0.152309
H30   H     H_    0.880626 0.939407 0.380585 0.152277
H31   H     H_    0.619374 0.439408 0.619409 0.152299
H32   H     H_    0.380625 0.439408 0.380642 0.152354
H33   H     H_    0.119308 0.060689 0.619557 0.152505
H34   H     H_    0.880691 0.060688 0.380470 0.152466
H35   H     H_    0.619308 0.560689 0.619534 0.152474
H36   H     H_    0.380692 0.560689 0.380429 0.152543
H37   H     H_    0.035324 0.049275 0.320345 0.156788
H38   H     H_    0.960365 0.045873 0.675342 0.156703
H39   H     H_    0.543353 0.542386 0.328376 0.156630
H40   H     H_    0.463546 0.548445 0.678526 0.156766
H41   H     H_    0.188074 0.060488 0.688419 0.131037
H42   H     H_    0.811925 0.060486 0.311606 0.131030
H43   H     H_    0.688074 0.560487 0.688398 0.131029
H44   H     H_    0.311926 0.560488 0.311569 0.131046
H45   H     H_    0.500082 0.812056 0.932825 0.129526
H46   H     H_    0.499918 0.812057 0.067176 0.129525
H47   H     H_    0.000081 0.312056 0.932824 0.129524
H48   H     H_    0.999919 0.312057 0.067176 0.129526
H49   H     H_    0.500082 0.880803 0.932559 0.151513
H50   H     H_    0.499918 0.880803 0.067441 0.151513
H51   H     H_    0.000082 0.380803 0.932558 0.151510
H52   H     H_    0.999918 0.380803 0.067442 0.151512
H53   H     H_    0.500021 0.188176 0.067280 0.130584
H54   H     H_    0.499979 0.188176 0.932719 0.130561
H55   H     H_    0.000021 0.688176 0.067280 0.130556
H56   H     H_    0.999979 0.688176 0.932719 0.130567
H57   H     H_    0.500021 0.119433 0.067543 0.151673
H58   H     H_    0.499979 0.119433 0.932457 0.151666
H59   H     H_    0.000021 0.619433 0.067543 0.151663
H60   H     H_    0.999979 0.619433 0.932457 0.151664
H61   H     H_    0.939573 0.811863 0.939603 0.131051
H62   H     H_    0.060426 0.811863 0.060397 0.131046
H63   H     H_    0.439573 0.311863 0.939601 0.131050
H64   H     H_    0.560427 0.311864 0.060397 0.131054
H65   H     H_    0.939333 0.880600 0.939363 0.152559
H66   H     H_    0.060666 0.880600 0.060637 0.152555
H67   H     H_    0.439333 0.380600 0.939362 0.152553
H68   H     H_    0.560666 0.380600 0.060637 0.152558
H69   H     H_    0.027959 0.945264 0.314882 0.162795
H70   H     H_    0.977116 0.942954 0.690192 0.162833
H71   H     H_    0.518017 0.441238 0.304940 0.162855
H72   H     H_    0.473315 0.444631 0.686394 0.162813
H73   H     H_    0.058787 0.984767 0.343871 0.177939
H74   H     H_    0.942839 0.979507 0.657751 0.177939
H75   H     H_    0.555243 0.474785 0.340334 0.177949
H76   H     H_    0.441582 0.483412 0.656499 0.177942
H77   H     H_    0.058064 0.981386 0.271517 0.172134
H78   H     H_    0.943860 0.976211 0.730403 0.172113
H79   H     H_    0.553953 0.471602 0.267412 0.172075
H80   H     H_    0.442382 0.480050 0.728930 0.172131
H81   H     H_    0.024428 0.944000 0.239666 0.165466
H82   H     H_    0.980742 0.942021 0.765503 0.165450
H83   H     H_    0.514333 0.440621 0.229570 0.165451
H84   H     H_    0.476874 0.443451 0.761637 0.165463
H85   H     H_    0.961983 0.952943 0.242313 0.106408
H86   H     H_    0.042127 0.956571 0.761799 0.106330
H87   H     H_    0.454378 0.460262 0.234707 0.106252
H88   H     H_    0.539095 0.453832 0.758766 0.106392
H89   H     H_    0.938674 0.007268 0.153465 0.175722
H90   H     H_    0.060418 0.012785 0.845632 0.175635
H91   H     H_    0.440872 0.517814 0.155655 0.175539
H92   H     H_    0.561141 0.508684 0.846351 0.175703
O1    O     O_R   0.054380 0.031500 0.554380 -0.588901
O2    O     O_R   0.945620 0.031500 0.445620 -0.588930
O3    O     O_R   0.554380 0.531500 0.554380 -0.588930
O4    O     O_R   0.445620 0.531500 0.445620 -0.588890
O5    O     O_R   0.445640 0.000120 0.910750 -0.587332
O6    O     O_R   0.554360 0.000120 0.089250 -0.587330
O7    O     O_R   0.945640 0.500120 0.910750 -0.587333
O8    O     O_R   0.054360 0.500120 0.089250 -0.587332
O9    O     O_R   0.445650 0.000140 0.980530 -0.587260
O10   O     O_R   0.554350 0.000140 0.019470 -0.587260
O11   O     O_R   0.945650 0.500140 0.980530 -0.587260
O12   O     O_R   0.054350 0.500140 0.019470 -0.587264
O13   O     O_R   0.499990 0.054510 0.965080 -0.587369
O14   O     O_R   0.500010 0.054510 0.034920 -0.587365
O15   O     O_R   0.999990 0.554510 0.965080 -0.587370
O16   O     O_R   0.000010 0.554510 0.034920 -0.587368
O17   O     O_R   0.054410 0.968530 0.554410 -0.589449
O18   O     O_R   0.945590 0.968530 0.445590 -0.589458
O19   O     O_R   0.554410 0.468530 0.554410 -0.589447
O20   O     O_R   0.445590 0.468530 0.445590 -0.589418
O21   O     O_R   0.000000 0.031500 0.439720 -0.579870
O22   O     O_R   0.000000 0.031500 0.560280 -0.579891
O23   O     O_R   0.500000 0.531500 0.439720 -0.579910
O24   O     O_R   0.500000 0.531500 0.560280 -0.579871
O25   O     O_R   0.000030 0.968530 0.439750 -0.581438
O26   O     O_R   0.999970 0.968530 0.560250 -0.581298
O27   O     O_R   0.500030 0.468530 0.439750 -0.581168
O28   O     O_R   0.499970 0.468530 0.560250 -0.581401
O29   O     O_R   0.031480 0.054290 0.031480 -0.590086
O30   O     O_R   0.968520 0.054290 0.968520 -0.590085
O31   O     O_R   0.531480 0.554290 0.031480 -0.590088
O32   O     O_R   0.468520 0.554290 0.968520 -0.590089
O33   O     O_R   0.031490 0.999900 0.091770 -0.580588
O34   O     O_R   0.968510 0.999900 0.908230 -0.580585
O35   O     O_R   0.531490 0.499900 0.091770 -0.580585
O36   O     O_R   0.468510 0.499900 0.908230 -0.580589
O37   O     O_R   0.968550 0.999920 0.028830 -0.580733
O38   O     O_R   0.031450 0.999920 0.971170 -0.580740
O39   O     O_R   0.468550 0.499920 0.028830 -0.580747
O40   O     O_R   0.531450 0.499920 0.971170 -0.580735
O41   O     O_R   0.031500 0.945500 0.031490 -0.589200
O42   O     O_R   0.968500 0.945500 0.968510 -0.589196
O43   O     O_R   0.531500 0.445500 0.031490 -0.589195
O44   O     O_R   0.468500 0.445500 0.968510 -0.589201
O45   O     O_R   0.500040 0.945720 0.965170 -0.587498
O46   O     O_R   0.499960 0.945720 0.034830 -0.587498
O47   O     O_R   0.000040 0.445720 0.965170 -0.587500
O48   O     O_R   0.999960 0.445720 0.034830 -0.587497
H93   H     H_    0.380661 0.000126 0.813218 0.151595
H94   H     H_    0.619340 0.000126 0.186782 0.151595
H95   H     H_    0.880660 0.500126 0.813218 0.151591
H96   H     H_    0.119338 0.500126 0.186782 0.151594
H97   H     H_    0.188140 0.939684 0.688245 0.130912
H98   H     H_    0.811860 0.939682 0.311720 0.130903
H99   H     H_    0.688140 0.439683 0.688273 0.130912
H100  H     H_    0.311859 0.439684 0.311781 0.130932
C185  C     C_3   0.928750 0.195258 0.928808 -0.380040
C186  C     C_3   0.892643 0.172069 0.892729 -0.873918
H101  H     H_    0.891075 0.154327 0.862706 0.252197
H102  H     H_    0.891062 0.154326 0.919605 0.252149
H103  H     H_    0.868081 0.191229 0.868188 0.247068
H104  H     H_    0.928214 0.213623 0.956318 0.207466
H105  H     H_    0.928227 0.213623 0.900238 0.207505
C187  C     C_3   0.071250 0.195258 0.071192 -0.380041
C188  C     C_3   0.107357 0.172070 0.107268 -0.873921
H106  H     H_    0.108926 0.154327 0.137292 0.252195
H107  H     H_    0.108937 0.154327 0.080391 0.252153
H108  H     H_    0.131919 0.191228 0.131808 0.247068
H109  H     H_    0.071785 0.213624 0.043681 0.207466
H110  H     H_    0.071774 0.213623 0.099763 0.207506
C189  C     C_3   0.428750 0.695258 0.928831 -0.380033
C190  C     C_3   0.392643 0.672069 0.892766 -0.873934
H111  H     H_    0.391067 0.654327 0.862735 0.252195
H112  H     H_    0.391070 0.654326 0.919651 0.252154
H113  H     H_    0.368082 0.691228 0.868233 0.247064
H114  H     H_    0.428222 0.713624 0.956349 0.207464
H115  H     H_    0.428219 0.713623 0.900254 0.207505
C191  C     C_3   0.571250 0.695258 0.071172 -0.380038
C192  C     C_3   0.607357 0.672069 0.107239 -0.873930
H116  H     H_    0.608933 0.654327 0.137268 0.252196
H117  H     H_    0.608931 0.654327 0.080355 0.252151
H118  H     H_    0.631919 0.691228 0.131773 0.247067
H119  H     H_    0.571779 0.713624 0.043655 0.207466
H120  H     H_    0.571781 0.713623 0.099749 0.207505
H121  H     H_    0.940168 0.117959 0.940216 0.174563
H122  H     H_    0.059832 0.117959 0.059784 0.174563
H123  H     H_    0.440168 0.617959 0.940235 0.174563
H124  H     H_    0.559832 0.617959 0.059767 0.174563
C193  C     C_3   0.924188 0.996524 0.218929 -0.399602
C194  C     C_3   0.916804 0.038727 0.212073 -0.819511
H125  H     H_    0.933579 0.052323 0.253772 0.245507
H126  H     H_    0.922879 0.051764 0.187442 0.245526
H127  H     H_    0.886796 0.043781 0.189518 0.235790
H128  H     H_    0.900466 0.982688 0.178745 0.196858
H129  H     H_    0.923371 0.986117 0.250827 0.201361
C195  C     C_3   0.075821 0.003390 0.781087 -0.399483
C196  C     C_3   0.079355 0.046089 0.784095 -0.819380
H130  H     H_    0.061421 0.058111 0.741236 0.245742
H131  H     H_    0.072122 0.058524 0.807568 0.245462
H132  H     H_    0.108784 0.053836 0.806074 0.235644
H133  H     H_    0.100698 0.991758 0.822426 0.196860
H134  H     H_    0.077579 0.993100 0.750129 0.201229
C197  C     C_3   0.424735 0.509745 0.219468 -0.399383
C198  C     C_3   0.424802 0.552589 0.220060 -0.819239
H135  H     H_    0.443681 0.563060 0.263866 0.245963
H136  H     H_    0.433057 0.564375 0.197610 0.245403
H137  H     H_    0.396127 0.562778 0.198832 0.235503
H138  H     H_    0.398971 0.500243 0.177238 0.196845
H139  H     H_    0.422117 0.499635 0.249566 0.201156
C199  C     C_3   0.575872 0.498275 0.781132 -0.399562
C200  C     C_3   0.582278 0.540638 0.787009 -0.819479
H140  H     H_    0.565193 0.553842 0.745001 0.245565
H141  H     H_    0.575902 0.553531 0.811340 0.245509
H142  H     H_    0.612161 0.546384 0.809440 0.235751
H143  H     H_    0.599908 0.484992 0.821629 0.196859
H144  H     H_    0.576929 0.487890 0.749473 0.201321

loop_
_geom_bond_atom_site_label_1
_geom_bond_atom_site_label_2
_ccdc_geom_bond_type
C10   C174  S    
C28   H20   S    
C11   C197  S    
C14   C170  T    
Cu6   O30   S    
C55   C59   T    
C26   C50   A    
C98   C114  S    
C119  H69   S    
Cu5   O33   S    
C120  H74   S    
C64   C84   A    
C94   C172  S    
C86   C134  S    
C155  C167  S    
C70   C74   A    
C141  C145  A    
Cu9   O10   S    
C125  C135  A    
C127  C189  S    
C78   H42   S    
C107  H47   S    
C105  H45   S    
C188  H107  S    
C17   C173  S    
C158  C167  A    
C90   H8    S    
C25   C29   A    
C179  H11   S    
C98   O47   A    
C27   C31   A    
Cu7   Cu8   S    
C199  H144  S    
C28   C32   A    
Cu1   O1    S    
C127  C136  A    
C198  H136  S    
C126  C130  A    
C62   C66   A    
Cu10  O14   S    
C152  C182  S    
C35   C101  S    
C47   O27   A    
C17   C21   T    
C19   C23   T    
C97   O46   A    
C87   C177  S    
C162  C165  A    
C40   H96   S    
C68   C72   A    
C187  C188  S    
C16   C184  S    
C1    O1    A    
C178  C182  S    
C121  C153  S    
C12   H88   S    
C129  C133  A    
C96   O44   A    
Cu9   O45   S    
Cu6   O34   S    
C94   O36   A    
Cu11  O47   S    
C200  H141  S    
C159  H63   S    
C68   H32   S    
C87   H37   S    
C7    C183  S    
C106  C115  A    
C189  H115  S    
C10   H86   S    
C58   C82   S    
C193  H128  S    
C38   H94   S    
C95   O42   A    
C66   C70   A    
C131  H123  S    
C49   C53   S    
C164  H68   S    
C25   H17   S    
Cu1   O22   S    
C116  C118  S    
C192  H118  S    
C51   C55   S    
C160  C168  A    
C127  C131  A    
C30   H22   S    
C85   O29   A    
Cu11  Cu12  S    
C8    H92   S    
C125  C129  A    
C132  C134  A    
Cu9   Cu10  S    
C191  H120  S    
C189  C190  S    
C73   C77   A    
C88   H6    S    
C194  H125  S    
C75   C79   A    
C191  H119  S    
C161  C165  A    
C180  C184  S    
C196  H131  S    
C79   C83   A    
C187  H110  S    
C152  H78   S    
C2    O2    A    
C30   C34   A    
Cu2   O4    S    
C121  H71   S    
C73   H33   S    
Cu12  O16   S    
C122  H72   S    
C121  C175  S    
Cu7   O43   S    
C6    C182  S    
C99   O9    A    
C64   C68   A    
C148  C150  S    
C101  O11   A    
Cu4   O27   S    
C102  O12   A    
C122  C176  S    
Cu1   Cu3   S    
C156  C168  S    
C200  H140  S    
C178  H10   S    
C88   C174  S    
Cu3   O26   S    
C185  H104  S    
C139  C143  A    
C157  H61   S    
C29   C33   A    
C25   C49   A    
C125  C185  S    
Cu5   O38   S    
C76   H36   S    
C9    C173  S    
C189  H114  S    
Cu4   O20   S    
C186  H102  S    
C12   C176  S    
C63   H99   S    
C44   C52   A    
C13   C169  T    
C130  H122  S    
C109  H49   S    
C177  H1    S    
Cu8   O36   S    
C90   C176  S    
C190  H111  S    
C27   C51   A    
C21   C45   S    
C119  H73   S    
C126  C187  S    
C139  C148  A    
C120  H70   S    
C91   C169  S    
C24   C48   S    
C104  C146  S    
C100  O6    A    
C92   C170  S    
C101  O7    A    
C102  O8    A    
C1    O17   A    
C64   H100  S    
C123  C135  S    
Cu2   O23   S    
C33   C99   S    
C43   H27   S    
C5    C9    S    
C180  H4    S    
C61   C65   A    
Cu10  O9    S    
C86   O32   A    
C67   H31   S    
C8    C12   S    
C153  H79   S    
C93   O35   A    
C154  H80   S    
C45   O25   A    
C32   H24   S    
C4    O20   A    
C18   C174  S    
C120  C174  S    
C42   C50   A    
C26   C30   A    
C13   C181  S    
C150  C155  T    
C15   C171  T    
C91   O37   A    
Cu9   O5    S    
C103  C145  S    
C186  H103  S    
C153  H83   S    
Cu11  O7    S    
C105  C109  A    
Cu5   O41   S    
C18   C22   T    
C107  C111  A    
C105  C115  A    
C76   C80   A    
Cu6   O37   S    
C138  H54   S    
C9    C193  S    
C32   C36   A    
C88   C178  S    
C5    H13   S    
C142  H58   S    
C89   H39   S    
C23   C47   S    
C61   C81   A    
C195  H133  S    
C20   C176  S    
C177  C181  S    
C48   O28   A    
C57   C81   S    
C37   C41   A    
C19   C175  S    
C107  C116  A    
C7    H91   S    
C40   C44   A    
C111  H51   S    
C8    H16   S    
C190  H113  S    
C143  C146  A    
C27   H19   S    
C140  H56   S    
C11   H87   S    
C80   C84   A    
C131  C134  A    
C157  C167  A    
C188  H106  S    
C144  H60   S    
C98   O48   A    
C50   C54   S    
C61   H97   S    
C160  C164  A    
C147  C149  S    
C117  C124  T    
C59   C83   S    
C128  C136  A    
C161  H65   S    
C54   C58   T    
Cu12  O11   S    
C162  H66   S    
Cu7   O40   S    
C47   O23   A    
C41   C49   A    
C48   O24   A    
C191  C192  S    
Cu6   O42   S    
C97   O45   A    
C103  O14   A    
C115  C117  S    
C15   C183  S    
C34   C100  S    
C69   C73   A    
C44   H28   S    
C79   H43   S    
C121  H75   S    
C92   O34   A    
C122  H76   S    
C62   C82   A    
C77   H41   S    
C142  C145  A    
C46   O22   A    
C106  H46   S    
C95   C165  S    
C5    C181  S    
C151  C181  S    
C31   H23   S    
C87   C173  S    
C124  C136  S    
C163  C166  A    
C144  C146  A    
C138  C142  A    
Cu8   O39   S    
C90   C180  S    
C53   C57   T    
C158  H62   S    
C1    C69   S    
C56   C60   T    
C63   C83   A    
C3    C71   S    
C4    O4    A    
C95   O41   A    
C7    H15   S    
Cu3   O17   S    
C66   H30   S    
Cu1   O21   S    
C90   H40   S    
C192  H117  S    
C151  H77   S    
C152  H82   S    
Cu12  O8    S    
C22   C46   S    
C126  C135  A    
C104  O15   A    
Cu10  O46   S    
Cu7   O35   S    
C130  C133  A    
C89   C175  S    
C194  H126  S    
C157  C161  A    
C4    C72   S    
C188  H108  S    
C196  H130  S    
C137  C141  A    
C93   C171  S    
C2    O18   A    
C199  H143  S    
C137  C147  A    
Cu3   O18   S    
Cu1   O2    S    
C140  C144  A    
C198  H135  S    
C99   O5    A    
C6    C10   S    
C137  H53   S    
C193  H129  S    
Cu11  O12   S    
C88   H38   S    
C11   C175  S    
C26   H18   S    
C141  H57   S    
C108  C116  A    
C194  H127  S    
C154  H84   S    
C45   O21   A    
Cu4   O28   S    
C119  C173  S    
Cu5   O29   S    
C43   C51   A    
C179  H3    S    
C65   C69   A    
C177  H9    S    
Cu3   O25   S    
C111  C114  A    
C67   C71   A    
C118  C123  T    
C151  H81   S    
Cu5   Cu6   S    
C91   O33   A    
C33   C37   A    
Cu10  O6    S    
C128  C191  S    
C108  C112  A    
C197  H139  S    
C96   O43   A    
C74   C78   A    
C129  H121  S    
C2    C70   S    
C87   H5    S    
C41   H25   S    
C85   C133  S    
C200  H142  S    
C60   C84   S    
C35   C39   A    
C192  H116  S    
C3    O3    A    
C74   H34   S    
C195  C196  S    
C140  C148  A    
C190  H112  S    
C86   O31   A    
C197  C198  S    
C7    C11   S    
Cu2   O24   S    
C6    H90   S    
C149  C156  T    
C38   C42   A    
C160  H64   S    
C159  C168  A    
C36   C102  S    
C78   C82   A    
C132  H124  S    
Cu9   O13   S    
C85   O30   A    
C93   O39   A    
C20   C24   T    
Cu11  O15   S    
C154  C184  S    
Cu12  O48   S    
C77   C81   A    
C5    H89   S    
C109  C113  A    
C196  H132  S    
C8    C184  S    
C29   H21   S    
C104  O16   A    
C187  H109  S    
Cu2   Cu4   S    
C122  C154  S    
C198  H137  S    
Cu2   O3    S    
C128  C132  A    
C179  C183  S    
C119  C151  S    
C197  H138  S    
C63   C67   A    
C120  C152  S    
C65   H29   S    
C153  C183  S    
C36   C40   A    
C39   C43   A    
C185  H105  S    
C96   C166  S    
C195  H134  S    
C16   C172  T    
C138  C147  A    
C108  H48   S    
C9    H85   S    
C72   C76   A    
Cu4   O19   S    
C75   H35   S    
C62   H98   S    
C110  C113  A    
C193  C194  S    
C14   C182  S    
C92   O38   A    
C112  C114  A    
C89   H7    S    
C94   O40   A    
C159  C163  A    
C97   C113  S    
C106  C110  A    
Cu7   O31   S    
C34   C38   A    
C37   H93   S    
C139  H55   S    
C10   C195  S    
C6    H14   S    
C112  H52   S    
C80   H44   S    
C164  C166  A    
Cu8   O44   S    
C42   H26   S    
C46   O26   A    
C71   C75   A    
C28   C52   A    
C110  H50   S    
C186  H101  S    
Cu8   O32   S    
C31   C35   A    
C89   C179  S    
C178  H2    S    
C158  C162  A    
C39   H95   S    
C103  O13   A    
C163  H67   S    
C3    O19   A    
C199  C200  S    
C143  H59   S    
C185  C186  S    
C180  H12   S    
C100  O10   A    
C52   C56   S    
C12   C199  S    
