data_mof_unit_36817.cif
_audit_creation_date              2012-10-26T21:07:44-0400
_audit_creation_method            fapswitch 2.2
_symmetry_space_group_name_H-M    P1
_symmetry_Int_Tables_number       1
_space_group_crystal_system       triclinic
_cell_length_a                    11.085036
_cell_length_b                    9.096633
_cell_length_c                    7.787971
_cell_angle_alpha                 89.977921
_cell_angle_beta                  103.305189
_cell_angle_gamma                 89.993161
_cell_volume                      764.232385273

loop_
_atom_site_label
_atom_site_type_symbol
_atom_type_description
_atom_site_fract_x
_atom_site_fract_y
_atom_site_fract_z
_atom_type_partial_charge
C1    C     C_R   0.500006 0.220030 0.500018 0.548644
C2    C     C_1   0.500004 0.934631 0.499980 -0.056855
C3    C     C_3   0.939560 0.623525 0.775030 -0.293864
C4    C     C_3   0.859156 0.685163 0.893604 -0.407762
C5    C     C_3   0.060520 0.376172 0.225192 -0.293899
C6    C     C_3   0.141006 0.314259 0.106901 -0.407739
C7    C     C_R   0.499993 0.779970 0.499982 0.548669
C8    C     C_R   0.262144 0.490194 0.427981 0.565759
C9    C     C_R   0.737861 0.509808 0.572021 0.565767
C10   C     C_2   0.127236 0.465236 0.386003 -0.000608
C11   C     C_2   0.872777 0.534766 0.613999 -0.000637
C12   C     C_2   0.066285 0.513690 0.506101 -0.154722
C13   C     C_2   0.933693 0.486542 0.493747 -0.154723
C14   C     C_1   0.499994 0.065369 0.500019 -0.056871
Cu1   Cu    Cu3+1 0.500010 0.500000 0.669080 0.994712
Cu2   Cu    Cu3+1 0.499990 0.500000 0.330920 0.994705
H1    H     H_    0.882403 0.425515 0.380676 0.140669
H2    H     H_    0.083329 0.242733 0.004518 0.129441
H3    H     H_    0.015204 0.280140 0.272462 0.142335
H4    H     H_    0.987152 0.445521 0.142788 0.143336
H5    H     H_    0.117555 0.574883 0.619042 0.140624
H6    H     H_    0.782458 0.752984 0.815632 0.169077
H7    H     H_    0.821719 0.595274 0.962536 0.174935
H8    H     H_    0.916898 0.756449 0.996191 0.129448
H9    H     H_    0.012953 0.554043 0.857163 0.143408
H10   H     H_    0.984847 0.719677 0.727986 0.142301
H11   H     H_    0.178420 0.404001 0.037711 0.174976
H12   H     H_    0.217731 0.246625 0.185157 0.169024
N1    N     N_1   0.499980 0.500000 0.076820 -0.088935
N2    N     N_1   0.500020 0.500000 0.923180 -0.088938
O1    O     O_R   0.500010 0.288400 0.642760 -0.492538
O2    O     O_R   0.499990 0.711600 0.357240 -0.492540
O3    O     O_R   0.499990 0.288400 0.357240 -0.500480
O4    O     O_R   0.500010 0.711600 0.642760 -0.500471
O5    O     O_R   0.320690 0.500000 0.590310 -0.509666
O6    O     O_R   0.679310 0.500000 0.409690 -0.509691
O7    O     O_R   0.320680 0.500000 0.304730 -0.503447
O8    O     O_R   0.679320 0.500000 0.695270 -0.503445

loop_
_geom_bond_atom_site_label_1
_geom_bond_atom_site_label_2
_ccdc_geom_bond_type
C9    O6    A    
Cu1   O8    S    
Cu1   O1    S    
N1    N2    T    
C5    H3    S    
Cu2   O3    S    
Cu2   O2    S    
C4    H6    S    
Cu1   O4    S    
C6    H11   S    
C13   H1    S    
Cu2   O7    S    
C1    O3    A    
C5    C10   S    
C5    H4    S    
Cu2   O6    S    
C9    C11   S    
C1    C14   S    
C10   C12   D    
C2    C14   T    
Cu1   Cu2   S    
Cu1   O5    S    
C9    O8    A    
C5    C6    S    
C4    H8    S    
C7    O4    A    
C6    H2    S    
C11   C13   D    
C3    C11   S    
C8    O7    A    
C3    C4    S    
C1    O1    A    
C3    H9    S    
C12   C13   S    
Cu1   N2    S    
C8    C10   S    
C4    H7    S    
C7    O2    A    
Cu2   N1    S    
C12   H5    S    
C3    H10   S    
C6    H12   S    
C2    C7    S    
C8    O5    A    
