data_mof_unit_65264.cif
_audit_creation_date              2013-03-05T16:19:09-0500
_audit_creation_method            fapswitch 2.2
_symmetry_space_group_name_H-M    P1
_symmetry_Int_Tables_number       1
_space_group_crystal_system       triclinic
_cell_length_a                    18.899928
_cell_length_b                    18.671222
_cell_length_c                    18.924799
_cell_angle_alpha                 109.256842
_cell_angle_beta                  109.368672
_cell_angle_gamma                 109.405154
_cell_volume                      5165.08643266

loop_
_atom_site_label
_atom_site_type_symbol
_atom_site_description
_atom_site_fract_x
_atom_site_fract_y
_atom_site_fract_z
_atom_type_partial_charge
O1    O     O_R   0.909480 0.462010 0.051860 -0.578763
O2    O     O_R   0.910180 0.357650 0.948150 -0.585969
C1    C     C_R   0.880634 0.381002 0.999007 0.786479
O3    O     O_R   0.910060 0.552180 0.962250 -0.560357
O4    O     O_R   0.910760 0.447820 0.858550 -0.589427
C2    C     C_R   0.886903 0.505221 0.882563 0.877460
Cu1   Cu    Cu3+1 0.999590 0.561790 0.061400 1.014732
Cu2   Cu    Cu3+1 0.000410 0.438210 0.938600 0.985874
O5    O     O_R   0.089820 0.642350 0.051850 -0.583948
O6    O     O_R   0.090520 0.537990 0.948140 -0.579500
O7    O     O_R   0.089240 0.552180 0.141450 -0.585871
O8    O     O_R   0.089940 0.447820 0.037750 -0.584527
C3    C     C_R   0.119304 0.618766 0.000647 0.814028
C4    C     C_R   0.118031 0.500187 0.117524 0.803088
C5    C     C_2   0.755797 0.498870 0.675226 0.346702
C6    C     C_2   0.675680 0.477626 0.666177 -0.104857
C7    C     C_2   0.818334 0.489777 0.738933 -0.168400
C8    C     C_2   0.831455 0.518651 0.819491 -0.294892
H1    H     H_    0.854430 0.460566 0.719471 0.186167
H2    H     H_    0.801184 0.555187 0.840483 0.193477
C9    C     C_R   0.830084 0.304695 0.071001 0.076188
C10   C     C_R   0.814380 0.312812 0.997567 -0.053589
C11   C     C_R   0.737464 0.248241 0.919963 -0.184653
H3    H     H_    0.726023 0.250226 0.860804 0.149719
C12   C     C_R   0.672631 0.183804 0.919801 -0.177720
H4    H     H_    0.611971 0.136783 0.860457 0.157407
C13   C     C_R   0.685971 0.182103 0.996741 -0.061716
C14   C     C_R   0.767329 0.239527 0.070251 0.131872
C15   C     C_3   0.790028 0.298279 0.159519 -0.441283
C16   C     C_3   0.858367 0.370120 0.159977 -0.436684
H5    H     H_    0.737144 0.310735 0.161326 0.222224
H6    H     H_    0.817402 0.277589 0.205676 0.201647
H7    H     H_    0.844783 0.424104 0.161927 0.240610
H8    H     H_    0.924984 0.391112 0.206935 0.187762
C17   C     C_R   0.170002 0.471886 0.236227 0.074413
C18   C     C_R   0.186188 0.502115 0.182600 -0.078379
C19   C     C_R   0.270851 0.533684 0.194015 0.150774
C20   C     C_R   0.334694 0.533084 0.259067 -0.189111
H9    H     H_    0.399534 0.557519 0.268315 0.172577
C21   C     C_R   0.314460 0.500425 0.311484 -0.140240
C22   C     C_R   0.230618 0.469917 0.296754 0.124981
C23   C     C_3   0.171528 0.432310 0.326576 -0.414046
C24   C     C_3   0.102113 0.434177 0.256937 -0.498825
H10   H     H_    0.158096 0.365229 0.313335 0.210733
H11   H     H_    0.191468 0.478536 0.393453 0.196978
H12   H     H_    0.048784 0.368193 0.203269 0.200968
H13   H     H_    0.082135 0.481529 0.283770 0.206635
C25   C     C_R   0.171294 0.745648 0.979913 0.051393
C26   C     C_R   0.185487 0.684241 0.999241 -0.109692
C27   C     C_R   0.259987 0.679643 0.005887 -0.186881
H14   H     H_    0.269478 0.628153 0.013767 0.158183
C28   C     C_R   0.325001 0.744722 0.007001 -0.173588
H15   H     H_    0.383919 0.742789 0.016271 0.163112
C29   C     C_R   0.313956 0.812452 0.997599 -0.070625
C30   C     C_R   0.234004 0.808180 0.977916 0.068706
C31   C     C_3   0.213038 0.876914 0.016373 -0.188683
C32   C     C_3   0.143836 0.807399 0.019121 0.168817
H16   H     H_    0.266720 0.930510 0.081432 0.218642
H17   H     H_    0.157225 0.820847 0.085346 0.116679
O9    O     O_R   0.549550 0.461960 0.407200 -0.566982
O10   O     O_R   0.445180 0.357580 0.407200 -0.603009
C33   C     C_R   0.497051 0.380627 0.378502 0.832728
O11   O     O_R   0.638540 0.552110 0.586390 -0.541277
O12   O     O_R   0.534170 0.447730 0.586390 -0.571791
C34   C     C_R   0.614230 0.494065 0.610157 0.947090
Cu3   Cu    Cu3+1 0.558560 0.561730 0.496790 1.037713
Cu4   Cu    Cu3+1 0.434970 0.438120 0.496790 1.010813
O13   O     O_R   0.548350 0.642270 0.586380 -0.582194
O14   O     O_R   0.443970 0.537890 0.586380 -0.566279
O15   O     O_R   0.459360 0.552110 0.407190 -0.599035
O16   O     O_R   0.354990 0.447740 0.407190 -0.589081
C35   C     C_R   0.497602 0.618633 0.616002 0.870569
C36   C     C_R   0.379135 0.500034 0.378534 0.793926
O17   O     O_R   0.448700 0.909820 0.858480 -0.590734
O18   O     O_R   0.552410 0.909770 0.962140 -0.588194
C37   C     C_R   0.500758 0.881144 0.882092 0.808363
O19   O     O_R   0.538310 0.090150 0.948110 -0.563800
O20   O     O_R   0.642020 0.090090 0.051780 -0.594147
C38   C     C_R   0.618725 0.118506 0.999427 0.794526
Cu5   Cu    Cu3+1 0.438600 0.999980 0.938570 1.007552
Cu6   Cu    Cu3+1 0.561400 0.999920 0.061330 1.019488
O21   O     O_R   0.447590 0.090130 0.037760 -0.563021
O22   O     O_R   0.551300 0.090080 0.141420 -0.553200
O23   O     O_R   0.357980 0.909810 0.948120 -0.597214
O24   O     O_R   0.461690 0.909750 0.051790 -0.557765
C39   C     C_R   0.497327 0.116739 0.117750 0.877543
C40   C     C_R   0.381256 0.881372 0.000346 0.834905
C41   C     C_R   0.519161 0.327681 0.253255 0.038051
C42   C     C_R   0.492717 0.311694 0.309527 -0.130316
C43   C     C_R   0.455968 0.225690 0.295039 -0.234700
H18   H     H_    0.431244 0.211243 0.335651 0.206584
C44   C     C_R   0.456431 0.159144 0.232777 0.319906
C45   C     C_R   0.493061 0.180175 0.182913 -0.236624
C46   C     C_R   0.518345 0.262778 0.190488 0.059958
C47   C     C_3   0.601428 0.325946 0.203312 0.131377
C48   C     C_3   0.601395 0.397355 0.271727 -0.427848
H19   H     H_    0.655537 0.313645 0.228942 0.083921
H20   H     H_    0.655245 0.425986 0.337733 0.214926
H21   H     H_    0.591458 0.445824 0.254066 0.223496
C49   C     C_R   0.485854 0.748897 0.676444 0.057198
C50   C     C_R   0.502493 0.685072 0.686569 -0.194406
C51   C     C_R   0.520908 0.686581 0.766583 0.324398
C52   C     C_R   0.520422 0.751848 0.831145 -0.259452
H22   H     H_    0.535007 0.753821 0.892385 0.200482
C53   C     C_R   0.501234 0.814253 0.816636 -0.148317
C54   C     C_R   0.483787 0.809384 0.737622 0.130965
C55   C     C_3   0.459804 0.849729 0.684260 -0.426302
C56   C     C_3   0.461246 0.779878 0.613932 -0.455414
H23   H     H_    0.394261 0.841404 0.666962 0.208865
H24   H     H_    0.511861 0.917353 0.711605 0.193175
H25   H     H_    0.396450 0.730924 0.556403 0.195181
H26   H     H_    0.513770 0.807141 0.600177 0.213835
N1    N     N_R   0.780661 0.524672 0.619653 0.130194
O25   O     O_R   0.860918 0.580004 0.649488 -0.302082
O26   O     O_R   0.728739 0.479957 0.536683 -0.381305
C57   C     C_3   0.294323 0.569954 0.139920 -0.842893
H27   H     H_    0.281831 0.625386 0.147906 0.220148
H28   H     H_    0.363565 0.594132 0.158978 0.237530
H29   H     H_    0.255040 0.518385 0.071076 0.244199
C58   C     C_3   0.639753 0.425584 0.705622 -0.817451
H30   H     H_    0.573029 0.370754 0.657773 0.256752
H31   H     H_    0.675627 0.393073 0.725669 0.226512
H32   H     H_    0.638655 0.468922 0.761406 0.279882
C59   C     C_3   0.180812 0.910091 0.955219 -0.660936
H33   H     H_    0.235941 0.953106 0.952844 0.229409
H34   H     H_    0.131612 0.855245 0.888833 0.264368
H35   H     H_    0.152428 0.949052 0.979584 0.255646
N2    N     N_R   0.054801 0.782545 0.962734 0.155478
O27   O     O_R   0.003890 0.707952 0.891416 -0.336897
O28   O     O_R   0.023753 0.832315 0.987961 -0.326033
N3    N     N_R   0.420939 0.072939 0.223196 0.097021
O29   O     O_R   0.449574 0.020747 0.197721 -0.366851
O30   O     O_R   0.365543 0.049484 0.248808 -0.376516
N4    N     N_R   0.591402 0.337438 0.128390 0.139555
O31   O     O_R   0.526368 0.277806 0.051851 -0.327022
O32   O     O_R   0.652806 0.403493 0.136732 -0.348969
N5    N     N_R   0.542243 0.625072 0.784394 0.134944
O33   O     O_R   0.588448 0.599407 0.756388 -0.377501
O34   O     O_R   0.525457 0.603465 0.838056 -0.340413

loop_
_geom_bond_atom_site_label_1
_geom_bond_atom_site_label_2
_geom_bond_distance
_ccdc_geom_bond_type
C25   C30   1.381516 A    
Cu3   O13   1.975175 S    
C30   C31   1.498936 S    
O11   C34   1.309840 A    
C45   C46   1.395205 A    
C22   C23   1.489012 S    
C47   C48   1.521995 S    
O23   C40   1.290459 A    
Cu5   O23   1.966614 S    
N2    O27   1.302083 A    
C32   N2    1.466004 S    
C41   C48   1.492065 S    
Cu1   Cu2   2.689934 S    
C19   C57   1.504105 S    
Cu3   O15   1.972133 S    
C57   H27   1.110246 S    
Cu1   O7    1.968977 S    
N5    O34   1.301389 A    
C50   C51   1.425025 A    
O17   C37   1.292524 A    
C31   C59   1.533019 S    
C14   C15   1.491829 S    
C15   H6    1.111555 S    
C13   C38   1.451787 S    
C6    C58   1.529285 S    
C4    C18   1.437036 S    
C29   C40   1.449449 S    
O7    C4    1.291525 A    
C32   H17   1.112505 S    
C35   C50   1.442237 S    
C5    C6    1.365124 D    
C48   H21   1.112074 S    
C21   C36   1.444840 S    
O9    C33   1.297259 A    
O5    C3    1.297368 A    
C49   C50   1.383967 A    
C17   C18   1.382436 A    
C33   C42   1.455334 S    
C28   C29   1.404861 A    
C48   H20   1.112097 S    
C27   C28   1.400202 A    
C55   C56   1.541369 S    
C5    N1    1.438942 S    
C15   C16   1.516978 S    
C17   C24   1.486940 S    
C8    H2    1.087120 S    
C58   H32   1.109921 S    
O13   C35   1.291326 A    
N5    O33   1.300246 A    
O24   C40   1.297081 A    
Cu3   Cu4   2.683374 S    
O11   Cu3   1.968171 S    
O9    Cu3   1.971846 S    
O17   Cu5   1.972314 S    
C9    C10   1.391978 A    
C55   H23   1.111463 S    
C46   C47   1.497817 S    
C23   H10   1.111514 S    
O3    Cu1   1.971412 S    
Cu6   O22   1.972313 S    
C58   H31   1.107638 S    
C27   H14   1.081712 S    
O19   C38   1.296347 A    
C20   H9    1.083552 S    
C2    C8    1.458840 S    
C41   C46   1.380457 A    
C49   C56   1.488518 S    
C16   H8    1.108502 S    
C51   C52   1.417996 A    
O12   Cu4   1.972230 S    
C25   C32   1.495954 S    
C44   N3    1.443203 S    
Cu5   O21   1.974851 S    
O16   C36   1.293464 A    
O20   C38   1.292126 A    
O18   Cu6   1.974855 S    
N4    O32   1.300698 A    
C12   H4    1.083162 S    
O21   C39   1.292968 A    
C47   N4    1.463488 S    
C56   H26   1.111460 S    
O1    C1    1.295323 A    
C23   H11   1.111642 S    
O14   C35   1.290232 A    
O18   C37   1.293006 A    
C19   C20   1.415783 A    
C39   C45   1.447792 S    
O10   Cu4   1.975173 S    
C43   C44   1.407349 A    
Cu2   O8    1.971413 S    
O15   C36   1.290598 A    
C7    C8    1.339644 D    
C58   H30   1.109758 S    
C52   C53   1.410783 A    
C56   H25   1.111736 S    
C54   C55   1.489222 S    
C57   H28   1.110623 S    
C59   H35   1.109839 S    
C3    C26   1.444733 S    
O3    C2    1.292128 A    
C21   C22   1.384077 A    
C9    C14   1.380559 A    
O8    C4    1.291055 A    
C55   H24   1.111682 S    
C31   C32   1.536095 S    
N3    O29   1.299447 A    
C52   H22   1.083369 S    
C28   H15   1.083224 S    
C59   H34   1.111516 S    
N1    O25   1.301080 A    
C9    C16   1.491849 S    
O19   Cu5   1.970788 S    
C5    C7    1.484101 S    
C29   C30   1.398378 A    
C18   C19   1.419326 A    
C16   H7    1.112186 S    
O1    Cu1   1.967164 S    
O2    Cu2   1.970429 S    
Cu5   Cu6   2.685317 S    
N3    O30   1.301862 A    
O6    C3    1.290615 A    
N2    O28   1.300522 A    
O4    Cu2   1.968977 S    
C47   H19   1.111036 S    
N4    O31   1.301726 A    
C12   C13   1.406074 A    
C53   C54   1.384322 A    
C49   C54   1.346962 A    
C57   H29   1.109806 S    
O12   C34   1.289333 A    
O2    C1    1.292179 A    
C15   H5    1.107323 S    
C20   C21   1.413422 A    
O20   Cu6   1.966612 S    
C43   H18   1.083061 S    
O4    C2    1.301622 A    
C25   C26   1.391495 A    
C44   C45   1.421666 A    
C7    H1    1.086253 S    
C31   H16   1.109410 S    
Cu4   O16   1.968169 S    
C11   C12   1.401583 A    
O10   C33   1.291604 A    
C17   C22   1.345822 A    
C24   H12   1.111648 S    
C11   H3    1.083375 S    
Cu1   O5    1.970428 S    
O22   C39   1.292432 A    
C41   C42   1.391610 A    
Cu2   O6    1.967164 S    
C26   C27   1.405616 A    
C23   C24   1.540492 S    
C13   C14   1.396806 A    
C10   C11   1.405370 A    
C1    C10   1.443906 S    
C6    C34   1.483861 S    
Cu4   O14   1.971944 S    
C42   C43   1.406533 A    
C24   H13   1.111293 S    
C51   N5    1.438085 S    
C37   C53   1.445273 S    
Cu6   O24   1.970791 S    
C59   H33   1.109741 S    
N1    O26   1.301681 A    
