data_mof_unit_67534.cif
_audit_creation_date              2013-03-05T15:41:21-0500
_audit_creation_method            fapswitch 2.2
_symmetry_space_group_name_H-M    P1
_symmetry_Int_Tables_number       1
_space_group_crystal_system       triclinic
_cell_length_a                    10.68643
_cell_length_b                    8.743267
_cell_length_c                    7.474251
_cell_angle_alpha                 102.988425
_cell_angle_beta                  93.813632
_cell_angle_gamma                 93.163408
_cell_volume                      677.208938857

loop_
_atom_site_label
_atom_site_type_symbol
_atom_site_description
_atom_site_fract_x
_atom_site_fract_y
_atom_site_fract_z
_atom_type_partial_charge
O1    O     O_R   0.509190 0.286130 0.619780 -0.574916
O2    O     O_R   0.490810 0.713870 0.380220 -0.604657
O3    O     O_R   0.485310 0.256770 0.308360 -0.583976
O4    O     O_R   0.514690 0.743230 0.691640 -0.592826
C1    C     C_R   0.494540 0.199806 0.453472 0.910628
C2    C     C_R   0.503025 0.800161 0.546846 0.850357
O5    O     O_R   0.328790 0.514640 0.655680 -0.590933
O6    O     O_R   0.671210 0.485360 0.344320 -0.593997
O7    O     O_R   0.304910 0.485280 0.344260 -0.598876
O8    O     O_R   0.695090 0.514720 0.655740 -0.572519
C3    C     C_R   0.259902 0.501542 0.502634 0.842614
C4    C     C_R   0.740318 0.506239 0.498495 0.892495
Cu1   Cu    Cu3+1 0.514140 0.517380 0.684380 0.954500
Cu2   Cu    Cu3+1 0.485860 0.482620 0.315620 0.939590
N1    N     N_2   0.464560 0.456420 0.038510 -0.223887
N2    N     N_2   0.535440 0.543580 0.961490 -0.223460
C5    C     C_3   0.047007 0.495586 0.670792 -0.414905
C6    C     C_3   0.952464 0.525713 0.331305 -0.471848
C7    C     C_3   0.953059 0.376672 0.534867 0.397561
C8    C     C_3   0.047320 0.642955 0.467586 0.423902
H1    H     H_    0.086891 0.486803 0.808039 0.147398
H2    H     H_    0.911565 0.540980 0.196874 0.153980
C9    C     C_3   0.876786 0.511506 0.496140 -0.202527
C10   C     C_3   0.124096 0.508406 0.506171 -0.226854
C11   C     C_3   0.969907 0.629054 0.628986 0.448512
C12   C     C_3   0.029945 0.389535 0.370858 0.360036
H3    H     H_    0.399521 0.380130 0.949409 0.223293
H4    H     H_    0.600267 0.619880 0.050798 0.223726
C13   C     C_2   0.490316 0.031922 0.427825 -0.402310
C14   C     C_2   0.500238 0.967735 0.573223 -0.358174
H5    H     H_    0.482139 0.960631 0.287643 0.180444
H6    H     H_    0.509108 0.038955 0.713467 0.186149
O9    O     O_3   0.888245 0.251316 0.588138 -0.602547
C15   C     C_3   0.916677 0.106068 0.481419 0.097738
H7    H     H_    0.014977 0.082856 0.518453 0.214437
H8    H     H_    0.901240 0.101775 0.332140 0.174570
C16   C     C_3   0.827538 0.979032 0.520507 -0.703282
H9    H     H_    0.732745 0.989897 0.458938 0.216984
H10   H     H_    0.856597 0.861108 0.456262 0.238299
H11   H     H_    0.824272 0.991968 0.671168 0.286601
O10   O     O_3   0.089039 0.794478 0.450393 -0.591018
C17   C     C_3   0.176394 0.784577 0.316602 0.034836
H12   H     H_    0.151788 0.685682 0.194655 0.127746
H13   H     H_    0.269595 0.771163 0.380063 0.193865
C18   C     C_3   0.184995 0.937215 0.252681 -0.758422
H14   H     H_    0.218860 0.036628 0.369730 0.255354
H15   H     H_    0.251337 0.928367 0.143285 0.209984
H16   H     H_    0.091125 0.960292 0.197152 0.270715
O11   O     O_3   0.936532 0.764276 0.752851 -0.586079
C19   C     C_3   0.903074 0.727695 0.918205 0.052706
H17   H     H_    0.988391 0.737803 0.012678 0.156080
H18   H     H_    0.858139 0.606918 0.900375 0.167388
C20   C     C_3   0.812192 0.844585 0.004967 -0.811810
H19   H     H_    0.724834 0.833177 0.912607 0.263857
H20   H     H_    0.787698 0.820803 0.138357 0.195779
H21   H     H_    0.855529 0.966373 0.026994 0.251223
O12   O     O_3   0.069332 0.259738 0.242422 -0.617313
C21   C     C_3   0.074229 0.295742 0.068129 0.070839
H22   H     H_    0.128859 0.409751 0.078972 0.147985
H23   H     H_    0.977426 0.300086 0.005471 0.174008
C22   C     C_3   0.139239 0.169529 0.940205 -0.754325
H24   H     H_    0.234669 0.158354 0.002103 0.243968
H25   H     H_    0.083273 0.054863 0.914449 0.276962
H26   H     H_    0.148760 0.202493 0.806487 0.204348

loop_
_geom_bond_atom_site_label_1
_geom_bond_atom_site_label_2
_geom_bond_distance
_ccdc_geom_bond_type
N2    H4    1.028522 S    
C22   H26   1.109987 S    
C7    C9    1.538175 S    
O7    Cu2   1.960455 S    
C13   C14   1.331391 D    
C16   H10   1.105750 S    
C15   C16   1.514119 S    
O10   C17   1.404670 S    
N1    H3    1.029112 S    
C19   H18   1.111628 S    
C6    C12   1.557259 S    
O6    C4    1.297684 A    
C5    C11   1.540783 S    
C21   C22   1.520948 S    
C18   H15   1.109916 S    
O9    C15   1.400282 S    
Cu1   N2    2.027899 S    
C13   H5    1.087287 S    
C6    H2    1.107579 S    
C20   H19   1.109524 S    
C14   H6    1.087361 S    
O7    C3    1.288565 A    
C4    C9    1.457946 S    
O12   C21   1.410839 S    
O2    C2    1.297086 A    
O3    Cu2   1.962855 S    
C17   H13   1.098081 S    
C15   H7    1.109689 S    
O1    C1    1.295622 A    
O8    C4    1.288698 A    
C2    C14   1.436025 S    
C16   H9    1.102363 S    
C10   C12   1.546638 S    
O5    C3    1.297444 A    
C16   H11   1.109272 S    
C6    C8    1.547404 S    
C20   H20   1.107984 S    
C7    O9    1.410172 S    
C22   H24   1.110014 S    
O2    Cu2   1.967207 S    
C12   O12   1.415394 S    
C11   O11   1.407325 S    
C18   H16   1.106270 S    
C19   C20   1.517784 S    
O1    Cu1   1.967206 S    
C17   H12   1.111898 S    
C21   H23   1.113020 S    
C6    C9    1.541937 S    
C5    C10   1.546542 S    
C1    C13   1.434719 S    
C18   H14   1.110493 S    
C3    C10   1.457569 S    
O5    Cu1   1.976312 S    
C9    C11   1.526248 S    
C15   H8    1.108838 S    
O4    C2    1.290567 A    
O11   C19   1.407633 S    
C8    C11   1.530346 S    
C20   H21   1.109988 S    
O4    Cu1   1.962856 S    
C22   H25   1.109785 S    
C7    C12   1.541493 S    
C8    C10   1.538768 S    
Cu2   N1    2.027899 S    
C5    C7    1.547699 S    
O6    Cu2   1.976314 S    
C19   H17   1.102308 S    
C21   H22   1.110945 S    
Cu1   Cu2   2.698683 S    
O8    Cu1   1.960455 S    
C5    H1    1.104870 S    
N1    N2    1.295130 D    
C8    O10   1.410445 S    
O3    C1    1.291574 A    
C17   C18   1.515475 S    
