data_mof_unit_16747.cif
_audit_creation_date              2012-12-11T15:15:39-0500
_audit_creation_method            fapswitch 2.2
_symmetry_space_group_name_H-M    P1
_symmetry_Int_Tables_number       1
_space_group_crystal_system       triclinic
_cell_length_a                    20.586948
_cell_length_b                    22.811983
_cell_length_c                    6.934962
_cell_angle_alpha                 90.00325
_cell_angle_beta                  87.077304
_cell_angle_gamma                 89.999495
_cell_volume                      3252.62361133

loop_
_atom_site_label
_atom_site_type_symbol
_atom_type_description
_atom_site_fract_x
_atom_site_fract_y
_atom_site_fract_z
_atom_type_partial_charge
O1    O     O_R   0.387100 0.552640 0.378490 -0.535669
O2    O     O_R   0.612900 0.052640 0.621510 -0.535674
O3    O     O_R   0.249610 0.559600 0.072250 -0.541148
O4    O     O_R   0.750390 0.059600 0.927750 -0.541146
O5    O     O_R   0.249120 0.447360 0.902040 -0.543532
O6    O     O_R   0.750880 0.947360 0.097960 -0.543520
C1    C     C_R   0.225964 0.572425 0.243905 0.693247
C2    C     C_R   0.774038 0.072423 0.756103 0.693255
O7    O     O_R   0.386610 0.559560 0.048860 -0.536465
O8    O     O_R   0.613390 0.059560 0.951140 -0.536463
O9    O     O_R   0.387100 0.447320 0.878470 -0.537673
O10   O     O_R   0.612900 0.947320 0.121530 -0.537687
C3    C     C_R   0.408014 0.574572 0.214368 0.694245
C4    C     C_R   0.591984 0.074571 0.785640 0.694250
O11   O     O_R   0.249120 0.552680 0.402050 -0.544488
O12   O     O_R   0.750880 0.052680 0.597950 -0.544494
O13   O     O_3   0.318110 0.463180 0.223790 -0.370121
O14   O     O_3   0.681890 0.963180 0.776210 -0.370114
V1    V     V_3+5 0.318110 0.506830 0.948930 1.413146
V2    V     V_3+5 0.681890 0.006830 0.051070 1.413148
O15   O     O_R   0.386610 0.440400 0.548840 -0.539318
O16   O     O_R   0.613390 0.940400 0.451160 -0.539316
C5    C     C_R   0.407500 0.424862 0.714786 0.728773
C6    C     C_R   0.592500 0.924863 0.285205 0.728738
O17   O     O_R   0.249610 0.440440 0.572240 -0.545062
O18   O     O_R   0.750390 0.940440 0.427760 -0.545036
C7    C     C_R   0.226516 0.427242 0.743958 0.690703
C8    C     C_R   0.773477 0.927237 0.256032 0.690689
V3    V     V_3+5 0.318110 0.493170 0.448930 1.410315
V4    V     V_3+5 0.681890 0.993170 0.551070 1.410321
O19   O     O_3   0.318110 0.536820 0.723940 -0.369172
O20   O     O_3   0.681890 0.036820 0.276060 -0.369178
C9    C     C_R   0.170828 0.386597 0.757632 -0.045486
C10   C     C_R   0.829154 0.886585 0.242329 -0.045456
C11   C     C_R   0.129855 0.381975 0.602420 -0.180352
C12   C     C_R   0.870228 0.882072 0.397324 -0.180371
C13   C     C_R   0.076922 0.343881 0.612387 -0.123375
C14   C     C_R   0.923150 0.843966 0.387338 -0.123347
C15   C     C_R   0.065294 0.308004 0.774767 0.167100
C16   C     C_R   0.934663 0.807967 0.225187 0.167068
C17   C     C_R   0.104844 0.313869 0.932596 -0.152673
C18   C     C_R   0.895009 0.813722 0.067555 -0.152734
C19   C     C_R   0.157266 0.352944 0.924424 -0.178846
C20   C     C_R   0.842599 0.852811 0.075728 -0.178834
C21   C     C_R   0.929680 0.156472 0.850197 -0.155537
C22   C     C_R   0.070310 0.656466 0.149954 -0.155552
C23   C     C_R   0.876945 0.117949 0.880724 0.147030
C24   C     C_R   0.123041 0.617939 0.119389 0.147036
C25   C     C_R   0.837501 0.147729 0.569895 -0.220534
C26   C     C_R   0.162545 0.647766 0.430106 -0.220537
C27   C     C_R   0.890596 0.185085 0.540876 -0.150455
C28   C     C_R   0.109463 0.685136 0.459143 -0.150452
C29   C     C_R   0.936883 0.189908 0.680843 0.106706
C30   C     C_R   0.063142 0.689938 0.319263 0.106720
C31   C     C_2   0.009790 0.266751 0.788144 -0.213793
C32   C     C_2   0.990155 0.766700 0.211804 -0.213778
C33   C     C_2   0.993740 0.229078 0.647093 0.144526
C34   C     C_2   0.006302 0.729134 0.353042 0.144689
C35   C     C_R   0.829779 0.113566 0.738303 -0.056222
C36   C     C_R   0.170232 0.613575 0.261736 -0.056195
H1    H     H_    0.137957 0.408728 0.474364 0.123544
H2    H     H_    0.862210 0.908920 0.525205 0.123532
H3    H     H_    0.802130 0.145645 0.459748 0.133193
H4    H     H_    0.197932 0.645692 0.540209 0.133197
H5    H     H_    0.095559 0.287681 0.061343 0.111125
H6    H     H_    0.904205 0.787438 0.938967 0.111268
H7    H     H_    0.966288 0.159500 0.956709 0.111149
H8    H     H_    0.033680 0.659471 0.043504 0.111101
H9    H     H_    0.187644 0.356194 0.046992 0.125251
H10   H     H_    0.812137 0.855976 0.953330 0.125241
H11   H     H_    0.981722 0.265966 0.925270 0.103243
H12   H     H_    0.018129 0.765812 0.074527 0.103217
H13   H     H_    0.044601 0.343419 0.494424 0.118838
H14   H     H_    0.955552 0.843591 0.505099 0.118894
H15   H     H_    0.895324 0.210640 0.409226 0.128117
H16   H     H_    0.104769 0.710719 0.590750 0.128141
C37   C     C_R   0.576573 0.362825 0.733211 0.176541
C38   C     C_R   0.423431 0.862840 0.266394 0.176516
H17   H     H_    0.531580 0.448045 0.750633 0.117150
H18   H     H_    0.468438 0.948052 0.249035 0.117138
H19   H     H_    0.668272 0.277312 0.705587 0.139282
H20   H     H_    0.331717 0.777338 0.293622 0.139283
C39   C     C_R   0.460509 0.380818 0.717856 -0.088270
C40   C     C_R   0.539486 0.880824 0.282098 -0.088271
C41   C     C_R   0.475356 0.095787 0.839790 -0.160666
C42   C     C_R   0.524657 0.595772 0.160516 -0.160690
C43   C     C_R   0.423105 0.134026 0.866379 -0.127467
C44   C     C_R   0.576917 0.634002 0.134022 -0.127464
C45   C     C_R   0.431341 0.193956 0.834989 -0.167901
C46   C     C_R   0.568676 0.693940 0.165268 -0.167918
C47   C     C_R   0.491808 0.217298 0.766825 0.094436
C48   C     C_R   0.508189 0.717300 0.233191 0.094440
C49   C     C_R   0.546393 0.178323 0.755216 0.071972
C50   C     C_R   0.453599 0.678332 0.244668 0.071976
C51   C     C_R   0.500983 0.279038 0.730679 0.026727
C52   C     C_R   0.499006 0.779046 0.269230 0.026720
C53   C     C_R   0.565740 0.301423 0.726942 0.090556
C54   C     C_R   0.434255 0.801437 0.272705 0.090560
C55   C     C_R   0.618508 0.262020 0.717715 -0.184668
C56   C     C_R   0.381483 0.762041 0.281746 -0.184645
C57   C     C_R   0.608880 0.201759 0.723581 -0.202696
C58   C     C_R   0.391105 0.701779 0.276017 -0.202696
C59   C     C_R   0.449084 0.319752 0.699813 0.093603
C60   C     C_R   0.550895 0.819760 0.300247 0.093576
C61   C     C_R   0.523544 0.401220 0.738748 -0.210044
C62   C     C_R   0.476464 0.901228 0.260994 -0.210021
C63   C     C_R   0.537453 0.117048 0.787361 -0.086594
C64   C     C_R   0.462545 0.617048 0.212683 -0.086572
H21   H     H_    0.467852 0.049484 0.868053 0.106843
H22   H     H_    0.532169 0.549463 0.132385 0.106850
H23   H     H_    0.390427 0.221752 0.874375 0.135456
H24   H     H_    0.609603 0.721727 0.125971 0.135444
H25   H     H_    0.376031 0.117252 0.916493 0.120978
H26   H     H_    0.624007 0.617216 0.084107 0.120978
H27   H     H_    0.651396 0.173733 0.714566 0.108738
H28   H     H_    0.348583 0.673757 0.284907 0.108704
C65   C     C_3   0.644013 0.388552 0.739918 -0.801805
H29   H     H_    0.668154 0.371661 0.868278 0.209407
H30   H     H_    0.673224 0.376689 0.606621 0.207438
H31   H     H_    0.642979 0.437154 0.749877 0.208373
C66   C     C_3   0.355999 0.888576 0.259510 -0.801819
H32   H     H_    0.331939 0.871757 0.130891 0.209448
H33   H     H_    0.326713 0.876644 0.392595 0.207414
H34   H     H_    0.357046 0.937183 0.249919 0.208378
C67   C     C_3   0.385170 0.300915 0.620049 -0.805091
H35   H     H_    0.373761 0.328918 0.495384 0.217638
H36   H     H_    0.387173 0.255795 0.560831 0.217252
H37   H     H_    0.345100 0.305194 0.732564 0.191688
C68   C     C_3   0.614773 0.800926 0.380250 -0.805070
H38   H     H_    0.626132 0.828941 0.504943 0.217677
H39   H     H_    0.612741 0.755813 0.439499 0.217255
H40   H     H_    0.654884 0.805191 0.267864 0.191667
C69   C     C_3   0.874147 0.080816 0.061106 -0.753747
H41   H     H_    0.917923 0.086858 0.146280 0.195518
H42   H     H_    0.831293 0.093206 0.155646 0.216822
H43   H     H_    0.871339 0.033688 0.022226 0.201071
C70   C     C_3   0.125811 0.580780 0.939050 -0.753740
H44   H     H_    0.082013 0.586800 0.853959 0.195523
H45   H     H_    0.168643 0.593166 0.844412 0.216829
H46   H     H_    0.128640 0.533658 0.977975 0.201055
C71   C     C_3   0.033228 0.223053 0.458194 -0.781542
H47   H     H_    0.023986 0.179878 0.390716 0.204226
H48   H     H_    0.019134 0.257452 0.355439 0.188958
H49   H     H_    0.086129 0.225497 0.481426 0.219462
C72   C     C_3   0.966948 0.723272 0.542238 -0.781767
H50   H     H_    0.976232 0.680158 0.610050 0.204184
H51   H     H_    0.981129 0.757753 0.644595 0.189009
H52   H     H_    0.914024 0.725703 0.519355 0.219456

loop_
_geom_bond_atom_site_label_1
_geom_bond_atom_site_label_2
_ccdc_geom_bond_type
V4    O20   S    
C25   H3    S    
C26   H4    S    
C46   H24   S    
O4    C2    A    
V1    O19   S    
C72   H50   S    
C34   C72   S    
C15   C17   A    
C7    C9    S    
C70   H45   S    
O9    V1    S    
C5    C39   S    
C24   C70   S    
C42   H22   S    
C27   H15   S    
O3    C1    A    
C37   C65   S    
C65   H30   S    
C2    C35   S    
C14   H14   S    
C9    C11   A    
C42   C44   A    
O12   V4    S    
H18   C62   S    
C48   C52   A    
O13   V3    S    
H17   C61   S    
O10   C6    A    
C21   C23   A    
C38   C66   S    
O7    C3    A    
C66   H34   S    
C53   C55   A    
O5    C7    A    
C46   C48   A    
O7    V1    S    
O6    C8    A    
C51   C59   A    
C16   C32   S    
C52   C54   A    
C38   C54   A    
C69   H43   S    
C26   C28   A    
O3    V1    S    
O14   V4    S    
C45   C47   A    
C10   C12   A    
V2    O20   S    
C68   H40   S    
C15   C31   S    
C16   C18   A    
C8    C10   S    
C2    O12   A    
C23   C69   S    
C69   H42   S    
C17   C19   A    
O10   V2    S    
C24   C36   A    
C18   C20   A    
C3    C64   S    
C12   H2    S    
O1    V3    S    
O18   C8    A    
C72   H51   S    
C28   C30   A    
O11   V3    S    
C41   C43   A    
O15   C5    A    
O17   V3    S    
C70   H46   S    
C22   C24   A    
C23   C35   A    
C43   H25   S    
C9    C19   A    
C10   C20   A    
O8    C4    A    
C71   H49   S    
C49   C57   A    
C29   C33   S    
C17   H5    S    
C1    O11   A    
H19   C55   S    
C25   C27   A    
O15   V3    S    
C39   C61   A    
C27   C29   A    
C32   H12   S    
C22   H8    S    
C47   C49   A    
C40   C62   A    
C50   C64   A    
C22   C30   A    
C56   C58   A    
C11   H1    S    
C37   C53   A    
C66   H32   S    
C39   C59   A    
C4    C63   S    
C55   C57   A    
C44   C46   A    
O18   V4    S    
C54   C56   A    
C60   C68   S    
C31   C33   D    
C67   H35   S    
C57   H27   S    
O16   C6    A    
C65   H31   S    
O1    C3    A    
C12   C14   A    
C1    C36   S    
C72   H52   S    
C20   H10   S    
C67   H36   S    
C68   H38   S    
C30   C34   S    
C52   C60   A    
C13   H13   S    
O16   V4    S    
C11   C13   A    
H20   C56   S    
C42   C64   A    
C19   H9    S    
C28   H16   S    
C51   C53   A    
C21   H7    S    
O5    V1    S    
O17   C7    A    
O6    V2    S    
C70   H44   S    
C45   H23   S    
C41   H21   S    
C37   C61   A    
C25   C35   A    
C33   C71   S    
O2    V4    S    
C26   C36   A    
C71   H48   S    
C6    C40   S    
V3    O19   S    
C41   C63   A    
C65   H29   S    
C49   C63   A    
C14   C16   A    
C48   C50   A    
C69   H41   S    
O8    V2    S    
C67   H37   S    
C40   C60   A    
O9    C5    A    
O13   V1    S    
C32   C34   D    
C38   C62   A    
O14   V2    S    
C44   H26   S    
O2    C4    A    
C66   H33   S    
C58   H28   S    
C21   C29   A    
O4    V2    S    
C50   C58   A    
C47   C51   A    
C13   C15   A    
C18   H6    S    
C43   C45   A    
C71   H47   S    
C59   C67   S    
C31   H11   S    
C68   H39   S    
