data_mof_unit_11954.cif
_audit_creation_date              2012-12-11T14:55:58-0500
_audit_creation_method            fapswitch 2.2
_symmetry_space_group_name_H-M    P1
_symmetry_Int_Tables_number       1
_space_group_crystal_system       triclinic
_cell_length_a                    27.982694
_cell_length_b                    17.271039
_cell_length_c                    18.020934
_cell_angle_alpha                 90.16189
_cell_angle_beta                  138.065913
_cell_angle_gamma                 89.911244
_cell_volume                      5820.21167363

loop_
_atom_site_label
_atom_site_type_symbol
_atom_type_description
_atom_site_fract_x
_atom_site_fract_y
_atom_site_fract_z
_atom_type_partial_charge
C1    C     C_R   0.687780 0.898850 0.802747 -0.137181
C2    C     C_3   0.298169 0.702719 0.014381 -0.169343
C3    C     C_3   0.708402 0.727895 0.946298 -0.151065
C4    C     C_3   0.208361 0.777081 0.944125 -0.153907
C5    C     C_3   0.794446 0.196718 0.083792 -0.169234
C6    C     C_3   0.834040 0.722066 0.019267 -0.150451
C7    C     C_3   0.165912 0.277843 0.980654 -0.150367
C8    C     C_3   0.278635 0.750604 0.060767 -0.134935
C9    C     C_3   0.744716 0.223824 0.963888 -0.134635
C10   C     C_3   0.760586 0.697377 0.901320 -0.144663
C11   C     C_3   0.239321 0.302610 0.098606 -0.144503
C12   C     C_3   0.711983 0.226390 0.070866 -0.142312
C13   C     C_3   0.257965 0.346087 0.047548 -0.170541
C14   C     C_3   0.264529 0.799152 0.904106 -0.143622
C15   C     C_3   0.219465 0.246599 0.938310 -0.137175
C16   C     C_3   0.780595 0.753302 0.061795 -0.137216
C17   C     C_3   0.315849 0.820722 0.068632 0.184229
C18   C     C_3   0.683035 0.180304 0.930176 0.184127
C19   C     C_3   0.727740 0.770609 0.897172 0.183483
C20   C     C_3   0.272247 0.229395 0.102906 0.183439
C21   C     C_3   0.773206 0.269281 0.102945 0.183809
C22   C     C_3   0.227961 0.729461 0.898079 0.183446
C23   C     C_3   0.185928 0.320196 0.932234 0.184333
C24   C     C_3   0.741973 0.653875 0.952412 -0.170469
C25   C     C_3   0.814058 0.679685 0.067723 0.184444
C26   C     C_3   0.245691 0.847637 0.952187 -0.169693
C27   C     C_3   0.732282 0.152564 0.049340 -0.154210
C28   C     C_3   0.799865 0.796285 0.012292 -0.170175
C29   C     C_3   0.200165 0.203639 0.987782 -0.170039
C30   C     C_R   0.716002 0.755361 0.620281 0.125167
C31   C     C_R   0.283976 0.244686 0.379474 0.125096
C32   C     C_R   0.387527 0.852111 0.642708 0.131249
C33   C     C_R   0.312208 0.101205 0.197344 -0.137474
C34   C     C_R   0.612447 0.147887 0.357259 0.131264
C35   C     C_R   0.112388 0.351595 0.357067 0.131030
C36   C     C_R   0.887844 0.648287 0.643266 0.131183
C37   C     C_R   0.784228 0.255281 0.380385 0.125094
C38   C     C_R   0.215768 0.744737 0.619644 0.124021
C39   C     C_R   0.261752 0.374371 0.400063 -0.230764
C40   C     C_R   0.738297 0.625653 0.599859 -0.230759
C41   C     C_R   0.605613 0.250635 0.258416 -0.234366
C42   C     C_R   0.394371 0.749377 0.741575 -0.234989
C43   C     C_R   0.894664 0.751167 0.742500 -0.235215
C44   C     C_R   0.333313 0.923415 0.182901 -0.126406
C45   C     C_R   0.105402 0.248860 0.257503 -0.235535
C46   C     C_R   0.237739 0.874324 0.598922 -0.230765
C47   C     C_R   0.762250 0.125692 0.401092 -0.232410
C48   C     C_R   0.305726 0.322255 0.414034 -0.191954
C49   C     C_R   0.694271 0.677787 0.585743 -0.191834
C50   C     C_R   0.576978 0.212602 0.286300 -0.173998
C51   C     C_R   0.422999 0.787402 0.713676 -0.173930
C52   C     C_R   0.923227 0.713210 0.714279 -0.173393
C53   C     C_R   0.076936 0.286738 0.285926 -0.173086
C54   C     C_R   0.193895 0.822193 0.585066 -0.191176
C55   C     C_R   0.665964 0.076538 0.816973 -0.139604
C56   C     C_R   0.806100 0.177826 0.414967 -0.180455
C57   C     C_R   0.212751 0.224516 0.311286 -0.289627
C58   C     C_R   0.787228 0.775550 0.688477 -0.289613
C59   C     C_R   0.666203 0.111691 0.377938 -0.282147
C60   C     C_R   0.333768 0.888309 0.622025 -0.281775
C61   C     C_R   0.834334 0.611845 0.622913 -0.281937
C62   C     C_R   0.165864 0.388071 0.377366 -0.281901
C63   C     C_R   0.286969 0.724718 0.687525 -0.291160
C64   C     C_R   0.713028 0.275304 0.312506 -0.303030
C65   C     C_R   0.169784 0.275148 0.301941 0.193316
C66   C     C_R   0.168207 0.422608 0.817563 -0.124999
C67   C     C_R   0.830251 0.724893 0.697976 0.193228
C68   C     C_R   0.697433 0.151493 0.355380 0.192006
C69   C     C_R   0.302550 0.848519 0.644612 0.192211
C70   C     C_R   0.803088 0.651619 0.645633 0.192146
C71   C     C_R   0.196999 0.348384 0.354402 0.192236
C72   C     C_R   0.329860 0.775418 0.696934 0.193648
C73   C     C_R   0.670129 0.224599 0.303070 0.196135
C74   C     C_R   0.325329 0.104606 0.404832 -0.145776
C75   C     C_R   0.674656 0.895409 0.595095 -0.145887
C76   C     C_R   0.639467 0.070662 0.507252 -0.132106
C77   C     C_R   0.831862 0.577218 0.182456 -0.125242
C78   C     C_R   0.360525 0.929339 0.492735 -0.131501
C79   C     C_R   0.860540 0.570880 0.492743 -0.130579
C80   C     C_R   0.139567 0.429076 0.507427 -0.130675
C81   C     C_R   0.174634 0.604671 0.595071 -0.147182
C82   C     C_R   0.825368 0.395339 0.404946 -0.147177
C83   C     C_R   0.442735 0.834775 0.579282 -0.136513
C84   C     C_R   0.557255 0.165222 0.420707 -0.135986
C85   C     C_R   0.591405 0.803158 0.504250 -0.140485
C86   C     C_R   0.408567 0.196856 0.495631 -0.140959
C87   C     C_R   0.908685 0.303225 0.495872 -0.141754
C88   C     C_R   0.812404 0.398066 0.197172 -0.149425
C89   C     C_R   0.091310 0.696777 0.504118 -0.141680
C90   C     C_R   0.057483 0.334352 0.420937 -0.134986
C91   C     C_R   0.942754 0.665492 0.579387 -0.134904
C92   C     C_R   0.581958 0.168912 0.725918 -0.129420
C93   C     C_R   0.417884 0.831704 0.273414 -0.142421
C94   C     C_R   0.394953 0.193660 0.286473 -0.159083
C95   C     C_R   0.605048 0.806359 0.713576 -0.159139
C96   C     C_R   0.104991 0.693581 0.714267 -0.158580
C97   C     C_R   0.895838 0.306457 0.285895 -0.147079
C98   C     C_R   0.916673 0.668638 0.272612 -0.143754
C99   C     C_R   0.187634 0.601038 0.803387 -0.137783
C100  C     C_R   0.083334 0.331287 0.727348 -0.144084
C101  C     C_R   0.675686 0.823196 0.806658 0.042818
C102  C     C_R   0.324304 0.176850 0.193455 0.043187
C103  C     C_R   0.360204 0.864246 0.170613 0.030894
C104  C     C_R   0.638965 0.136310 0.828633 0.030777
C105  C     C_R   0.141947 0.363181 0.830232 0.031107
C106  C     C_R   0.858083 0.636675 0.169735 0.030597
C107  C     C_R   0.825253 0.322657 0.192753 0.043183
C108  C     C_R   0.175490 0.676609 0.807812 0.043057
C109  C     C_R   0.337410 0.183765 0.428063 0.074559
C110  C     C_3   0.723721 0.296434 0.983554 -0.155747
C111  C     C_R   0.662561 0.816261 0.571770 0.074153
C112  C     C_R   0.602921 0.127634 0.424837 0.062285
C113  C     C_R   0.397063 0.872363 0.575143 0.062223
C114  C     C_R   0.897157 0.627990 0.575326 0.062042
C115  C     C_R   0.103070 0.371878 0.425001 0.062310
C116  C     C_R   0.162453 0.683747 0.571557 0.074208
C117  C     C_R   0.837544 0.316263 0.428457 0.073924
C118  C     C_3   0.661561 0.252777 0.949212 -0.169234
C119  C     C_3   0.336051 0.773368 0.023212 -0.153210
C120  C     C_3   0.291613 0.272085 0.053808 -0.151314
H1    H     H_    0.739170 0.926747 0.855623 0.083559
H2    H     H_    0.082167 0.194316 0.213016 0.124294
H3    H     H_    0.217180 0.931289 0.561873 0.126704
H4    H     H_    0.782809 0.068728 0.438143 0.126365
H5    H     H_    0.282226 0.431441 0.437193 0.126728
H6    H     H_    0.717852 0.568563 0.562791 0.126825
H7    H     H_    0.582309 0.305064 0.214035 0.124242
H8    H     H_    0.417678 0.694952 0.785965 0.124303
H9    H     H_    0.273685 0.076835 0.341256 0.086744
H10   H     H_    0.726303 0.923175 0.658666 0.086720
H11   H     H_    0.678709 0.030664 0.531346 0.099921
H12   H     H_    0.260795 0.073397 0.144573 0.083335
H13   H     H_    0.321285 0.969343 0.468640 0.099867
H14   H     H_    0.821278 0.530919 0.468552 0.099746
H15   H     H_    0.178816 0.469061 0.531622 0.099671
H16   H     H_    0.226320 0.577096 0.658637 0.087152
H17   H     H_    0.773683 0.422919 0.341394 0.087051
H18   H     H_    0.479131 0.788303 0.633556 0.092449
H19   H     H_    0.520854 0.211690 0.366431 0.092394
H20   H     H_    0.565927 0.747906 0.483952 0.081974
H21   H     H_    0.434020 0.252106 0.515823 0.081802
H22   H     H_    0.934234 0.247999 0.516286 0.081963
H23   H     H_    0.285010 0.956031 0.117530 0.093031
H24   H     H_    0.065755 0.752001 0.483692 0.081841
H25   H     H_    0.021349 0.287557 0.366876 0.092673
H26   H     H_    0.979168 0.712064 0.633762 0.092772
H27   H     H_    0.552312 0.220280 0.706835 0.096990
H28   H     H_    0.447478 0.780519 0.291714 0.102523
H29   H     H_    0.419352 0.250466 0.314047 0.092040
H30   H     H_    0.580665 0.749544 0.686009 0.092045
H31   H     H_    0.081023 0.750567 0.686413 0.091854
H32   H     H_    0.920293 0.249737 0.314604 0.086207
H33   H     H_    0.946701 0.719291 0.290848 0.102586
H34   H     H_    0.714115 0.043889 0.882992 0.098763
H35   H     H_    0.053283 0.280642 0.709063 0.102535
H36   H     H_    0.284929 0.731297 0.126428 0.113514
H37   H     H_    0.757532 0.222254 0.918505 0.113792
H38   H     H_    0.750823 0.676560 0.832578 0.122963
H39   H     H_    0.249025 0.323462 0.167279 0.123055
H40   H     H_    0.700549 0.229163 0.118066 0.123542
H41   H     H_    0.257088 0.816972 0.836869 0.124003
H42   H     H_    0.210842 0.224253 0.871175 0.113114
H43   H     H_    0.789273 0.775618 0.128994 0.112940
H44   H     H_    0.606092 0.274368 0.892331 0.109155
H45   H     H_    0.216775 0.455096 0.882564 0.091542
H46   H     H_    0.389440 0.773576 0.057978 0.114425
H47   H     H_    0.343864 0.268550 0.085053 0.109051
H48   H     H_    0.656178 0.731465 0.915136 0.108918
H49   H     H_    0.155286 0.777412 0.910473 0.108274
H50   H     H_    0.849616 0.174473 0.139670 0.103590
H51   H     H_    0.886580 0.717947 0.051577 0.114850
H52   H     H_    0.113341 0.281932 0.948251 0.114808
H53   H     H_    0.721361 0.356170 0.958313 0.108634
H54   H     H_    0.318919 0.642527 0.038956 0.104045
H55   H     H_    0.280601 0.405412 0.070473 0.105916
H56   H     H_    0.783425 0.544484 0.117569 0.091584
H57   H     H_    0.719302 0.594564 0.929447 0.105203
H58   H     H_    0.225408 0.908019 0.928544 0.106854
H59   H     H_    0.734134 0.092566 0.073304 0.112894
H60   H     H_    0.822898 0.855444 0.035884 0.104356
H61   H     H_    0.177170 0.144463 0.964237 0.103860
H62   H     H_    0.806281 0.833715 0.720949 0.116161
H63   H     H_    0.193679 0.166363 0.278769 0.116176
H64   H     H_    0.308925 0.941038 0.573873 0.118989
H65   H     H_    0.691041 0.058956 0.426077 0.119047
H66   H     H_    0.190637 0.440936 0.425592 0.118979
H67   H     H_    0.760659 0.425165 0.143868 0.089252
H68   H     H_    0.809613 0.558935 0.574790 0.119025
H69   H     H_    0.693878 0.333366 0.280065 0.118068
H70   H     H_    0.306118 0.666654 0.719953 0.116659
H71   H     H_    0.641195 0.658343 0.538771 0.114158
H72   H     H_    0.358795 0.341697 0.460967 0.114017
H73   H     H_    0.468460 0.761209 0.739044 0.111743
H74   H     H_    0.531517 0.238793 0.260933 0.111758
H75   H     H_    0.031653 0.260334 0.260822 0.113148
H76   H     H_    0.968512 0.739612 0.739381 0.111765
H77   H     H_    0.859156 0.158477 0.461741 0.112543
H78   H     H_    0.239097 0.573432 0.856080 0.083662
H79   H     H_    0.140845 0.841543 0.538320 0.114182
H80   H     H_    0.917854 0.805749 0.786889 0.124213
N1    N     N_R   0.625380 0.928280 0.709340 -0.031865
N2    N     N_R   0.613900 0.929750 0.547530 -0.036335
N3    N     N_R   0.613900 0.070250 0.547530 -0.042767
N4    N     N_R   0.386100 0.929750 0.452470 -0.042714
N5    N     N_R   0.886100 0.570250 0.452470 -0.042371
N6    N     N_R   0.113900 0.429750 0.547530 -0.042398
N7    N     N_R   0.113900 0.570250 0.547530 -0.036789
N8    N     N_R   0.886100 0.429750 0.452470 -0.036628
N9    N     N_R   0.437800 0.869550 0.507970 -0.042963
N10   N     N_R   0.562200 0.130450 0.492030 -0.042938
N11   N     N_R   0.562200 0.869550 0.492030 -0.035566
N12   N     N_R   0.374620 0.071720 0.290660 -0.032267
N13   N     N_R   0.437800 0.130450 0.507970 -0.035910
N14   N     N_R   0.937800 0.369550 0.507970 -0.035965
N15   N     N_R   0.062200 0.630450 0.492030 -0.035818
N16   N     N_R   0.062200 0.369550 0.492030 -0.043153
N17   N     N_R   0.937800 0.630450 0.507970 -0.042960
N18   N     N_R   0.573690 0.128980 0.653840 -0.042112
N19   N     N_R   0.426310 0.871020 0.346160 -0.041803
N20   N     N_R   0.426310 0.128980 0.346160 -0.033299
N21   N     N_R   0.573690 0.871020 0.653840 -0.033202
N22   N     N_R   0.073690 0.628980 0.653840 -0.033340
N23   N     N_R   0.374620 0.928280 0.290660 -0.041172
N24   N     N_R   0.926310 0.371020 0.346160 -0.033820
N25   N     N_R   0.926310 0.628980 0.346160 -0.041453
N26   N     N_R   0.073690 0.371020 0.653840 -0.041474
N27   N     N_R   0.625380 0.071720 0.709340 -0.040897
N28   N     N_R   0.125380 0.428280 0.709340 -0.040534
N29   N     N_R   0.874620 0.571720 0.290660 -0.040239
N30   N     N_R   0.874620 0.428280 0.290660 -0.031799
N31   N     N_R   0.125380 0.571720 0.709340 -0.032370
N32   N     N_R   0.386100 0.070250 0.452470 -0.036437
Ni1   Ni    Ni4+2 0.616560 0.000000 0.627280 0.211692
Ni2   Ni    Ni4+2 0.383440 0.000000 0.372720 0.212280
Ni3   Ni    Ni4+2 0.116560 0.500000 0.627280 0.212472
Ni4   Ni    Ni4+2 0.883440 0.500000 0.372720 0.212399
Ni5   Ni    Ni4+2 0.497990 0.870580 0.500000 0.206903
Ni6   Ni    Ni4+2 0.502010 0.129420 0.500000 0.207435
Ni7   Ni    Ni4+2 0.997990 0.370580 0.500000 0.207121
Ni8   Ni    Ni4+2 0.002010 0.629420 0.500000 0.206999

loop_
_geom_bond_atom_site_label_1
_geom_bond_atom_site_label_2
_ccdc_geom_bond_type
C61   C70   A    
C60   H64   S    
C55   H34   S    
C80   N6    A    
C16   C28   S    
C39   H5    S    
C15   C29   S    
C35   C53   A    
C34   C112  S    
C83   C113  A    
C15   H42   S    
C88   N30   A    
C52   H76   S    
N1    N21   A    
N2    N11   A    
C4    C8    S    
C36   C114  S    
C93   C103  A    
C74   C109  A    
C82   N8    A    
C21   C110  S    
C76   N3    A    
N7    Ni3   S    
C22   C108  S    
C94   H29   S    
C7    C11   S    
C99   C108  A    
N5    N17   A    
C100  C105  A    
C95   N21   A    
C80   H15   S    
C29   H61   S    
C20   C29   S    
C7    C29   S    
C17   C26   S    
N10   Ni6   S    
C77   C106  A    
N9    Ni5   S    
C87   C117  A    
C90   H25   S    
C33   N12   A    
C84   N10   A    
C43   C52   A    
C6    C25   S    
C20   C102  S    
C40   C49   A    
C23   C105  S    
N17   Ni8   S    
C16   C25   S    
C4    C22   S    
C15   C120  S    
C13   C23   S    
C93   H28   S    
C55   N27   A    
C41   H7    S    
C46   C69   A    
N4    Ni2   S    
C5    C27   S    
C37   C56   A    
N1    Ni1   S    
C75   N2    A    
C88   H67   S    
C6    C28   S    
C84   H19   S    
N28   Ni3   S    
N4    N9    A    
C3    H48   S    
C64   C73   A    
N11   Ni5   S    
N3    N10   A    
C35   C115  S    
C43   H80   S    
C32   C113  S    
C10   H38   S    
C36   C52   A    
C75   H10   S    
C42   H8    S    
C42   C51   A    
C62   H66   S    
C98   N25   A    
C89   N15   A    
C15   C23   S    
C96   C108  A    
C89   C116  A    
C1    N1    A    
C7    H52   S    
C92   H27   S    
C76   C112  A    
C110  C118  S    
C3    C24   S    
C85   N11   A    
N7    N15   A    
N24   Ni7   S    
C44   C103  A    
C25   C106  S    
C64   H69   S    
C6    H51   S    
C26   H58   S    
C16   H43   S    
C4    C26   S    
N27   Ni1   S    
N15   Ni8   S    
C11   C20   S    
C34   C50   A    
N18   Ni6   S    
C4    H49   S    
C12   C27   S    
C11   H39   S    
C33   C102  A    
C86   C109  A    
C24   C25   S    
C74   N32   A    
N13   Ni6   S    
C51   H73   S    
C19   C101  S    
C57   C65   A    
C44   N23   A    
C88   C107  A    
C92   C104  A    
C18   C104  S    
N12   N20   A    
C10   C24   S    
C68   C73   A    
C65   C71   A    
C96   H31   S    
C41   C73   A    
C55   C104  A    
C45   C53   A    
C61   H68   S    
C12   H40   S    
C54   H79   S    
C50   H74   S    
N21   Ni5   S    
N6    Ni3   S    
C97   C107  A    
C41   C50   A    
C91   N17   A    
C69   C72   A    
C92   N18   A    
C77   N29   A    
C32   C51   A    
C5    C9    S    
N23   Ni2   S    
N24   N30   A    
C59   C68   A    
C38   C116  S    
C9    C18   S    
N12   Ni2   S    
C38   C54   A    
C80   C115  A    
C9    H37   S    
C10   C19   S    
C5    H50   S    
C40   H6    S    
C3    C19   S    
C46   C54   A    
N32   Ni2   S    
C31   C109  S    
C37   C117  S    
C95   H30   S    
C84   C112  A    
C90   N16   A    
C14   C26   S    
C100  N26   A    
C19   C28   S    
C28   H60   S    
C119  H46   S    
C83   N9    A    
N13   N32   A    
C40   C70   A    
C12   C118  S    
C100  H35   S    
C21   C107  S    
C30   C49   A    
N22   N31   A    
C14   C119  S    
C77   H56   S    
C96   N22   A    
C31   C48   A    
C45   C65   A    
C34   C59   A    
C53   H75   S    
C46   H3    S    
C74   H9    S    
C78   C113  A    
C94   N20   A    
C32   C60   A    
C66   C105  A    
C36   C61   A    
C63   H70   S    
C1    C101  A    
N18   N27   A    
C20   C120  S    
C37   C64   A    
C47   C68   A    
C33   H12   S    
C81   H16   S    
C56   H77   S    
C110  H53   S    
N6    N16   A    
C9    C110  S    
C13   H55   S    
C79   H14   S    
N8    Ni4   S    
N8    N14   A    
N26   Ni7   S    
C66   H45   S    
N16   Ni7   S    
C75   C111  A    
N5    Ni4   S    
C2    C8    S    
C18   C27   S    
C27   H59   S    
C85   C111  A    
C6    C10   S    
C99   N31   A    
C2    C119  S    
C97   N24   A    
N3    Ni1   S    
C18   C118  S    
C49   H71   S    
C45   H2    S    
N20   Ni6   S    
C89   H24   S    
C30   C111  S    
N26   N28   A    
C8    C17   S    
C98   C106  A    
C91   C114  A    
C81   N7    A    
C82   H17   S    
C58   H62   S    
C67   C70   A    
C93   N19   A    
N30   Ni4   S    
C14   C22   S    
C14   H41   S    
C90   C115  A    
N14   Ni7   S    
C17   C103  S    
C86   N13   A    
C81   C116  A    
C79   N5    A    
C2    C22   S    
C2    H54   S    
N2    Ni1   S    
C11   C13   S    
C57   H63   S    
C31   C57   A    
C47   H4    S    
C60   C69   A    
N29   Ni4   S    
C44   H23   S    
C7    C23   S    
N19   Ni5   S    
C30   C58   A    
C99   H78   S    
N22   Ni8   S    
C85   H20   S    
C76   H11   S    
C87   N14   A    
C62   C71   A    
C59   H65   S    
C35   C62   A    
C91   H26   S    
C87   H22   S    
C8    H36   S    
C78   H13   S    
C1    H1    S    
C48   H72   S    
C17   C119  S    
N19   N23   A    
C12   C21   S    
C58   C67   A    
C78   N4    A    
C5    C21   S    
C63   C72   A    
C94   C102  A    
C43   C67   A    
C118  H44   S    
C79   C114  A    
C66   N28   A    
C24   H57   S    
C38   C63   A    
N25   Ni8   S    
C39   C71   A    
C47   C56   A    
C97   H32   S    
N31   Ni3   S    
C13   C120  S    
C82   C117  A    
C120  H47   S    
C42   C72   A    
N25   N29   A    
C83   H18   S    
C3    C16   S    
C95   C101  A    
C86   H21   S    
C39   C48   A    
C98   H33   S    
