data_mof_unit_50283.cif
_audit_creation_date              2012-12-10T20:31:57-0500
_audit_creation_method            fapswitch 2.2
_symmetry_space_group_name_H-M    P1
_symmetry_Int_Tables_number       1
_space_group_crystal_system       triclinic
_cell_length_a                    9.950776
_cell_length_b                    10.797429
_cell_length_c                    15.601631
_cell_angle_alpha                 93.293697
_cell_angle_beta                  71.928799
_cell_angle_gamma                 88.406794
_cell_volume                      1589.12305447

loop_
_atom_site_label
_atom_site_type_symbol
_atom_type_description
_atom_site_fract_x
_atom_site_fract_y
_atom_site_fract_z
_atom_type_partial_charge
C1    C     C_R   0.501340 0.739372 0.495942 0.885198
C2    C     C_R   0.445774 0.405702 0.895982 -0.161506
C3    C     C_R   0.318638 0.345182 0.935114 -0.341660
C4    C     C_R   0.550657 0.410345 0.939346 -0.189498
C5    C     C_R   0.512348 0.389870 0.031149 -0.158814
C6    C     C_R   0.395277 0.316408 0.067186 0.547299
C7    C     C_R   0.296724 0.295658 0.020298 0.507677
C8    C     C_R   0.694194 0.428213 0.893333 0.672124
C9    C     C_R   0.789748 0.450753 0.941091 0.453296
C10   C     C_R   0.743305 0.452591 0.035769 -0.256190
C11   C     C_R   0.600035 0.433178 0.081349 -0.065473
C12   C     C_R   0.413595 0.492876 0.674319 0.983832
C13   C     C_R   0.836525 0.474182 0.085664 -0.176131
C14   C     C_R   0.786326 0.487657 0.179358 0.577381
C15   C     C_R   0.545905 0.467191 0.174608 0.493470
C16   C     C_R   0.393530 0.939547 0.478110 -0.236722
C17   C     C_R   0.508828 0.870759 0.486171 -0.184748
C18   C     C_R   0.624385 0.931619 0.499937 -0.229170
C19   C     C_R   0.617356 0.059536 0.515444 0.444918
C20   C     C_R   0.502173 0.128353 0.504775 -0.212106
C21   C     C_R   0.388444 0.067735 0.490827 -0.098512
C22   C     C_3   0.240798 0.069084 0.556471 1.094609
C23   C     C_R   0.500011 0.260692 0.503546 0.878964
C24   C     C_3   0.243507 0.929760 0.536944 0.289822
C25   C     C_R   0.906850 0.597853 0.538433 -0.176586
C26   C     C_R   0.953640 0.411565 0.449330 0.481745
C27   C     C_R   0.097728 0.408548 0.452736 0.465688
C28   C     C_R   0.048708 0.599563 0.538163 -0.111211
C29   C     C_3   0.998850 0.650398 0.635557 0.889567
C30   C     C_3   0.848268 0.645023 0.633131 1.047314
C31   C     C_R   0.586983 0.498856 0.324975 0.887235
C32   C     C_R   0.369167 0.453653 0.767923 -0.468529
C33   C     C_R   0.639739 0.486692 0.225210 -0.354891
C34   C     C_R   0.218841 0.334761 0.887272 0.447133
C35   C     C_R   0.248035 0.384906 0.802044 0.514447
C36   C     C_R   0.459165 0.471818 0.819510 0.663924
H1    H     H_    0.948897 0.480810 0.052559 0.232234
H2    H     H_    0.713951 0.880418 0.508539 0.241586
H3    H     H_    0.240249 0.874919 0.594798 0.138948
N1    N     N_R   0.856900 0.500860 0.500610 -0.132312
N2    N     N_R   0.142540 0.500820 0.500610 -0.128886
O1    O     O_R   0.385310 0.683210 0.499990 -0.630407
O2    O     O_R   0.614650 0.683240 0.500000 -0.598932
O3    O     O_R   0.319830 0.499970 0.632240 -0.512644
O4    O     O_R   0.549170 0.500000 0.632250 -0.528941
O5    O     O_R   0.385350 0.316760 0.500000 -0.538638
O6    O     O_R   0.614690 0.316790 0.500010 -0.584004
O7    O     O_R   0.450830 0.500000 0.367750 -0.615596
O8    O     O_R   0.680170 0.500030 0.367760 -0.520158
Zn1   Zn    Zn3+2 0.346870 0.499980 0.499990 1.078010
Zn2   Zn    Zn3+2 0.653130 0.500020 0.500010 1.102817
O9    O     O_3   0.173093 0.237480 0.061689 -0.529666
C37   C     C_3   0.200730 0.107964 0.058462 -0.254521
H4    H     H_    0.223650 0.082616 0.120564 0.188373
H5    H     H_    0.287701 0.071215 0.997162 0.107902
H6    H     H_    0.103652 0.060693 0.057408 0.170757
O10   O     O_3   0.719314 0.114590 0.545884 -0.613577
C38   C     C_3   0.668847 0.130333 0.641039 -0.149280
H7    H     H_    0.574774 0.196294 0.664650 0.127258
H8    H     H_    0.753064 0.170680 0.665158 0.237744
H9    H     H_    0.644033 0.039843 0.671820 0.164397
O11   O     O_3   0.227012 0.117296 0.646215 -0.575101
C39   C     C_3   0.297722 0.046633 0.694401 -0.527595
H10   H     H_    0.333862 0.111266 0.739548 0.202024
H11   H     H_    0.392790 0.992038 0.652141 0.162874
H12   H     H_    0.223538 0.983283 0.736765 0.181313
F1    F     F_    0.143134 0.129224 0.525409 -0.598035
O12   O     O_3   0.139118 0.896946 0.495035 -0.512310
C40   C     C_3   0.194804 0.851740 0.403644 -0.208780
H13   H     H_    0.267238 0.768945 0.395434 0.176536
H14   H     H_    0.248253 0.925923 0.360795 0.147940
H15   H     H_    0.105831 0.822694 0.379631 0.168341
O13   O     O_3   0.914417 0.340423 0.384771 -0.583299
C41   C     C_3   0.931206 0.211726 0.391562 -0.078827
H16   H     H_    0.951236 0.186140 0.454700 0.249769
H17   H     H_    0.016212 0.170863 0.331852 0.133891
H18   H     H_    0.834073 0.168158 0.387049 0.182718
O14   O     O_3   0.182952 0.302294 0.423548 -0.582198
C42   C     C_3   0.247453 0.294951 0.329878 -0.070167
H19   H     H_    0.360389 0.314082 0.315409 0.222999
H20   H     H_    0.195274 0.355155 0.292493 0.213920
H21   H     H_    0.246618 0.197214 0.304327 0.160701
F2    F     F_    0.033612 0.570477 0.692590 -0.593790
O15   O     O_3   0.401723 0.488438 0.214734 -0.585207
C43   C     C_3   0.364982 0.611842 0.202727 -0.309823
H22   H     H_    0.422827 0.679569 0.232926 0.135873
H23   H     H_    0.250200 0.629983 0.237939 0.195152
H24   H     H_    0.384360 0.626785 0.129981 0.167344
O16   O     O_3   0.038573 0.772978 0.644911 -0.617053
C44   C     C_3   0.987449 0.822432 0.735300 -0.283111
H25   H     H_    0.058158 0.790998 0.773183 0.148280
H26   H     H_    0.875749 0.801080 0.769452 0.183275
H27   H     H_    0.989986 0.925062 0.735535 0.199023
F3    F     F_    0.774049 0.557236 0.685547 -0.543434
F4    F     F_    0.774464 0.758266 0.642582 -0.676029
F5    F     F_    0.881985 0.506619 0.224178 -0.625353
O17   O     O_3   0.927823 0.473337 0.894163 -0.486911
C45   C     C_3   0.942128 0.602730 0.894796 -0.152617
H28   H     H_    0.921084 0.646613 0.964156 0.079863
H29   H     H_    0.870301 0.646861 0.862209 0.176767
H30   H     H_    0.053070 0.620446 0.856572 0.201808
O18   O     O_3   0.086564 0.290636 0.928889 -0.517439
C46   C     C_3   0.072301 0.173986 0.888316 -0.155866
H31   H     H_    0.162629 0.108256 0.883613 0.097606
H32   H     H_    0.057526 0.182956 0.821347 0.251570
H33   H     H_    0.975479 0.133417 0.931619 0.148693
F6    F     F_    0.156408 0.369305 0.753961 -0.516518
F7    F     F_    0.547379 0.566942 0.802270 -0.582162
O19   O     O_3   0.381538 0.255419 0.144533 -0.610848
C47   C     C_3   0.488290 0.159382 0.126561 -0.442945
H34   H     H_    0.591219 0.196915 0.126055 0.199266
H35   H     H_    0.500566 0.103593 0.062002 0.155050
H36   H     H_    0.458295 0.095110 0.181644 0.185780
F8    F     F_    0.745792 0.408065 0.802388 -0.549320

loop_
_geom_bond_atom_site_label_1
_geom_bond_atom_site_label_2
_ccdc_geom_bond_type
C8    C9    A    
C39   H11   S    
C16   C21   A    
C36   F7    S    
O13   C41   S    
C19   C20   A    
C4    C8    A    
C27   O14   S    
O2    Zn2   S    
C24   H3    S    
C14   C33   A    
C29   O16   S    
O17   C45   S    
O10   C38   S    
C37   H4    S    
C19   O10   S    
C25   C28   A    
C26   C27   A    
C34   O18   S    
C41   H17   S    
C32   C36   A    
C28   C29   S    
C7    O9    S    
C5    C11   A    
C3    C7    A    
C25   N1    A    
C5    C6    A    
C43   H24   S    
O4    Zn2   S    
C38   H8    S    
C28   N2    A    
C26   O13   S    
C30   F4    S    
C34   C35   A    
C40   H14   S    
C47   H34   S    
O3    Zn1   S    
C11   C15   A    
C1    O2    A    
O12   C40   S    
O8    Zn2   S    
C41   H18   S    
C31   C33   S    
C9    C10   A    
C13   H1    S    
C8    F8    S    
C38   H9    S    
O7    Zn1   S    
C39   H12   S    
C16   C24   S    
C23   O5    A    
C21   C22   S    
C12   C32   S    
C40   H13   S    
C31   O8    A    
C14   F5    S    
C37   H5    S    
C23   O6    A    
C41   H16   S    
C43   H23   S    
C32   C35   A    
O15   C43   S    
C42   H20   S    
O14   C42   S    
C18   C19   A    
O6    Zn2   S    
C3    C34   A    
C38   H7    S    
C43   H22   S    
C39   H10   S    
C40   H15   S    
C2    C4    A    
C29   C30   S    
C22   O11   S    
C27   N2    A    
C44   H26   S    
C20   C23   S    
O11   C39   S    
C17   C18   A    
C46   H32   S    
C47   H36   S    
C15   O15   S    
O1    Zn1   S    
C45   H29   S    
C31   O7    A    
C6    O19   S    
C22   C24   S    
N1    Zn2   S    
N2    Zn1   S    
O9    C37   S    
C44   H27   S    
C37   H6    S    
C2    C36   A    
C25   C30   S    
C9    O17   S    
C12   O4    A    
C10   C13   A    
C42   H21   S    
C29   F2    S    
C6    C7    A    
C45   H30   S    
O5    Zn1   S    
C1    C17   S    
C2    C3    A    
C18   H2    S    
C12   O3    A    
O19   C47   S    
C26   N1    A    
C44   H25   S    
C16   C17   A    
C46   H33   S    
O18   C46   S    
C47   H35   S    
C22   F1    S    
C35   F6    S    
C10   C11   A    
C24   O12   S    
C42   H19   S    
C1    O1    A    
C4    C5    A    
C20   C21   A    
C30   F3    S    
C45   H28   S    
C46   H31   S    
O16   C44   S    
C13   C14   A    
C15   C33   A    
