data_mof_unit_24564.cif
_audit_creation_date              2012-12-11T15:06:45-0500
_audit_creation_method            fapswitch 2.2
_symmetry_space_group_name_H-M    P1
_symmetry_Int_Tables_number       1
_space_group_crystal_system       triclinic
_cell_length_a                    7.225509
_cell_length_b                    14.793667
_cell_length_c                    22.723374
_cell_angle_alpha                 90.001673
_cell_angle_beta                  90.008261
_cell_angle_gamma                 92.492478
_cell_volume                      2426.64380665

loop_
_atom_site_label
_atom_site_type_symbol
_atom_type_description
_atom_site_fract_x
_atom_site_fract_y
_atom_site_fract_z
_atom_type_partial_charge
O1    O     O_R   0.390810 0.844810 0.447340 -0.509757
O2    O     O_R   0.109190 0.155190 0.947340 -0.510648
O3    O     O_R   0.890810 0.655190 0.552660 -0.547427
O4    O     O_R   0.609190 0.344810 0.052660 -0.546539
O5    O     O_R   0.720550 0.655820 0.440420 -0.546206
O6    O     O_R   0.779450 0.344180 0.940420 -0.545991
O7    O     O_R   0.220550 0.844180 0.559580 -0.534983
O8    O     O_R   0.279450 0.155820 0.059580 -0.532473
C1    C     C_R   0.549285 0.626037 0.426740 0.790986
C2    C     C_R   0.950753 0.374036 0.926798 0.797207
C3    C     C_R   0.055671 0.874459 0.573036 0.784065
C4    C     C_R   0.444274 0.125372 0.072917 0.787784
O9    O     O_R   0.720530 0.844130 0.440420 -0.547406
O10   O     O_R   0.779470 0.155870 0.940420 -0.548010
O11   O     O_R   0.220530 0.655870 0.559580 -0.503096
O12   O     O_R   0.279470 0.344130 0.059580 -0.506394
O13   O     O_R   0.890830 0.844810 0.552660 -0.538896
O14   O     O_R   0.609170 0.155190 0.052660 -0.539740
O15   O     O_R   0.390830 0.655190 0.447340 -0.519931
O16   O     O_R   0.109170 0.344810 0.947340 -0.520382
C5    C     C_R   0.554515 0.871978 0.424942 0.841705
C6    C     C_R   0.945380 0.127921 0.925020 0.842574
C7    C     C_R   0.048916 0.627939 0.574838 0.818374
C8    C     C_R   0.451152 0.372104 0.074806 0.814818
O17   O     O_3   0.557310 0.749980 0.536820 -0.379324
O18   O     O_3   0.942690 0.250020 0.036820 -0.379750
O19   O     O_3   0.057310 0.750020 0.463180 -0.364437
O20   O     O_3   0.442690 0.249980 0.963180 -0.365697
V1    V     V_3+5 0.832160 0.749980 0.493170 1.511176
V2    V     V_3+5 0.667840 0.250020 0.993170 1.512383
V3    V     V_3+5 0.332160 0.750020 0.506830 1.599508
V4    V     V_3+5 0.167840 0.249980 0.006830 1.603325
C9    C     C_R   0.096449 0.601476 0.864458 0.725150
C10   C     C_R   0.415848 0.396035 0.365443 0.668990
C11   C     C_R   0.315802 0.900952 0.143030 0.701961
C12   C     C_R   0.182329 0.099147 0.643032 0.700521
C13   C     C_R   0.971029 0.450217 0.884617 -0.159446
C14   C     C_R   0.529714 0.549542 0.384765 -0.163762
C15   C     C_R   0.438783 0.049980 0.115979 -0.185242
C16   C     C_R   0.060977 0.949776 0.616135 -0.185464
C17   C     C_R   0.925930 0.472845 0.595566 0.083188
C18   C     C_R   0.570226 0.527935 0.095843 0.085777
C19   C     C_R   0.670632 0.023786 0.395463 0.076363
C20   C     C_R   0.829194 0.976102 0.895578 0.074623
C21   C     C_R   0.830310 0.415975 0.635056 0.693220
C22   C     C_R   0.663754 0.585665 0.135337 0.695166
C23   C     C_R   0.739854 0.081382 0.351473 0.661400
C24   C     C_R   0.759163 0.918682 0.851589 0.667019
C25   C     C_R   0.844151 0.430498 0.695216 -0.279544
C26   C     C_R   0.651730 0.570687 0.195498 -0.276588
C27   C     C_R   0.691795 0.066003 0.293136 -0.260638
C28   C     C_R   0.806633 0.934154 0.793214 -0.254829
C29   C     C_R   0.969608 0.496326 0.719027 -0.033617
C30   C     C_R   0.530629 0.503021 0.219380 -0.033996
C31   C     C_R   0.553150 0.000526 0.277047 -0.027654
C32   C     C_R   0.945331 0.999563 0.777078 -0.023323
C33   C     C_R   0.052797 0.561392 0.679195 -0.092106
C34   C     C_R   0.450588 0.437238 0.179546 -0.131094
C35   C     C_R   0.495071 0.935850 0.321115 -0.149337
C36   C     C_R   0.003400 0.064323 0.821103 -0.149812
C37   C     C_R   0.001067 0.503879 0.781518 -0.047796
C38   C     C_R   0.500994 0.494601 0.281927 -0.022865
C39   C     C_R   0.480972 0.993809 0.217840 -0.021135
C40   C     C_R   0.017484 0.006197 0.717877 -0.024393
C41   C     C_R   0.090539 0.584866 0.803225 -0.160653
C42   C     C_R   0.419919 0.411615 0.303904 -0.202959
C43   C     C_R   0.373604 0.913794 0.202117 -0.221036
C44   C     C_R   0.124083 0.086450 0.702073 -0.222889
C45   C     C_R   0.176919 0.647082 0.763656 0.124825
C46   C     C_R   0.340722 0.347105 0.263851 0.109178
C47   C     C_R   0.320165 0.849879 0.246243 0.118931
C48   C     C_R   0.176049 0.150880 0.746064 0.117553
C49   C     C_R   0.158230 0.635176 0.702854 0.528529
C50   C     C_R   0.353231 0.361167 0.203263 0.623920
C51   C     C_R   0.377520 0.862111 0.304258 0.621174
C52   C     C_R   0.119426 0.138523 0.804113 0.619803
C53   C     C_R   0.955822 0.433140 0.823560 0.162868
C54   C     C_R   0.541025 0.566386 0.323672 0.160109
C55   C     C_R   0.502639 0.064577 0.174017 0.173225
C56   C     C_R   0.996384 0.935250 0.674116 0.162668
C57   C     C_R   0.032051 0.536433 0.904863 0.003639
C58   C     C_R   0.475481 0.462728 0.405425 0.041798
C59   C     C_R   0.346625 0.967816 0.100868 0.051739
C60   C     C_R   0.152711 0.032023 0.600989 0.052000
C61   C     C_R   0.023879 0.551247 0.616916 -0.167792
C62   C     C_R   0.476109 0.448457 0.117177 -0.172116
C63   C     C_R   0.561223 0.946200 0.380494 -0.141879
C64   C     C_R   0.938343 0.053744 0.880559 -0.140774
H1    H     H_    0.750108 0.390670 0.722311 0.166596
H2    H     H_    0.743995 0.611585 0.222582 0.165538
H3    H     H_    0.770323 0.104881 0.261271 0.166559
H4    H     H_    0.727665 0.895416 0.761353 0.156346
N1    N     N_3   0.041353 0.558806 0.966595 -0.568222
H5    H     H_    0.985289 0.506813 0.992989 0.223430
H6    H     H_    0.957219 0.613586 0.973473 0.307772
N2    N     N_3   0.468231 0.440984 0.467288 -0.561876
H7    H     H_    0.518767 0.494377 0.493543 0.222144
H8    H     H_    0.557572 0.388353 0.474486 0.308904
N3    N     N_3   0.272069 0.952141 0.043020 -0.540702
H9    H     H_    0.375657 0.966446 0.012039 0.217122
H10   H     H_    0.164737 0.996010 0.035975 0.238739
N4    N     N_3   0.227672 0.047623 0.543191 -0.542088
H11   H     H_    0.124571 0.032963 0.512120 0.216653
H12   H     H_    0.335614 0.004045 0.536369 0.238748
N5    N     N_3   0.297353 0.719594 0.785122 -0.492980
H13   H     H_    0.430526 0.710699 0.768688 0.264703
H14   H     H_    0.252430 0.781001 0.769078 0.262909
N6    N     N_3   0.235236 0.267979 0.282941 -0.554430
H15   H     H_    0.127267 0.287411 0.310145 0.309609
H16   H     H_    0.321254 0.224742 0.305419 0.288864
N7    N     N_3   0.197139 0.773021 0.234795 -0.575403
H17   H     H_    0.259278 0.729303 0.205398 0.286510
H18   H     H_    0.072355 0.794978 0.217793 0.288078
N8    N     N_3   0.296377 0.228648 0.734418 -0.574964
H19   H     H_    0.232574 0.271591 0.704890 0.286787
H20   H     H_    0.422154 0.207709 0.717569 0.288767
F1    F     F_    0.163456 0.682080 0.886127 -0.600994
F2    F     F_    0.354643 0.315474 0.388416 -0.654871
F3    F     F_    0.224065 0.823945 0.124821 -0.637061
F4    F     F_    0.273495 0.176266 0.624752 -0.636581
N9    N     N_3   0.927008 0.339936 0.806822 -0.629123
H21   H     H_    0.996299 0.325299 0.767987 0.264421
H22   H     H_    0.785329 0.322828 0.804836 0.230461
N10   N     N_3   0.560896 0.659814 0.306617 -0.627982
H23   H     H_    0.490042 0.672501 0.267752 0.264133
H24   H     H_    0.701041 0.680109 0.304522 0.228830
N11   N     N_3   0.556275 0.156624 0.188227 -0.633388
H25   H     H_    0.698133 0.168625 0.181275 0.237808
H26   H     H_    0.512252 0.174676 0.230090 0.261607
N12   N     N_3   0.940951 0.843307 0.688200 -0.648979
H27   H     H_    0.799091 0.832025 0.680838 0.237069
H28   H     H_    0.982683 0.824878 0.730254 0.250289
N13   N     N_3   0.907041 0.454085 0.533536 -0.623700
H29   H     H_    0.941475 0.386948 0.526725 0.295622
H30   H     H_    0.005469 0.492034 0.509254 0.219040
N14   N     N_3   0.587542 0.547193 0.033830 -0.617499
H31   H     H_    0.549125 0.613773 0.027188 0.298609
H32   H     H_    0.491217 0.508048 0.009486 0.219827
N15   N     N_3   0.721140 0.040662 0.455588 -0.650276
H33   H     H_    0.675557 0.104341 0.467253 0.297578
H34   H     H_    0.865382 0.043143 0.458183 0.257128
N16   N     N_3   0.779585 0.959069 0.955752 -0.649946
H35   H     H_    0.825164 0.895316 0.967250 0.298568
H36   H     H_    0.635393 0.956673 0.958558 0.257234
F5    F     F_    0.716316 0.347505 0.614794 -0.636787
F6    F     F_    0.773872 0.655580 0.115062 -0.637087
F7    F     F_    0.862422 0.150421 0.364997 -0.662647
F8    F     F_    0.636534 0.849692 0.865162 -0.646317
F9    F     F_    0.247519 0.696923 0.667688 -0.696859
F10   F     F_    0.267543 0.298179 0.168105 -0.666703
F11   F     F_    0.313606 0.799759 0.343845 -0.661824
F12   F     F_    0.181976 0.201418 0.843563 -0.663133

loop_
_geom_bond_atom_site_label_1
_geom_bond_atom_site_label_2
_ccdc_geom_bond_type
O17   V3    S    
C5    C63   S    
O1    C5    A    
N1    H5    S    
C31   C35   A    
O19   V1    S    
C60   N4    S    
C16   C60   A    
O3    C7    A    
N7    H17   S    
C48   C52   A    
O15   V3    S    
C10   C42   A    
C17   N13   S    
N8    H19   S    
C36   C64   A    
C9    C41   A    
C39   C55   A    
O7    C3    A    
N5    H14   S    
C26   C30   A    
C2    C13   S    
C21   F5    S    
C40   C44   A    
O2    V4    S    
C45   C49   A    
C58   N2    S    
C30   C34   A    
O4    C8    A    
C25   C29   A    
C52   F12   S    
C48   N8    S    
O1    V3    S    
O13   V1    S    
N6    H15   S    
C18   N14   S    
C18   C22   A    
C33   C49   A    
O3    V1    S    
N1    H6    S    
C27   H3    S    
C29   C37   A    
C1    O15   A    
C2    O16   A    
N2    H8    S    
C46   C50   A    
C16   C56   A    
C19   N15   S    
C18   C62   A    
C11   C43   A    
C54   N10   S    
C27   C31   A    
C44   C48   A    
O11   C7    A    
O12   C8    A    
C59   N3    S    
C14   C58   A    
C40   C56   A    
C13   C57   A    
N4    H11   S    
O10   V2    S    
C34   C62   A    
C26   H2    S    
O5    V1    S    
C9    F1    S    
C39   C43   A    
C56   N12   S    
C38   C42   A    
C28   C32   A    
O8    V4    S    
O7    V3    S    
N14   H32   S    
C37   C53   A    
C45   N5    S    
O18   V4    S    
C23   C27   A    
C14   C54   A    
C13   C53   A    
C10   F2    S    
C36   C52   A    
C32   C36   A    
C31   C39   A    
C15   C55   A    
N12   H28   S    
N11   H26   S    
O5    C1    A    
C57   N1    S    
N3    H9    S    
C21   C25   A    
O8    C4    A    
N2    H7    S    
C32   C40   A    
N3    H10   S    
O9    C5    A    
N7    H18   S    
N4    H12   S    
N9    H21   S    
O14   V2    S    
O6    V2    S    
C19   C23   A    
C6    C64   S    
N13   H29   S    
N16   H36   S    
C28   H4    S    
N11   H25   S    
C35   C51   A    
C17   C61   A    
C34   C50   A    
N10   H24   S    
O16   V4    S    
O9    V1    S    
C55   N11   S    
C3    O13   A    
C11   C59   A    
C22   F6    S    
C49   F9    S    
C38   C54   A    
C25   H1    S    
N14   H31   S    
C29   C33   A    
O6    C2    A    
N8    H20   S    
N15   H33   S    
C12   C44   A    
O11   V3    S    
O12   V4    S    
C30   C38   A    
N5    H13   S    
C22   C26   A    
C47   N7    S    
O10   C6    A    
C4    C15   S    
O20   V2    S    
N12   H27   S    
C19   C63   A    
C23   F7    S    
C46   N6    S    
O2    C6    A    
C47   C51   A    
N15   H34   S    
C11   F3    S    
C42   C46   A    
C8    C62   S    
C12   C60   A    
C41   C45   A    
C24   F8    S    
C1    C14   S    
N6    H16   S    
C43   C47   A    
C3    C16   S    
C12   F4    S    
C35   C63   A    
N9    H22   S    
C53   N9    S    
C15   C59   A    
C37   C41   A    
C24   C28   A    
C20   N16   S    
C7    C61   S    
C4    O14   A    
C51   F11   S    
N13   H30   S    
C17   C21   A    
N16   H35   S    
C50   F10   S    
C10   C58   A    
C20   C64   A    
C9    C57   A    
C33   C61   A    
O4    V2    S    
C20   C24   A    
N10   H23   S    
