data_mof_unit_57940.cif
_audit_creation_date              2012-12-11T14:52:38-0500
_audit_creation_method            fapswitch 2.2
_symmetry_space_group_name_H-M    P1
_symmetry_Int_Tables_number       1
_space_group_crystal_system       triclinic
_cell_length_a                    18.895723
_cell_length_b                    10.867316
_cell_length_c                    18.851079
_cell_angle_alpha                 90.002608
_cell_angle_beta                  90.595522
_cell_angle_gamma                 90.002333
_cell_volume                      3870.78066427

loop_
_atom_site_label
_atom_site_type_symbol
_atom_type_description
_atom_site_fract_x
_atom_site_fract_y
_atom_site_fract_z
_atom_type_partial_charge
C1    C     C_R   0.271805 0.043587 0.853413 0.587448
C2    C     C_R   0.693907 0.539579 0.035682 -0.045305
C3    C     C_3   0.025439 0.325429 0.065506 0.001901
C4    C     C_R   0.805885 0.039123 0.964269 -0.047256
C5    C     C_R   0.193901 0.039593 0.035678 -0.045297
C6    C     C_R   0.302229 0.526300 0.037790 0.345626
C7    C     C_R   0.697606 0.526965 0.962147 0.346158
C8    C     C_R   0.802226 0.026301 0.037787 0.345645
C9    C     C_R   0.197599 0.026983 0.962142 0.346120
C10   C     C_R   0.247334 0.584236 0.075387 0.073762
C11   C     C_R   0.752921 0.584008 0.924739 0.074557
C12   C     C_R   0.747321 0.084216 0.075379 0.073765
C13   C     C_R   0.728228 0.043606 0.146610 0.587534
C14   C     C_R   0.252915 0.084024 0.924734 0.074563
C15   C     C_R   0.200439 0.662993 0.039136 0.347652
C16   C     C_R   0.800357 0.661513 0.961233 0.348453
C17   C     C_R   0.700407 0.162932 0.039120 0.347699
C18   C     C_R   0.300348 0.161534 0.961228 0.348446
C19   C     C_R   0.202739 0.671218 0.966546 -0.045343
C20   C     C_R   0.798052 0.669327 0.033818 -0.042308
C21   C     C_R   0.702708 0.171144 0.966531 -0.045200
C22   C     C_R   0.298047 0.169341 0.033814 -0.042320
C23   C     C_R   0.254606 0.608770 0.928091 -0.042444
C24   C     C_R   0.771806 0.543583 0.853414 0.587490
C25   C     C_R   0.745589 0.608059 0.072065 -0.041432
C26   C     C_R   0.754595 0.108736 0.928083 -0.042416
C27   C     C_R   0.245586 0.108068 0.072062 -0.041434
C28   C     C_R   0.497672 0.718277 0.536087 -0.099138
C29   C     C_R   0.501258 0.718361 0.463587 -0.100014
C30   C     C_R   0.997938 0.218284 0.536173 -0.099443
C31   C     C_R   0.001526 0.218342 0.463673 -0.099838
C32   C     C_R   0.506132 0.829553 0.426369 0.022276
C33   C     C_R   0.493463 0.829432 0.573457 0.022360
C34   C     C_R   0.006277 0.329531 0.426431 0.022534
C35   C     C_R   0.228231 0.543610 0.146613 0.587501
C36   C     C_R   0.993612 0.329447 0.573519 0.022129
C37   C     C_R   0.503413 0.941560 0.463194 -0.094890
C38   C     C_R   0.496612 0.941502 0.536751 -0.095781
C39   C     C_R   0.003531 0.441549 0.463244 -0.094714
C40   C     C_R   0.996738 0.441507 0.536802 -0.095843
C41   C     C_R   0.443689 0.817873 0.863149 0.597124
C42   C     C_R   0.556279 0.817878 0.136848 0.597101
C43   C     C_R   0.943685 0.317872 0.863149 0.597094
C44   C     C_R   0.056277 0.317878 0.136848 0.597119
C45   C     C_R   0.183395 0.590387 0.543379 0.360261
C46   C     C_3   0.522703 0.723457 0.966175 -0.171650
C47   C     C_R   0.816546 0.589579 0.456535 0.360402
C48   C     C_R   0.683404 0.090236 0.543395 0.360203
C49   C     C_R   0.316590 0.089950 0.456567 0.360419
C50   C     C_R   0.178089 0.586834 0.471006 -0.148253
C51   C     C_R   0.821974 0.585781 0.528904 -0.148106
C52   C     C_R   0.678077 0.086635 0.471023 -0.148245
C53   C     C_R   0.321960 0.086250 0.528940 -0.148167
C54   C     C_R   0.238407 0.566999 0.429721 -0.018568
C55   C     C_R   0.761619 0.566940 0.570294 -0.018377
C56   C     C_R   0.738402 0.066984 0.429720 -0.018494
C57   C     C_3   0.476736 0.723987 0.034040 -0.172181
C58   C     C_R   0.261619 0.066913 0.570274 -0.018572
C59   C     C_R   0.304406 0.547031 0.461886 0.354824
C60   C     C_R   0.695463 0.548056 0.538269 0.355110
C61   C     C_R   0.804431 0.047213 0.461859 0.354840
C62   C     C_R   0.195541 0.047464 0.538176 0.355065
C63   C     C_R   0.310229 0.554575 0.534893 -0.155314
C64   C     C_R   0.689548 0.555714 0.465277 -0.155148
C65   C     C_R   0.810269 0.054766 0.534864 -0.155252
C66   C     C_R   0.189673 0.055068 0.465176 -0.155226
C67   C     C_R   0.250109 0.581878 0.575330 -0.022592
C68   C     C_3   0.022710 0.223470 0.966170 -0.171654
C69   C     C_R   0.749740 0.582055 0.424723 -0.022460
C70   C     C_R   0.750135 0.081901 0.575321 -0.022525
C71   C     C_R   0.249826 0.081930 0.424685 -0.022610
C72   C     C_R   0.261738 0.640330 0.853373 0.568449
C73   C     C_R   0.738318 0.640099 0.146701 0.568642
C74   C     C_R   0.761734 0.140319 0.853369 0.568490
C75   C     C_R   0.238318 0.140102 0.146700 0.568585
C76   C     C_R   0.273051 0.042680 0.644333 0.576095
C77   C     C_R   0.726954 0.042693 0.355664 0.576024
C78   C     C_R   0.773047 0.542698 0.644345 0.576331
C79   C     C_3   0.976745 0.223970 0.034036 -0.172156
C80   C     C_R   0.226956 0.542698 0.355664 0.575897
C81   C     C_R   0.469644 0.823452 0.646436 0.568553
C82   C     C_R   0.530258 0.823477 0.353500 0.568115
C83   C     C_R   0.969683 0.323457 0.646460 0.568333
C84   C     C_R   0.030294 0.323472 0.353523 0.568347
C85   C     C_R   0.259792 0.634000 0.644685 0.578673
C86   C     C_R   0.740175 0.634063 0.355340 0.579054
C87   C     C_R   0.759797 0.134010 0.644681 0.578779
C88   C     C_R   0.240195 0.134023 0.355323 0.578818
C89   C     C_3   0.477823 0.925700 0.033513 0.227442
C90   C     C_R   0.305885 0.539126 0.964272 -0.047268
C91   C     C_3   0.522576 0.925172 0.966318 0.227255
C92   C     C_3   0.977805 0.425683 0.033520 0.227531
C93   C     C_3   0.022557 0.425184 0.966324 0.227208
C94   C     C_3   0.429420 0.826171 0.001886 0.324143
C95   C     C_3   0.570500 0.825155 0.998132 0.323739
C96   C     C_3   0.929414 0.326141 0.001888 0.324201
C97   C     C_3   0.070495 0.325180 0.998132 0.323594
C98   C     C_3   0.474481 0.825405 0.934513 0.002231
C99   C     C_3   0.525443 0.825432 0.065506 0.001927
C100  C     C_3   0.974474 0.325405 0.934514 0.002247
Cr1   Cr    Cr6+3 0.229630 0.835900 0.747350 1.171180
Cr2   Cr    Cr6+3 0.614200 0.677120 0.250660 1.076427
Cr3   Cr    Cr6+3 0.885800 0.177120 0.749340 1.076379
Cr4   Cr    Cr6+3 0.114200 0.177120 0.250660 1.076417
Cr5   Cr    Cr6+3 0.770370 0.835900 0.252650 1.171091
Cr6   Cr    Cr6+3 0.729630 0.335900 0.747350 1.171085
Cr7   Cr    Cr6+3 0.270370 0.335900 0.252650 1.171168
Cr8   Cr    Cr6+3 0.387410 0.989850 0.750850 1.125625
Cr9   Cr    Cr6+3 0.612590 0.989850 0.249150 1.125386
Cr10  Cr    Cr6+3 0.887410 0.489850 0.750850 1.125665
Cr11  Cr    Cr6+3 0.112590 0.489850 0.249150 1.125385
Cr12  Cr    Cr6+3 0.385800 0.677120 0.749340 1.076403
F1    F     F_    0.356283 0.828739 0.002941 -0.650346
F2    F     F_    0.636886 0.525703 0.577353 -0.604265
F3    F     F_    0.862971 0.024028 0.422878 -0.604523
F4    F     F_    0.136987 0.024584 0.577195 -0.604063
F5    F     F_    0.351484 0.456262 0.071606 -0.619396
F6    F     F_    0.647893 0.458221 0.928102 -0.619939
F7    F     F_    0.851492 0.956291 0.071608 -0.619382
F8    F     F_    0.147882 0.958251 0.928096 -0.619965
F9    F     F_    0.149808 0.728661 0.073099 -0.598491
F10   F     F_    0.851479 0.726421 0.927519 -0.598171
F11   F     F_    0.649761 0.228577 0.073075 -0.598457
F12   F     F_    0.643646 0.826738 0.997066 -0.650156
F13   F     F_    0.351463 0.226453 0.927511 -0.598229
F14   F     F_    0.856277 0.328680 0.002947 -0.650332
F15   F     F_    0.143641 0.326793 0.997063 -0.650184
F16   F     F_    0.124087 0.611059 0.581709 -0.608084
F17   F     F_    0.875857 0.609425 0.418069 -0.608230
F18   F     F_    0.624095 0.110766 0.581747 -0.608200
F19   F     F_    0.375898 0.110225 0.418168 -0.608025
F20   F     F_    0.362937 0.523656 0.422929 -0.604495
H1    H     H_    0.126029 0.597666 0.447523 0.169349
H2    H     H_    0.457206 0.641165 0.062190 0.215745
H3    H     H_    0.041844 0.140205 0.938179 0.216948
H4    H     H_    0.957228 0.141134 0.062182 0.215771
H5    H     H_    0.348685 0.495543 0.935924 0.202379
H6    H     H_    0.650692 0.496928 0.063866 0.202350
H7    H     H_    0.848698 0.995568 0.935926 0.202361
H8    H     H_    0.150687 0.996941 0.063863 0.202375
H9    H     H_    0.164063 0.729831 0.940751 0.235238
H10   H     H_    0.837130 0.726964 0.059760 0.235329
H11   H     H_    0.664019 0.229731 0.940732 0.235212
H12   H     H_    0.874125 0.595693 0.552315 0.169053
H13   H     H_    0.337125 0.226974 0.059756 0.235348
H14   H     H_    0.494880 0.629755 0.562339 0.195974
H15   H     H_    0.503620 0.629897 0.437216 0.196663
H16   H     H_    0.995205 0.129769 0.562441 0.196036
H17   H     H_    0.003953 0.129866 0.437321 0.196512
H18   H     H_    0.507797 0.028306 0.435418 0.192596
H19   H     H_    0.492615 0.028219 0.564626 0.192995
H20   H     H_    0.007864 0.528292 0.435455 0.192594
H21   H     H_    0.992699 0.528229 0.564665 0.193020
H22   H     H_    0.441171 0.089981 0.032940 0.358203
H23   H     H_    0.626000 0.097287 0.447552 0.169285
H24   H     H_    0.560775 0.088353 0.966622 0.356973
H25   H     H_    0.941182 0.589982 0.032957 0.358267
H26   H     H_    0.060898 0.588254 0.966654 0.356953
H27   H     H_    0.374068 0.096606 0.552389 0.169281
H28   H     H_    0.362341 0.547387 0.559018 0.169386
H29   H     H_    0.637347 0.549404 0.441260 0.169624
H30   H     H_    0.862395 0.047722 0.558970 0.169467
H31   H     H_    0.137517 0.048296 0.441103 0.169653
H32   H     H_    0.541828 0.640179 0.938190 0.216936
O1    O     O_R   0.214270 0.709000 0.827470 -0.481017
O2    O     O_R   0.543270 0.717630 0.330160 -0.508713
O3    O     O_R   0.956730 0.217630 0.669840 -0.508273
O4    O     O_R   0.043270 0.217630 0.330160 -0.508615
O5    O     O_R   0.320620 0.625640 0.672920 -0.532473
O6    O     O_R   0.679380 0.625640 0.327080 -0.532349
O7    O     O_R   0.820620 0.125640 0.672920 -0.532393
O8    O     O_R   0.179380 0.125640 0.327080 -0.532400
O9    O     O_3   0.334280 0.834290 0.749180 -0.327896
O10   O     O_3   0.665720 0.834290 0.250820 -0.327643
O11   O     O_3   0.834280 0.334290 0.749180 -0.327874
O12   O     O_R   0.785730 0.709000 0.172530 -0.480837
O13   O     O_3   0.165720 0.334290 0.250820 -0.327644
O14   O     O_R   0.236160 0.958490 0.823130 -0.456267
O15   O     O_R   0.763840 0.958490 0.176870 -0.455952
O16   O     O_R   0.736160 0.458490 0.823130 -0.456228
O17   O     O_R   0.263840 0.458490 0.176870 -0.455966
O18   O     O_R   0.332080 0.075470 0.831280 -0.446430
O19   O     O_R   0.667920 0.075470 0.168720 -0.446580
O20   O     O_R   0.832080 0.575470 0.831280 -0.446405
O21   O     O_R   0.167920 0.575470 0.168720 -0.446612
O22   O     O_R   0.446300 0.918110 0.826620 -0.436410
O23   O     O_R   0.714270 0.209000 0.827470 -0.480995
O24   O     O_R   0.553700 0.918110 0.173380 -0.436909
O25   O     O_R   0.946300 0.418110 0.826620 -0.436414
O26   O     O_R   0.053700 0.418110 0.173380 -0.436899
O27   O     O_R   0.457110 0.716200 0.831760 -0.503900
O28   O     O_R   0.542890 0.716200 0.168240 -0.504146
O29   O     O_R   0.957110 0.216200 0.831760 -0.503948
O30   O     O_R   0.042890 0.216200 0.168240 -0.504110
O31   O     O_R   0.320980 0.624310 0.823030 -0.512043
O32   O     O_R   0.679020 0.624310 0.176970 -0.511775
O33   O     O_R   0.820980 0.124310 0.823030 -0.512028
O34   O     O_R   0.285730 0.209000 0.172530 -0.480864
O35   O     O_R   0.179020 0.124310 0.176970 -0.511798
O36   O     O_R   0.213890 0.710430 0.665540 -0.415507
O37   O     O_R   0.786110 0.710430 0.334460 -0.415853
O38   O     O_R   0.713890 0.210430 0.665540 -0.415762
O39   O     O_R   0.286110 0.210430 0.334460 -0.415623
O40   O     O_R   0.235810 0.959820 0.673020 -0.437708
O41   O     O_R   0.764190 0.959820 0.326980 -0.437859
O42   O     O_R   0.735810 0.459820 0.673020 -0.437933
O43   O     O_R   0.264190 0.459820 0.326980 -0.437717
O44   O     O_R   0.331700 0.076900 0.669350 -0.541044
O45   O     O_R   0.445950 0.919440 0.676520 -0.499335
O46   O     O_R   0.668300 0.076900 0.330650 -0.540968
O47   O     O_R   0.831700 0.576900 0.669350 -0.540945
O48   O     O_R   0.168300 0.576900 0.330650 -0.541049
O49   O     O_3   0.454945 0.029976 0.070113 -0.625828
O50   O     O_3   0.545956 0.028909 0.929540 -0.625100
O51   O     O_3   0.954915 0.529944 0.070126 -0.625821
O52   O     O_3   0.045923 0.528944 0.929562 -0.625049
O53   O     O_R   0.554050 0.919440 0.323480 -0.499220
O54   O     O_R   0.945950 0.419440 0.676520 -0.499360
O55   O     O_R   0.054050 0.419440 0.323480 -0.499174
O56   O     O_R   0.456730 0.717630 0.669840 -0.508141

loop_
_geom_bond_atom_site_label_1
_geom_bond_atom_site_label_2
_ccdc_geom_bond_type
C95   F12   S    
Cr2   O6    S    
C81   O45   A    
C21   C26   A    
C58   C62   A    
C88   O8    A    
C24   O20   A    
C72   O1    A    
C14   C18   A    
C67   C85   S    
C60   F2    S    
C2    C7    A    
C37   H18   S    
C97   F15   S    
C3    C79   S    
C72   O31   A    
C68   C100  S    
Cr8   O45   S    
Cr1   O36   S    
C58   C76   S    
Cr10  O11   S    
C52   H23   S    
Cr3   O3    S    
C79   H4    S    
C49   F19   S    
C50   C54   A    
C34   C84   S    
C47   F17   S    
C51   H12   S    
Cr8   O22   S    
C28   C29   A    
C25   C73   S    
Cr6   O23   S    
C15   C19   A    
C29   C32   A    
C10   C15   A    
C18   F13   S    
C30   C31   A    
C31   H17   S    
C95   C99   S    
Cr4   O4    S    
C20   C25   A    
C94   C98   S    
C45   F16   S    
H26   O52   S    
C65   C70   A    
C57   C99   S    
C11   C24   S    
C92   C96   S    
C28   H14   S    
C92   O51   S    
Cr3   O33   S    
C89   C94   S    
C16   F10   S    
C68   C97   S    
C47   C69   A    
Cr1   O14   S    
C44   O26   A    
C5    C27   A    
Cr1   O9    S    
Cr8   O18   S    
C17   F11   S    
C46   C95   S    
Cr4   O13   S    
C13   O19   A    
Cr5   O12   S    
C65   H30   S    
Cr8   O44   S    
Cr2   O28   S    
Cr6   O11   S    
C74   O33   A    
C10   C35   S    
C8    C12   A    
C89   C91   S    
C15   F9    S    
C4    C8    A    
C6    F5    S    
Cr7   O43   S    
C16   C20   A    
Cr4   O8    S    
Cr9   O19   S    
C68   C79   S    
Cr12  O9    S    
C46   C98   S    
Cr10  O20   S    
C19   H9    S    
C18   C22   A    
C55   C60   A    
Cr7   O13   S    
C93   O52   S    
Cr3   O7    S    
C7    F6    S    
C48   F18   S    
Cr7   O39   S    
Cr11  O55   S    
C63   H28   S    
Cr5   O15   S    
H22   O49   S    
C27   C75   S    
C70   C87   S    
Cr6   O16   S    
C94   F1    S    
C54   C80   S    
C54   C59   A    
Cr9   O24   S    
C3    C44   S    
C63   C67   A    
C59   F20   S    
H25   O51   S    
C91   O50   S    
C53   H27   S    
C62   C66   A    
Cr11  O48   S    
C34   C39   A    
C2    H6    S    
C20   H10   S    
C32   C37   A    
C36   C40   A    
C43   C100  S    
C21   H11   S    
C39   C40   A    
C83   O54   A    
C41   O27   A    
C61   F3    S    
C47   C51   A    
C6    C90   A    
C81   O56   A    
C83   O3    A    
C39   H20   S    
Cr1   O40   S    
C42   O28   A    
C85   O5    A    
C56   C77   S    
C88   O39   A    
C3    C92   S    
C12   C17   A    
C7    C11   A    
C9    C14   A    
C78   O42   A    
Cr12  O31   S    
C5    C9    A    
C37   C38   A    
C84   O4    A    
C84   O55   A    
C77   O41   A    
Cr6   O38   S    
C1    O14   A    
C3    C97   S    
C85   O36   A    
Cr5   O37   S    
Cr12  O5    S    
C93   C100  S    
C22   H13   S    
C35   O21   A    
C87   O7    A    
Cr8   O9    S    
Cr3   O11   S    
Cr12  O56   S    
C31   C34   A    
C96   F14   S    
C56   C61   A    
C64   C69   A    
Cr1   O1    S    
C86   O37   A    
C66   C71   A    
C77   O46   A    
Cr6   O42   S    
Cr7   O17   S    
C28   C33   A    
C76   O44   A    
C75   O35   A    
C57   C94   S    
C46   C57   S    
H24   O50   S    
C22   C27   A    
Cr4   O35   S    
C29   H15   S    
C57   H2    S    
C35   O17   A    
Cr9   O46   S    
C93   C97   S    
C38   H19   S    
C90   H5    S    
C19   C23   A    
C5    H8    S    
C89   O49   S    
C74   O23   A    
C82   O2    A    
C75   O34   A    
C42   O24   A    
C55   C78   S    
C87   O38   A    
Cr9   O10   S    
C86   O6    A    
C44   O30   A    
C23   C72   S    
C68   H3    S    
C48   C70   A    
C64   H29   S    
C89   C99   S    
C50   H1    S    
Cr2   O32   S    
Cr5   O10   S    
C6    C10   A    
Cr7   O34   S    
C4    C26   A    
C53   C58   A    
C76   O40   A    
C30   H16   S    
C45   C67   A    
Cr5   O41   S    
C30   C36   A    
Cr2   O10   S    
C32   C82   S    
C43   O29   A    
Cr10  O25   S    
C59   C63   A    
C33   C38   A    
C80   O48   A    
C60   C64   A    
Cr10  O47   S    
C79   C96   S    
C13   O15   A    
C42   C99   S    
Cr12  O27   S    
C23   C90   A    
C2    C25   A    
C82   O53   A    
C45   C50   A    
C73   O12   A    
C49   C53   A    
C24   O16   A    
C96   C100  S    
C92   C93   S    
C26   C74   S    
C66   H31   S    
Cr11  O21   S    
C51   C55   A    
C91   C98   S    
C40   H21   S    
C17   C21   A    
C1    O18   A    
C11   C16   A    
Cr9   O53   S    
C62   F4    S    
Cr10  O54   S    
C91   C95   S    
C71   C88   S    
C61   C65   A    
C48   C52   A    
C80   O43   A    
C12   C13   S    
C43   O25   A    
Cr11  O26   S    
Cr2   O2    S    
C49   C71   A    
C73   O32   A    
C41   O22   A    
Cr11  O13   S    
C9    F8    S    
Cr4   O30   S    
C41   C98   S    
C46   H32   S    
C1    C14   S    
C36   C83   S    
C33   C81   S    
C78   O47   A    
C69   C86   S    
C52   C56   A    
C8    F7    S    
Cr3   O29   S    
C4    H7    S    
