data_mof_unit_6269.cif
_audit_creation_date              2012-12-10T18:42:32-0500
_audit_creation_method            fapswitch 2.2
_symmetry_space_group_name_H-M    P1
_symmetry_Int_Tables_number       1
_space_group_crystal_system       triclinic
_cell_length_a                    8.680025
_cell_length_b                    10.75535
_cell_length_c                    9.973333
_cell_angle_alpha                 89.037127
_cell_angle_beta                  98.440125
_cell_angle_gamma                 92.98069
_cell_volume                      919.708110581

loop_
_atom_site_label
_atom_site_type_symbol
_atom_type_description
_atom_site_fract_x
_atom_site_fract_y
_atom_site_fract_z
_atom_type_partial_charge
C1    C     C_R   0.511405 0.260985 0.501521 0.884195
C2    C     C_R   0.493801 0.739373 0.498777 0.820219
C3    C     C_R   0.202285 0.495999 0.465720 0.947171
C4    C     C_R   0.798027 0.501348 0.534752 0.861266
C5    C     C_2   0.039321 0.470500 0.455301 -0.262760
C6    C     C_2   0.961997 0.521339 0.547785 -0.210290
C7    C     C_R   0.569126 0.064402 0.392752 -0.003738
C8    C     C_R   0.448046 0.936361 0.607824 -0.009455
C9    C     C_R   0.552139 0.936063 0.392768 -0.145875
C10   C     C_R   0.474931 0.063445 0.611910 -0.152342
C11   C     C_R   0.492187 0.872310 0.498350 -0.159256
C12   C     C_R   0.524389 0.128258 0.502735 -0.152551
C13   C     C_R   0.596730 0.581588 0.081626 0.159705
C14   C     C_R   0.406868 0.414082 0.918956 0.204851
C15   C     C_R   0.584956 0.589000 0.937387 0.212414
C16   C     C_R   0.400691 0.420946 0.062480 0.215641
H1    H     H_    0.590433 0.885392 0.311680 0.195751
H2    H     H_    0.448410 0.113111 0.697448 0.198216
N1    N     N_R   0.499960 0.499970 0.857200 -0.148896
N2    N     N_R   0.500040 0.500030 0.142800 -0.161221
O1    O     O_R   0.499990 0.316750 0.614620 -0.635874
O2    O     O_R   0.500010 0.683250 0.385380 -0.641660
O3    O     O_R   0.499990 0.316780 0.385290 -0.631285
O4    O     O_R   0.500010 0.683220 0.614710 -0.609697
O5    O     O_R   0.271750 0.499990 0.587840 -0.602568
O6    O     O_R   0.728250 0.500010 0.412160 -0.660384
O7    O     O_R   0.271750 0.500010 0.358510 -0.590263
O8    O     O_R   0.728250 0.499990 0.641490 -0.599429
Zn1   Zn    Zn3+2 0.500000 0.499980 0.653120 0.980641
Zn2   Zn    Zn3+2 0.500000 0.500020 0.346880 0.951057
C17   C     C_2   0.973861 0.366648 0.365050 0.362117
H3    H     H_    0.877357 0.380308 0.285077 0.099527
O9    O     O_2   0.031795 0.265268 0.377699 -0.577028
C18   C     C_2   0.030457 0.621868 0.641479 0.375926
H4    H     H_    0.020194 0.718395 0.609644 0.020429
O10   O     O_2   0.096100 0.596733 0.754780 -0.559666
C19   C     C_2   0.641203 0.126747 0.281270 0.427366
H5    H     H_    0.697448 0.218369 0.294606 0.089389
O11   O     O_2   0.640597 0.075026 0.173052 -0.574200
C20   C     C_2   0.364666 0.875402 0.713446 0.407251
H6    H     H_    0.295417 0.789631 0.692040 0.117502
O12   O     O_2   0.371082 0.921117 0.825468 -0.583415
N3    N     N_2   0.705713 0.664755 0.160701 -0.290308
H7    H     H_    0.686011 0.684013 0.255943 0.284679
C21   C     C_3   0.869332 0.650043 0.154997 -0.798057
H8    H     H_    0.930366 0.625550 0.256532 0.226362
H9    H     H_    0.923494 0.739646 0.124461 0.264576
H10   H     H_    0.886543 0.575965 0.083646 0.235081
N4    N     N_2   0.301925 0.328661 0.837522 -0.297742
H11   H     H_    0.292618 0.339125 0.735158 0.302180
C22   C     C_3   0.285379 0.199582 0.879701 -0.738476
H12   H     H_    0.241167 0.141266 0.790279 0.251316
H13   H     H_    0.193011 0.186194 0.944634 0.254817
H14   H     H_    0.398161 0.165937 0.931076 0.281708
N5    N     N_2   0.638375 0.700848 0.876938 -0.262015
H15   H     H_    0.616916 0.781063 0.924852 0.268558
C23   C     C_3   0.791368 0.703962 0.836300 -0.606285
H16   H     H_    0.869412 0.775471 0.894327 0.217369
H17   H     H_    0.781865 0.731387 0.728001 0.228466
H18   H     H_    0.844494 0.612386 0.852581 0.259978
N6    N     N_2   0.285253 0.352319 0.123490 -0.239720
H19   H     H_    0.303276 0.259297 0.141709 0.243386
C24   C     C_3   0.126416 0.387334 0.081595 -0.690382
H20   H     H_    0.044227 0.317293 0.118657 0.239892
H21   H     H_    0.096229 0.392714 0.969868 0.260070
H22   H     H_    0.111631 0.479771 0.123404 0.245765

loop_
_geom_bond_atom_site_label_1
_geom_bond_atom_site_label_2
_ccdc_geom_bond_type
C2    O2    A    
C4    O6    A    
N5    H15   S    
C17   O9    D    
C1    O1    A    
C19   H5    S    
O2    Zn2   S    
C9    C11   A    
C20   O12   D    
C17   H3    S    
C13   C15   A    
C16   N2    A    
N3    H7    S    
C22   H14   S    
C1    O3    A    
C24   H21   S    
C7    C19   S    
C24   H22   S    
C19   O11   D    
N2    Zn2   S    
C21   H8    S    
O7    Zn2   S    
C15   N1    A    
N3    C21   S    
C23   H16   S    
C7    C12   A    
C1    C12   S    
C10   C12   A    
C21   H10   S    
C10   H2    S    
C8    C11   A    
C5    C6    D    
C2    C11   S    
C3    O7    A    
C20   H6    S    
C4    O8    A    
O6    Zn2   S    
C18   O10   D    
N5    C23   S    
C2    O4    A    
N6    H19   S    
N4    H11   S    
C14   C16   A    
C23   H17   S    
C14   N4    S    
C16   N6    S    
C22   H13   S    
C4    C6    S    
C22   H12   S    
N1    Zn1   S    
O3    Zn2   S    
C7    C9    A    
C13   N3    S    
C3    O5    A    
O5    Zn1   S    
C8    C10   A    
C18   H4    S    
C21   H9    S    
C9    H1    S    
N6    C24   S    
N4    C22   S    
O4    Zn1   S    
O8    Zn1   S    
C23   H18   S    
C8    C20   S    
C13   N2    A    
C5    C17   S    
O1    Zn1   S    
C14   N1    A    
C6    C18   S    
C24   H20   S    
C3    C5    S    
C15   N5    S    
