data_mof_unit_54611.cif
_audit_creation_date              2012-10-26T21:32:56-0400
_audit_creation_method            fapswitch 2.2
_symmetry_space_group_name_H-M    P1
_symmetry_Int_Tables_number       1
_space_group_crystal_system       triclinic
_cell_length_a                    28.249966
_cell_length_b                    18.452019
_cell_length_c                    16.996302
_cell_angle_alpha                 89.930949
_cell_angle_beta                  61.193466
_cell_angle_gamma                 89.943842
_cell_volume                      7763.27181524

loop_
_atom_site_label
_atom_site_type_symbol
_atom_type_description
_atom_site_fract_x
_atom_site_fract_y
_atom_site_fract_z
_atom_type_partial_charge
C1    C     C_R   0.702057 0.268972 0.675825 0.882416
C2    C     C_R   0.920651 0.626954 0.594357 -0.332862
C3    C     C_R   0.074268 0.900511 0.933847 0.913819
C4    C     C_R   0.574277 0.599456 0.933799 0.917903
C5    C     C_R   0.425848 0.400338 0.066125 0.913547
C6    C     C_R   0.425801 0.599600 0.066162 0.918251
C7    C     C_R   0.574266 0.400513 0.933854 0.913321
C8    C     C_R   0.533538 0.000780 0.544181 0.015395
C9    C     C_R   0.427430 0.000328 0.568020 0.021586
C10   C     C_R   0.033300 0.499943 0.545534 0.013610
C11   C     C_R   0.926933 0.499797 0.570085 0.020799
C12   C     C_R   0.506700 0.066596 0.551030 0.062619
C13   C     C_R   0.921040 0.372493 0.593533 -0.336312
C14   C     C_R   0.452014 0.935645 0.570899 0.046742
C15   C     C_R   0.452383 0.065954 0.567673 0.036471
C16   C     C_R   0.506417 0.935054 0.553156 0.052389
C17   C     C_R   0.006177 0.565552 0.553765 0.060043
C18   C     C_R   0.951888 0.434889 0.571237 0.044257
C19   C     C_R   0.951693 0.564700 0.571578 0.047843
C20   C     C_R   0.006371 0.434208 0.553542 0.052074
C21   C     C_R   0.615970 0.934523 0.514079 0.014243
C22   C     C_R   0.355323 0.066259 0.557732 -0.008276
C23   C     C_R   0.355439 0.931707 0.558973 -0.005616
C24   C     C_R   0.036819 0.629308 0.527130 -0.353174
C25   C     C_R   0.616228 0.066290 0.513252 0.013971
C26   C     C_R   0.116014 0.434268 0.514247 0.013863
C27   C     C_R   0.854898 0.567620 0.560456 -0.004404
C28   C     C_R   0.854989 0.432097 0.560304 -0.006546
C29   C     C_R   0.115826 0.565955 0.514622 0.014266
C30   C     C_R   0.665833 0.935789 0.518153 -0.094926
C31   C     C_R   0.316432 0.064799 0.526313 -0.108499
C32   C     C_R   0.316080 0.933580 0.527879 -0.111809
C33   C     C_R   0.666013 0.064549 0.517650 -0.093684
C34   C     C_R   0.165891 0.435687 0.518203 -0.094619
C35   C     C_R   0.537005 0.871219 0.527126 -0.370998
C36   C     C_R   0.815957 0.565796 0.528613 -0.112476
C37   C     C_R   0.815970 0.434076 0.528592 -0.113190
C38   C     C_R   0.165786 0.564430 0.518441 -0.094155
C39   C     C_R   0.687899 0.000111 0.524055 -0.327103
C40   C     C_R   0.297560 0.999232 0.513559 -0.304723
C41   C     C_R   0.187854 0.500027 0.524400 -0.326581
C42   C     C_R   0.797352 0.499972 0.515103 -0.304535
C43   C     C_R   0.587974 0.000562 0.526552 -0.061031
C44   C     C_R   0.378753 0.999362 0.562986 -0.043180
C45   C     C_R   0.087774 0.500059 0.527567 -0.060872
C46   C     C_R   0.421426 0.128716 0.587342 -0.310073
C47   C     C_R   0.878090 0.499830 0.565453 -0.041639
C48   C     C_R   0.093729 0.372153 0.493739 0.517145
C49   C     C_R   0.872960 0.632431 0.586867 0.482138
C50   C     C_R   0.873205 0.367176 0.586437 0.488483
C51   C     C_R   0.093275 0.628246 0.494661 0.513113
C52   C     C_R   0.593431 0.872240 0.494425 0.516076
C53   C     C_R   0.372689 0.130808 0.583635 0.498082
C54   C     C_R   0.373515 0.867270 0.586029 0.489222
C55   C     C_R   0.593971 0.128693 0.492737 0.513327
C56   C     C_3   0.103152 0.266149 0.407869 0.116765
C57   C     C_R   0.421018 0.873206 0.594070 -0.337014
C58   C     C_3   0.144987 0.217320 0.336545 -0.774435
C59   C     C_3   0.872440 0.758879 0.614348 0.103076
C60   C     C_3   0.847473 0.831536 0.612420 -0.764961
C61   C     C_3   0.872654 0.240681 0.614043 0.101846
C62   C     C_3   0.847468 0.168148 0.612648 -0.766837
C63   C     C_3   0.102247 0.737197 0.413739 0.116407
C64   C     C_3   0.143830 0.788618 0.346129 -0.771211
C65   C     C_3   0.602283 0.763120 0.414142 0.117341
C66   C     C_3   0.643780 0.711519 0.346760 -0.765086
C67   C     C_3   0.366359 0.258193 0.596307 0.182763
C68   C     C_R   0.537563 0.130077 0.524590 -0.353865
C69   C     C_3   0.367237 0.290881 0.678219 -0.928529
C70   C     C_3   0.373183 0.740928 0.613796 0.100473
C71   C     C_3   0.348190 0.668418 0.611760 -0.767068
C72   C     C_3   0.603384 0.237688 0.411639 0.116005
C73   C     C_3   0.645042 0.289054 0.344156 -0.773259
C74   C     C_2   0.641869 0.204116 0.082784 0.890107
C75   C     C_2   0.363853 0.804645 0.911751 0.893924
C76   C     C_2   0.360818 0.186100 0.920897 0.893765
C77   C     C_2   0.640946 0.795004 0.085095 0.892637
C78   C     C_2   0.141517 0.704110 0.083159 0.890639
C79   C     C_R   0.721838 0.266235 0.953126 -0.005413
C80   C     C_2   0.864037 0.305318 0.911667 0.892949
C81   C     C_2   0.864091 0.697584 0.911872 0.888863
C82   C     C_2   0.143368 0.304303 0.077887 0.894520
C83   C     C_R   0.283443 0.743496 0.042811 -0.004532
C84   C     C_R   0.283005 0.257460 0.043188 -0.005605
C85   C     C_R   0.298556 0.732284 0.323920 0.922382
C86   C     C_R   0.721355 0.734452 0.953607 -0.005118
C87   C     C_R   0.221626 0.765799 0.953262 -0.005283
C88   C     C_R   0.783702 0.243940 0.042614 -0.004793
C89   C     C_R   0.783278 0.757028 0.042967 -0.003869
C90   C     C_R   0.221504 0.234572 0.953215 -0.008768
C91   C     C_R   0.776336 0.287496 0.913297 -0.248141
C92   C     C_R   0.229095 0.721886 0.082181 -0.253636
C93   C     C_R   0.229869 0.283546 0.079141 -0.254950
C94   C     C_R   0.776099 0.714184 0.913309 -0.249816
C95   C     C_R   0.276162 0.786880 0.913359 -0.247393
C96   C     C_R   0.298495 0.267839 0.323964 0.923414
C97   C     C_R   0.729413 0.222090 0.081857 -0.254145
C98   C     C_R   0.728760 0.777965 0.082690 -0.252440
C99   C     C_R   0.274909 0.209055 0.916624 -0.247433
C100  C     C_R   0.807575 0.277550 0.956819 -0.009448
C101  C     C_R   0.197845 0.732193 0.038863 -0.000715
C102  C     C_R   0.198676 0.272696 0.035875 -0.004346
C103  C     C_R   0.807353 0.724314 0.956818 -0.003874
C104  C     C_R   0.307372 0.776949 0.956921 -0.009740
C105  C     C_R   0.698135 0.232415 0.038591 -0.000152
C106  C     C_R   0.697464 0.767562 0.039556 -0.003906
C107  C     C_R   0.702010 0.731122 0.675821 0.882587
C108  C     C_R   0.305891 0.219020 0.960754 -0.009231
C109  C     C_R   0.644547 0.328026 0.945952 -0.145091
C110  C     C_R   0.358473 0.677355 0.051887 -0.139262
C111  C     C_R   0.358347 0.322952 0.051843 -0.147039
C112  C     C_R   0.644335 0.672168 0.946093 -0.137454
C113  C     C_R   0.144446 0.827813 0.946003 -0.144685
C114  C     C_R   0.858613 0.177575 0.051783 -0.139343
C115  C     C_R   0.858369 0.823020 0.051976 -0.145257
C116  C     C_R   0.144389 0.172369 0.946070 -0.141145
C117  C     C_R   0.617109 0.347928 0.898239 -0.072098
C118  C     C_R   0.202027 0.768907 0.675834 0.881107
C119  C     C_R   0.384121 0.653959 0.101141 -0.072382
C120  C     C_R   0.384084 0.346099 0.101075 -0.074216
C121  C     C_R   0.617033 0.652132 0.898238 -0.069791
C122  C     C_R   0.117068 0.847852 0.898246 -0.072289
C123  C     C_R   0.884167 0.154016 0.101120 -0.072453
C124  C     C_R   0.884097 0.846139 0.101178 -0.074421
C125  C     C_R   0.117084 0.152141 0.898231 -0.069048
C126  C     C_R   0.633663 0.322668 0.812963 -0.258542
C127  C     C_R   0.367006 0.677909 0.187182 -0.248778
C128  C     C_R   0.366934 0.322099 0.187134 -0.251972
C129  C     C_R   0.798601 0.232376 0.323897 0.922003
C130  C     C_R   0.633606 0.677419 0.812938 -0.255936
C131  C     C_R   0.133631 0.822629 0.812950 -0.258403
C132  C     C_R   0.867025 0.177900 0.187199 -0.249133
C133  C     C_R   0.867024 0.822028 0.187170 -0.251874
C134  C     C_R   0.133671 0.177279 0.812864 -0.257827
C135  C     C_R   0.680126 0.282416 0.770761 -0.052713
C136  C     C_R   0.322077 0.721282 0.228067 -0.060083
C137  C     C_R   0.321880 0.279036 0.228158 -0.061795
C138  C     C_R   0.679949 0.717860 0.770847 -0.051297
C139  C     C_R   0.180038 0.782251 0.770796 -0.052300
C140  C     C_R   0.798550 0.767734 0.323951 0.921941
C141  C     C_R   0.822216 0.221494 0.227986 -0.060155
C142  C     C_R   0.822056 0.778797 0.228103 -0.061486
C143  C     C_R   0.179870 0.217990 0.770828 -0.050133
C144  C     C_R   0.708478 0.261877 0.816971 -0.148762
C145  C     C_R   0.296466 0.746986 0.179497 -0.169774
C146  C     C_R   0.296041 0.253812 0.179793 -0.159848
C147  C     C_R   0.708079 0.738718 0.817263 -0.155573
C148  C     C_R   0.208302 0.761508 0.817075 -0.148779
C149  C     C_R   0.796801 0.247514 0.179244 -0.169832
C150  C     C_R   0.796379 0.753330 0.179605 -0.164109
C151  C     C_R   0.201967 0.231206 0.675817 0.894277
C152  C     C_R   0.207921 0.239170 0.817204 -0.138511
C153  C     C_R   0.690412 0.283892 0.905671 0.130535
C154  C     C_R   0.314430 0.724769 0.090702 0.133295
C155  C     C_R   0.313996 0.276099 0.091016 0.146444
C156  C     C_R   0.690005 0.716659 0.906022 0.119109
C157  C     C_R   0.190236 0.783529 0.905779 0.130770
C158  C     C_R   0.814697 0.225194 0.090496 0.133722
C159  C     C_R   0.814277 0.775714 0.090836 0.144063
C160  C     C_R   0.190097 0.216800 0.905777 0.117297
C161  C     C_R   0.695055 0.128320 0.520478 0.928972
C162  C     C_R   0.037236 0.370596 0.526827 -0.372008
C163  C     C_R   0.296110 0.869224 0.502582 0.950044
C164  C     C_R   0.297089 0.129847 0.500152 0.950983
C165  C     C_R   0.694926 0.871746 0.520797 0.927130
C166  C     C_R   0.194936 0.628297 0.520841 0.928122
C167  C     C_R   0.796304 0.369501 0.502241 0.947643
C168  C     C_R   0.796327 0.630465 0.502196 0.947903
C169  C     C_R   0.194987 0.371716 0.520681 0.930475
C170  C     C_R   0.074305 0.099446 0.933791 0.918028
C171  C     C_R   0.925807 0.900411 0.066191 0.914052
C172  C     C_R   0.925794 0.099587 0.066172 0.917857
H1    H     H_    0.724408 0.000019 0.530146 0.197036
H2    H     H_    0.434475 0.175518 0.609465 0.175652
H3    H     H_    0.434549 0.829590 0.620456 0.154370
H4    H     H_    0.518751 0.178710 0.518159 0.121981
H5    H     H_    0.794030 0.314450 0.848604 0.192257
H6    H     H_    0.211568 0.693738 0.146032 0.178595
H7    H     H_    0.213342 0.315177 0.140344 0.186483
H8    H     H_    0.794064 0.687808 0.848284 0.183616
H9    H     H_    0.293909 0.813722 0.848592 0.192430
H10   H     H_    0.711967 0.193705 0.145540 0.178743
H11   H     H_    0.711157 0.805724 0.146724 0.185128
H12   H     H_    0.268503 0.999383 0.489145 0.197518
H13   H     H_    0.291797 0.178744 0.854321 0.194650
H14   H     H_    0.631515 0.348667 0.012962 0.141978
H15   H     H_    0.371401 0.656946 0.984807 0.140723
H16   H     H_    0.371430 0.343113 0.984565 0.142190
H17   H     H_    0.631333 0.651392 0.013083 0.141936
H18   H     H_    0.131427 0.848455 0.013008 0.142108
H19   H     H_    0.871517 0.157151 0.984718 0.140794
H20   H     H_    0.871292 0.843544 0.984903 0.140838
H21   H     H_    0.131371 0.151836 0.013171 0.142627
H22   H     H_    0.612317 0.338646 0.777055 0.179119
H23   H     H_    0.224442 0.499986 0.530253 0.197188
H24   H     H_    0.386541 0.658515 0.224674 0.178304
H25   H     H_    0.386583 0.341193 0.224514 0.178400
H26   H     H_    0.612394 0.661285 0.776916 0.178749
H27   H     H_    0.112347 0.838737 0.776986 0.179239
H28   H     H_    0.886445 0.158305 0.224784 0.178306
H29   H     H_    0.886622 0.841210 0.224593 0.179082
H30   H     H_    0.112535 0.160940 0.776790 0.178807
H31   H     H_    0.745244 0.230600 0.783905 0.156984
H32   H     H_    0.261800 0.782417 0.211128 0.150769
H33   H     H_    0.261308 0.218550 0.211482 0.149942
H34   H     H_    0.768400 0.500023 0.490475 0.197500
H35   H     H_    0.744709 0.770247 0.784279 0.157503
H36   H     H_    0.245009 0.730073 0.784032 0.156791
H37   H     H_    0.762355 0.283299 0.210701 0.150632
H38   H     H_    0.761723 0.717924 0.211271 0.149578
H39   H     H_    0.244160 0.271418 0.784142 0.165376
H40   H     H_    0.077752 0.288360 0.379754 0.165135
H41   H     H_    0.078790 0.232127 0.468248 0.112996
H42   H     H_    0.169104 0.189403 0.363100 0.254199
H43   H     H_    0.124557 0.175670 0.316383 0.195274
H44   H     H_    0.171612 0.250097 0.276902 0.261403
H45   H     H_    0.018347 0.321807 0.520998 0.122998
H46   H     H_    0.913835 0.760358 0.555340 0.116733
H47   H     H_    0.874227 0.757287 0.678326 0.161131
H48   H     H_    0.806232 0.837446 0.669336 0.250628
H49   H     H_    0.872207 0.875494 0.618918 0.166413
H50   H     H_    0.848345 0.839701 0.547328 0.249892
H51   H     H_    0.874665 0.242244 0.677822 0.165252
H52   H     H_    0.913955 0.239052 0.554806 0.114533
H53   H     H_    0.848157 0.159956 0.547724 0.249931
H54   H     H_    0.872160 0.124065 0.619189 0.166326
H55   H     H_    0.806263 0.162485 0.669744 0.251377
H56   H     H_    0.934292 0.670739 0.620195 0.159331
H57   H     H_    0.077798 0.768402 0.476622 0.113410
H58   H     H_    0.076881 0.717992 0.384159 0.169252
H59   H     H_    0.170885 0.758510 0.284282 0.257218
H60   H     H_    0.123158 0.831989 0.328761 0.193046
H61   H     H_    0.167489 0.814295 0.374950 0.255400
H62   H     H_    0.576803 0.782190 0.384647 0.164912
H63   H     H_    0.577932 0.732075 0.477255 0.111121
H64   H     H_    0.667416 0.685787 0.375672 0.253697
H65   H     H_    0.623035 0.668200 0.329618 0.192403
H66   H     H_    0.670857 0.741489 0.284777 0.260623
H67   H     H_    0.934854 0.328510 0.618920 0.153448
H68   H     H_    0.344914 0.297149 0.575163 0.181666
H69   H     H_    0.407823 0.255568 0.537635 0.082949
H70   H     H_    0.373825 0.248718 0.718380 0.298438
H71   H     H_    0.400067 0.331679 0.656013 0.214349
H72   H     H_    0.328490 0.318568 0.721930 0.244258
H73   H     H_    0.374899 0.742374 0.677827 0.166247
H74   H     H_    0.414622 0.739588 0.554892 0.114445
H75   H     H_    0.349018 0.660583 0.546664 0.249838
H76   H     H_    0.372870 0.624280 0.618222 0.166630
H77   H     H_    0.306909 0.662647 0.668651 0.251807
H78   H     H_    0.017708 0.677813 0.520961 0.121569
H79   H     H_    0.578784 0.269007 0.474363 0.114403
H80   H     H_    0.578226 0.218417 0.381693 0.168886
H81   H     H_    0.672223 0.258810 0.282556 0.257225
H82   H     H_    0.624462 0.332255 0.326340 0.192974
H83   H     H_    0.668460 0.314982 0.373250 0.255812
H84   H     H_    0.579982 0.162800 0.069424 0.352714
H85   H     H_    0.428785 0.834917 0.795635 0.349112
H86   H     H_    0.421887 0.148291 0.939281 0.353977
H87   H     H_    0.575193 0.821248 0.202045 0.349148
H88   H     H_    0.079552 0.662914 0.069933 0.353112
H89   H     H_    0.517890 0.822623 0.521424 0.122565
H90   H     H_    0.928859 0.335992 0.795627 0.349146
H91   H     H_    0.927301 0.659616 0.924030 0.352562
H92   H     H_    0.078859 0.339924 0.191164 0.350894
O1    O     O_R   0.746490 0.236330 0.638080 -0.607251
O2    O     O_R   0.325830 0.813840 0.483730 -0.575879
O3    O     O_R   0.325830 0.186160 0.483730 -0.614587
O4    O     O_R   0.674170 0.813840 0.516270 -0.580584
O5    O     O_R   0.174170 0.686160 0.516270 -0.579954
O6    O     O_R   0.825830 0.313840 0.483730 -0.575233
O7    O     O_R   0.825830 0.686160 0.483730 -0.573523
O8    O     O_R   0.174170 0.313840 0.516270 -0.579764
O9    O     O_R   0.739960 0.127620 0.525000 -0.646286
O10   O     O_R   0.260040 0.872380 0.475000 -0.647815
O11   O     O_R   0.260040 0.127620 0.475000 -0.642986
O12   O     O_R   0.253510 0.763670 0.361920 -0.625907
O13   O     O_R   0.739960 0.872380 0.525000 -0.645834
O14   O     O_R   0.239960 0.627620 0.525000 -0.646153
O15   O     O_R   0.760040 0.372380 0.475000 -0.647211
O16   O     O_R   0.760040 0.627620 0.475000 -0.647316
O17   O     O_R   0.239960 0.372380 0.525000 -0.647880
O18   O     O_R   0.680700 0.294870 0.629350 -0.649676
O19   O     O_R   0.319300 0.705130 0.370650 -0.635336
O20   O     O_R   0.319300 0.294870 0.370650 -0.637978
O21   O     O_R   0.680700 0.705130 0.629350 -0.650380
O22   O     O_R   0.180700 0.794870 0.629350 -0.649975
O23   O     O_R   0.253510 0.236330 0.361920 -0.624456
O24   O     O_R   0.819300 0.205130 0.370650 -0.635495
O25   O     O_R   0.819300 0.794870 0.370650 -0.634466
O26   O     O_R   0.180700 0.205130 0.629350 -0.647863
O27   O     O_R   0.062020 0.072840 0.007170 -0.627124
O28   O     O_R   0.937980 0.927160 0.992830 -0.626847
O29   O     O_R   0.937980 0.072840 0.992830 -0.626597
O30   O     O_R   0.062020 0.927160 0.007170 -0.626623
O31   O     O_R   0.562020 0.572840 0.007170 -0.626646
O32   O     O_R   0.437980 0.427160 0.992830 -0.626824
O33   O     O_R   0.437980 0.572840 0.992830 -0.626507
O34   O     O_R   0.746490 0.763670 0.638080 -0.607023
O35   O     O_R   0.562020 0.427160 0.007170 -0.626924
O36   O     O_R   0.947860 0.073950 0.109290 -0.623812
O37   O     O_R   0.052140 0.926050 0.890710 -0.624073
O38   O     O_R   0.052140 0.073950 0.890710 -0.623671
O39   O     O_R   0.947860 0.926050 0.109290 -0.623559
O40   O     O_R   0.447860 0.573950 0.109290 -0.623492
O41   O     O_R   0.552140 0.426050 0.890710 -0.624220
O42   O     O_R   0.552140 0.573950 0.890710 -0.623990
O43   O     O_R   0.447860 0.426050 0.109290 -0.623777
O44   O     O_3   0.128967 0.322988 0.428654 -0.578881
O45   O     O_R   0.246490 0.736330 0.638080 -0.608182
O46   O     O_3   0.842726 0.697497 0.610189 -0.584132
O47   O     O_3   0.842942 0.302174 0.609952 -0.583597
O48   O     O_3   0.128278 0.677825 0.429864 -0.579159
O49   O     O_3   0.628381 0.822601 0.429708 -0.578384
O50   O     O_3   0.338288 0.190653 0.617865 -0.600373
O51   O     O_3   0.343366 0.802228 0.609647 -0.583798
O52   O     O_3   0.629228 0.178339 0.428301 -0.579070
O53   O     O_2   0.616446 0.199238 0.164658 -0.642606
O54   O     O_R   0.618262 0.181063 0.031285 -0.791362
O55   O     O_2   0.386449 0.819991 0.955396 -0.607066
O56   O     O_R   0.753510 0.263670 0.361920 -0.625275
O57   O     O_R   0.390890 0.815193 0.818699 -0.839601
O58   O     O_2   0.384828 0.170424 0.841118 -0.648740
O59   O     O_R   0.384721 0.170849 0.974467 -0.791274
O60   O     O_2   0.619053 0.813734 0.041394 -0.608474
O61   O     O_R   0.613102 0.801442 0.178682 -0.823869
O62   O     O_2   0.116073 0.699456 0.165053 -0.641190
O63   O     O_R   0.117875 0.681008 0.031734 -0.791112
O64   O     O_2   0.886720 0.320351 0.955263 -0.607276
O65   O     O_R   0.890965 0.316269 0.818684 -0.839382
O66   O     O_2   0.888979 0.691843 0.830057 -0.659157
O67   O     O_R   0.753510 0.736330 0.361920 -0.626128
O68   O     O_R   0.888816 0.677012 0.962630 -0.789081
O69   O     O_2   0.122092 0.319924 0.032228 -0.609403
O70   O     O_R   0.115935 0.317993 0.170272 -0.821784
O71   O     O_R   0.246490 0.263670 0.638080 -0.625395
O72   O     O_R   0.674170 0.186160 0.516270 -0.580242
Zn1   Zn    Zn3+2 0.792340 0.208750 0.507670 0.959083
Zn2   Zn    Zn3+2 0.494040 0.500000 0.919480 0.948252
Zn3   Zn    Zn3+2 0.005960 1.000000 0.080520 0.950568
Zn4   Zn    Zn3+2 0.994040 0.000000 0.919480 0.948687
Zn5   Zn    Zn3+2 0.207660 0.791250 0.492330 0.959567
Zn6   Zn    Zn3+2 0.207660 0.208750 0.492330 0.961323
Zn7   Zn    Zn3+2 0.792340 0.791250 0.507670 0.960393
Zn8   Zn    Zn3+2 0.292340 0.708750 0.507670 0.958678
Zn9   Zn    Zn3+2 0.707660 0.291250 0.492330 0.960142
Zn10  Zn    Zn3+2 0.707660 0.708750 0.492330 0.958156
Zn11  Zn    Zn3+2 0.292340 0.291250 0.507670 0.932200
Zn12  Zn    Zn3+2 0.505960 0.500000 0.080520 0.950354

loop_
_geom_bond_atom_site_label_1
_geom_bond_atom_site_label_2
_ccdc_geom_bond_type
O13   Zn7   S    
C28   C47   A    
C81   O66   D    
C36   C42   A    
C71   H75   S    
C68   H4    S    
C2    H56   S    
C83   C154  S    
O42   Zn2   S    
C96   O20   A    
C124  C133  A    
C16   C35   A    
C69   H70   S    
C61   O47   S    
C48   C162  A    
C62   H55   S    
C32   C163  S    
C67   H68   S    
C36   C168  S    
C140  O67   A    
C37   C42   A    
C86   C156  S    
C128  H25   S    
C151  O71   A    
C112  H17   S    
C113  C122  A    
C10   C20   A    
C4    O31   A    
O29   Zn4   S    
C88   C158  S    
C91   C100  A    
C74   O53   D    
C117  C126  A    
C88   C97   A    
C97   C105  A    
C24   C51   A    
C143  C151  S    
C162  H45   S    
C59   C60   S    
C8    C16   A    
O23   Zn6   S    
C78   C101  S    
O8    Zn6   S    
C70   O51   S    
C172  O29   A    
C133  H29   S    
C164  O3    A    
C150  C159  A    
C137  C146  A    
C127  C136  A    
C78   O63   S    
O27   Zn3   S    
C170  O27   A    
C29   C45   A    
C33   C161  S    
C145  H32   S    
C48   O44   S    
C161  O9    A    
C63   H58   S    
C13   C18   A    
C152  H39   S    
C81   O68   S    
C27   C36   A    
C5    O32   A    
C130  C138  A    
C167  O15   A    
C99   H13   S    
C83   C104  A    
C168  O16   A    
O7    Zn7   S    
C51   O48   S    
C14   C57   A    
C2    C19   A    
C25   C55   A    
C3    O30   A    
C149  H37   S    
C72   C73   S    
C107  O34   A    
C64   H59   S    
C69   H72   S    
C62   H53   S    
C98   C106  A    
C85   O12   A    
C107  C138  S    
C9    C15   A    
C41   H23   S    
C55   O52   S    
C142  C150  A    
C46   C53   A    
O9    Zn1   S    
C84   C93   A    
C70   H73   S    
C73   H82   S    
C85   O19   A    
C118  O45   A    
C113  C157  A    
C111  C155  A    
C71   H77   S    
C4    O42   A    
C163  O10   A    
C11   C18   A    
C123  C132  A    
C7    C117  S    
C164  O11   A    
C121  C130  A    
O11   Zn6   S    
C60   H49   S    
C25   C43   A    
C13   H67   S    
O18   Zn9   S    
O24   Zn1   S    
C12   C68   A    
C111  H16   S    
C110  C154  A    
C150  H38   S    
C77   C106  S    
H87   O61   S    
C65   O49   S    
C98   H11   S    
C96   O23   A    
O26   Zn6   S    
C90   C102  A    
C26   C45   A    
C84   C108  A    
C87   C101  A    
C171  O39   A    
C87   C95   A    
C29   C38   A    
O15   Zn9   S    
C89   C103  A    
O39   Zn3   S    
C149  C158  A    
C79   C91   A    
C50   O47   S    
C140  O25   A    
C66   H66   S    
H92   O70   S    
C86   C106  A    
O56   Zn9   S    
C146  H33   S    
C89   C159  S    
C139  C148  A    
O17   Zn11  S    
C38   C41   A    
H86   O59   S    
C168  O7    A    
C95   H9    S    
C87   C157  S    
O41   Zn2   S    
C79   C153  S    
C67   O50   S    
C8    C12   A    
C20   C162  A    
O12   Zn5   S    
C10   C45   A    
C46   H2    S    
C82   C102  S    
C34   C169  S    
C6    O40   A    
O38   Zn4   S    
C114  C123  A    
C116  C125  A    
C163  O2    A    
C166  O5    A    
O37   Zn4   S    
C145  C154  A    
C49   O46   S    
C90   C99   A    
H90   O65   S    
C29   C51   A    
C27   C47   A    
C132  C141  A    
C31   C164  S    
C114  H19   S    
C78   O62   D    
C167  O6    A    
C82   O69   D    
C30   C165  S    
C6    O33   A    
C110  C119  A    
C89   C98   A    
C151  O26   A    
C24   H78   S    
C61   H52   S    
C112  C121  A    
C171  O28   A    
C74   C105  S    
C28   C37   A    
O28   Zn4   S    
O33   Zn2   S    
C75   O57   S    
C56   C58   S    
C30   C39   A    
O45   Zn8   S    
C148  C157  A    
C72   H79   S    
O19   Zn8   S    
C131  C139  A    
C85   C136  S    
C13   C50   A    
C129  O56   A    
C7    O41   A    
C169  O8    A    
C112  C156  A    
O5    Zn5   S    
C63   O48   S    
C15   C46   A    
C1    C135  S    
H88   O63   S    
C27   C49   A    
O1    Zn1   S    
C54   C57   A    
C119  C127  A    
C125  C134  A    
C122  C131  A    
C11   C47   A    
C8    C43   A    
C39   H1    S    
C172  O36   A    
C55   C68   A    
C93   H7    S    
C109  C117  A    
C97   H10   S    
C37   C167  S    
C11   C19   A    
O4    Zn10  S    
C107  O21   A    
C140  C142  S    
C116  C160  A    
C60   H48   S    
C81   C103  S    
O30   Zn3   S    
C129  C141  S    
C31   C40   A    
C114  C158  A    
O67   Zn10  S    
C146  C155  A    
C165  O4    A    
C53   O50   S    
C70   C71   S    
C109  C153  A    
O71   Zn11  S    
C26   C48   A    
C63   H57   S    
C58   H43   S    
C76   C108  S    
C34   C41   A    
C71   H76   S    
O10   Zn5   S    
C5    C120  S    
C80   O64   D    
O32   Zn2   S    
C52   O49   S    
C64   H60   S    
C69   H71   S    
C62   H54   S    
C23   C44   A    
C115  C159  A    
C9    C14   A    
C113  H18   S    
O43   Zn12  S    
C144  H31   S    
C65   H62   S    
C12   C15   A    
C133  C142  A    
O22   Zn5   S    
C125  C170  S    
C88   C100  A    
C92   C101  A    
C70   H74   S    
C73   H81   S    
C115  H20   S    
C143  C152  A    
C94   C103  A    
C170  O38   A    
C75   C104  S    
C118  C139  S    
C38   C166  S    
C115  C124  A    
C65   H63   S    
C72   O52   S    
O35   Zn12  S    
C165  O13   A    
C59   H46   S    
O16   Zn10  S    
C93   C102  A    
C59   O46   S    
C120  C128  A    
H91   O68   S    
C76   O59   S    
C109  H14   S    
C21   C30   A    
C60   H50   S    
C23   C32   A    
C35   H89   S    
C127  H24   S    
C124  C171  S    
C84   C155  S    
C4    C121  S    
C42   H34   S    
C90   C160  S    
C118  O22   A    
C148  H36   S    
O3    Zn11  S    
O40   Zn12  S    
C35   C52   A    
C134  C143  A    
C59   H47   S    
C40   H12   S    
C152  C160  A    
C132  H28   S    
O36   Zn3   S    
C67   H69   S    
C141  C149  A    
C83   C92   A    
O2    Zn8   S    
C33   C39   A    
C56   H40   S    
C1    O18   A    
C161  O72   A    
C10   C17   A    
C144  C153  A    
C79   C105  A    
O72   Zn9   S    
C126  H22   S    
C86   C94   A    
C73   H83   S    
C28   C50   A    
C26   C34   A    
C22   C44   A    
H85   O57   S    
O14   Zn8   S    
C136  C145  A    
C3    C122  S    
C57   H3    S    
C80   C100  S    
C61   C62   S    
O21   Zn10  S    
C134  H30   S    
C22   C53   A    
H84   O54   S    
C110  H15   S    
C17   C24   A    
C22   C31   A    
C82   O70   S    
C56   O44   S    
C96   C137  S    
C5    O43   A    
C63   C64   S    
C66   H64   S    
C111  C120  A    
C67   C69   S    
C131  H27   S    
C128  C137  A    
C61   H51   S    
C147  C156  A    
C2    C49   A    
C138  C147  A    
C94   H8    S    
C72   H80   S    
C147  H35   S    
C56   H41   S    
C92   H6    S    
C116  H21   S    
C135  C144  A    
C99   C108  A    
C66   H65   S    
C14   C16   A    
C58   H42   S    
O31   Zn12  S    
C95   C104  A    
C23   C54   A    
C9    C44   A    
C6    C119  S    
C77   O61   S    
C129  O24   A    
C123  C172  S    
C126  C135  A    
C75   O55   D    
C7    O35   A    
C80   O65   S    
O6    Zn1   S    
O25   Zn7   S    
C169  O17   A    
C64   H61   S    
C74   O54   S    
C76   O58   D    
C91   H5    S    
C17   C19   A    
C77   O60   D    
C3    O37   A    
O20   Zn11  S    
C18   C20   A    
C54   O51   S    
C32   C40   A    
C1    O1    A    
C65   C66   S    
C25   C33   A    
O34   Zn7   S    
C130  H26   S    
C166  O14   A    
C21   C52   A    
C21   C43   A    
C58   H44   S    
