data_mof_unit_7839.cif
_audit_creation_date              2012-12-10T20:29:26-0500
_audit_creation_method            fapswitch 2.2
_symmetry_space_group_name_H-M    P1
_symmetry_Int_Tables_number       1
_space_group_crystal_system       triclinic
_cell_length_a                    18.702042
_cell_length_b                    18.594367
_cell_length_c                    18.887194
_cell_angle_alpha                 109.511056
_cell_angle_beta                  109.821083
_cell_angle_gamma                 109.15994
_cell_volume                      5051.07845905

loop_
_atom_site_label
_atom_site_type_symbol
_atom_type_description
_atom_site_fract_x
_atom_site_fract_y
_atom_site_fract_z
_atom_type_partial_charge
C1    C     C_R   0.381386 0.501993 0.380193 0.877939
C2    C     C_R   0.781136 0.142496 0.736673 -0.146372
C3    C     C_R   0.008323 0.738803 0.324422 0.015283
C4    C     C_R   0.053612 0.852127 0.121583 -0.151280
C5    C     C_R   0.776352 0.746979 0.781103 -0.117893
C6    C     C_R   0.051541 0.866898 0.053217 -0.142156
C7    C     C_R   0.986948 0.801918 0.967471 -0.119341
C8    C     C_R   0.924166 0.722361 0.950125 -0.118548
C9    C     C_R   0.925393 0.707494 0.018263 -0.115057
C10   C     C_R   0.990833 0.771984 0.104571 0.124994
C11   C     C_R   0.309092 0.297416 0.840985 -0.140842
C12   C     C_R   0.226619 0.280199 0.830971 -0.139439
C13   C     C_R   0.698434 0.123637 0.726856 -0.150622
C14   C     C_R   0.166379 0.281355 0.763007 0.135277
C15   C     C_R   0.189942 0.301027 0.705914 -0.151053
C16   C     C_R   0.273038 0.319462 0.716998 -0.129501
C17   C     C_3   0.611320 0.855575 0.495073 -0.955446
C18   C     C_3   0.886145 0.567233 0.309386 -0.438226
C19   C     C_3   0.810697 0.578777 0.262274 -0.852476
C20   C     C_R   0.664282 0.177559 0.713657 -0.117463
C21   C     C_R   0.823796 0.822360 0.577215 -0.248802
C22   C     C_R   0.712717 0.250314 0.710064 -0.107971
C23   C     C_R   0.795445 0.269367 0.719894 -0.118466
C24   C     C_R   0.830470 0.215962 0.733870 0.140003
C25   C     C_R   0.812533 0.811595 0.496756 -0.063483
C26   C     C_R   0.735853 0.741215 0.418177 -0.008598
C27   C     C_R   0.676693 0.677254 0.422853 -0.259316
C28   C     C_R   0.781987 0.825681 0.831006 -0.120148
C29   C     C_R   0.688545 0.687511 0.503354 -0.073703
C30   C     C_R   0.760262 0.762911 0.581774 -0.011448
C31   C     C_R   0.629908 0.720066 0.278500 -0.155188
C32   C     C_R   0.607156 0.712795 0.196861 -0.138342
C33   C     C_R   0.666721 0.719282 0.167169 -0.129326
C34   C     C_R   0.621766 0.620594 0.502057 0.856257
C35   C     C_R   0.749098 0.733093 0.219114 -0.119513
C36   C     C_R   0.771933 0.740287 0.300738 -0.095229
C37   C     C_R   0.712776 0.733975 0.331459 0.126381
C38   C     C_R   0.423203 0.788151 0.539626 -0.216700
C39   C     C_R   0.332281 0.317037 0.784029 -0.107803
C40   C     C_R   0.362555 0.704741 0.466595 -0.122686
C41   C     C_R   0.383370 0.668808 0.403618 0.095974
C42   C     C_R   0.465226 0.717470 0.413937 -0.165475
C43   C     C_R   0.525703 0.802141 0.486527 0.278020
C44   C     C_R   0.504432 0.836852 0.549628 -0.104376
C45   C     C_R   0.252271 0.578859 0.258154 -0.256592
C46   C     C_R   0.622487 0.501918 0.619622 0.857771
C47   C     C_R   0.186441 0.498149 0.183893 -0.075195
C48   C     C_R   0.183829 0.418875 0.174223 -0.008900
C49   C     C_R   0.249701 0.422426 0.239778 -0.264073
C50   C     C_R   0.076323 0.327134 0.815491 -0.262980
C51   C     C_R   0.315809 0.503179 0.314344 -0.081808
C52   C     C_R   0.317004 0.582258 0.324676 0.002588
C53   C     C_R   0.054343 0.270423 0.104280 -0.140594
C54   C     C_R   0.989678 0.187658 0.031616 -0.140693
C55   C     C_R   0.985398 0.165560 0.951357 -0.106984
C56   C     C_R   0.045761 0.226200 0.943662 -0.127423
C57   C     C_R   0.109756 0.309592 0.015850 -0.146678
C58   C     C_R   0.378471 0.379617 0.498324 0.875971
C59   C     C_R   0.114418 0.332103 0.096675 0.133766
C60   C     C_R   0.199108 0.512659 0.551254 -0.137192
C61   C     C_R   0.996010 0.312685 0.810211 -0.080994
C62   C     C_R   0.217031 0.446722 0.556615 -0.148796
C63   C     C_R   0.221499 0.390304 0.489006 0.137635
C64   C     C_R   0.206899 0.400122 0.415642 -0.131657
C65   C     C_R   0.187968 0.465543 0.410143 -0.133041
C66   C     C_R   0.184434 0.521962 0.478006 -0.121721
C67   C     C_R   0.174450 0.252251 0.492883 -0.264408
C68   C     C_R   0.185911 0.182608 0.495948 -0.077231
C69   C     C_R   0.259614 0.176641 0.497946 -0.005385
C70   C     C_R   0.781646 0.884256 0.800158 -0.155983
C71   C     C_R   0.321880 0.242532 0.498033 -0.251879
C72   C     C_R   0.917198 0.234706 0.742372 -0.002357
C73   C     C_R   0.310868 0.312676 0.496065 -0.078725
C74   C     C_R   0.236837 0.318268 0.493364 -0.010766
C75   C     C_R   0.344508 0.114659 0.564724 -0.141785
C76   C     C_R   0.358186 0.044203 0.560875 -0.140350
C77   C     C_R   0.299866 0.960258 0.487809 -0.132949
C78   C     C_R   0.227574 0.946560 0.418637 -0.139425
C79   C     C_R   0.213077 0.016617 0.422611 -0.125078
C80   C     C_R   0.271611 0.101217 0.495729 0.136820
C81   C     C_R   0.778258 0.513106 0.609266 -0.189002
C82   C     C_R   0.774839 0.863715 0.719040 -0.152272
C83   C     C_R   0.920818 0.173188 0.679573 -0.256209
C84   C     C_R   0.848833 0.510375 0.601292 -0.137802
C85   C     C_R   0.906408 0.497717 0.658494 -0.140662
C86   C     C_R   0.895072 0.490217 0.725397 -0.187064
C87   C     C_R   0.825410 0.495646 0.736444 0.092498
C88   C     C_R   0.764292 0.503620 0.675610 0.093435
C89   C     C_R   0.691724 0.503111 0.684002 -0.116290
C90   C     C_R   0.681193 0.497467 0.751850 -0.233281
C91   C     C_R   0.741849 0.491699 0.812278 -0.245031
C92   C     C_R   0.814107 0.492244 0.805901 -0.125503
C93   C     C_R   0.996935 0.875833 0.380395 0.860581
C94   C     C_R   0.001130 0.188058 0.685178 -0.072687
C95   C     C_R   0.768901 0.784445 0.668339 0.136042
C96   C     C_R   0.879522 0.878544 0.498395 0.860886
C97   C     C_R   0.000925 0.121229 0.619802 0.877324
C98   C     C_R   0.120184 0.118209 0.498150 0.881587
C99   C     C_R   0.997815 0.379356 0.877999 0.860685
C100  C     C_R   0.120106 0.498688 0.118730 0.877103
C101  C     C_R   0.999556 0.620475 0.119068 0.871943
C102  C     C_R   0.879926 0.496464 0.876562 0.857820
C103  C     C_R   0.111670 0.783476 0.555842 -0.150147
C104  C     C_R   0.097640 0.789240 0.481090 -0.139729
C105  C     C_R   0.079902 0.264661 0.753831 -0.013483
C106  C     C_R   0.019695 0.726559 0.401053 0.072474
C107  C     C_R   0.771271 0.727022 0.700747 -0.104575
C108  C     C_R   0.960276 0.649756 0.394966 0.198180
C109  C     C_R   0.975375 0.646134 0.471743 -0.175613
C110  C     C_R   0.049689 0.713031 0.551517 -0.153788
C111  C     C_R   0.011604 0.680206 0.259020 -0.241857
C112  C     C_R   0.000921 0.687163 0.185476 -0.071445
C113  C     C_R   0.993625 0.757369 0.177790 -0.009456
C114  C     C_R   0.991235 0.816977 0.243082 -0.279713
C115  C     C_R   0.997843 0.808394 0.315464 -0.100952
H1    H     H_    0.786368 0.841122 0.893412 0.127965
H2    H     H_    0.248761 0.361815 0.233186 0.159302
H3    H     H_    0.785960 0.945241 0.838756 0.121768
H4    H     H_    0.057483 0.286651 0.166339 0.121601
H5    H     H_    0.943192 0.140466 0.037629 0.123968
H6    H     H_    0.935674 0.101290 0.895263 0.116734
H7    H     H_    0.043089 0.208223 0.881772 0.142448
H8    H     H_    0.156213 0.356059 0.009115 0.110878
H9    H     H_    0.169795 0.572533 0.473603 0.121743
H10   H     H_    0.195955 0.556133 0.603602 0.124698
H11   H     H_    0.227416 0.439546 0.613315 0.119387
H12   H     H_    0.649071 0.713662 0.103974 0.124699
H13   H     H_    0.208810 0.356347 0.362353 0.105167
H14   H     H_    0.175345 0.472200 0.353047 0.140965
H15   H     H_    0.773310 0.909132 0.695337 0.121718
H16   H     H_    0.117113 0.255682 0.491193 0.156009
H17   H     H_    0.379253 0.239242 0.499647 0.156374
H18   H     H_    0.390618 0.179619 0.621293 0.118033
H19   H     H_    0.414329 0.054801 0.614268 0.119287
H20   H     H_    0.310790 0.905865 0.484684 0.128616
H21   H     H_    0.183044 0.881677 0.361820 0.146389
H22   H     H_    0.157232 0.005343 0.368297 0.104600
H23   H     H_    0.795245 0.738058 0.196090 0.138478
H24   H     H_    0.625068 0.496410 0.757405 0.159639
H25   H     H_    0.736043 0.523954 0.563614 0.150347
H26   H     H_    0.858486 0.517482 0.550123 0.128694
H27   H     H_    0.768159 0.666623 0.663325 0.092388
H28   H     H_    0.960253 0.493950 0.651197 0.133189
H29   H     H_    0.940561 0.478581 0.766900 0.151877
H30   H     H_    0.733630 0.489251 0.865708 0.161407
H31   H     H_    0.060601 0.708688 0.609650 0.135348
H32   H     H_    0.171023 0.833651 0.617220 0.125035
H33   H     H_    0.148005 0.843481 0.485889 0.157584
H34   H     H_    0.835832 0.750803 0.340245 0.107296
H35   H     H_    0.930551 0.589955 0.469765 0.123345
H36   H     H_    0.024831 0.629656 0.266015 0.134881
H37   H     H_    0.985503 0.871499 0.237976 0.162441
H38   H     H_    0.775131 0.701088 0.804322 0.132330
H39   H     H_    0.104473 0.902871 0.187752 0.125186
H40   H     H_    0.100180 0.928617 0.066723 0.132240
H41   H     H_    0.985467 0.813171 0.914465 0.134801
H42   H     H_    0.874714 0.672166 0.883769 0.138767
H43   H     H_    0.875603 0.645914 0.003846 0.101881
H44   H     H_    0.396326 0.330863 0.792121 0.117939
H45   H     H_    0.550257 0.901855 0.606123 0.117873
H46   H     H_    0.355187 0.295996 0.893167 0.125971
H47   H     H_    0.209489 0.265643 0.875825 0.120422
H48   H     H_    0.144507 0.303104 0.653768 0.109210
H49   H     H_    0.291889 0.336080 0.674019 0.142684
H50   H     H_    0.880772 0.879595 0.636925 0.153244
H51   H     H_    0.136722 0.386571 0.868879 0.160263
H52   H     H_    0.860937 0.112995 0.626461 0.153076
H53   H     H_    0.806881 0.100176 0.746764 0.113918
H54   H     H_    0.660800 0.067181 0.729397 0.118036
H55   H     H_    0.600190 0.162792 0.705904 0.116436
H56   H     H_    0.406853 0.815507 0.588106 0.134404
H57   H     H_    0.686004 0.291707 0.699281 0.141703
H58   H     H_    0.831909 0.325057 0.715875 0.102061
H59   H     H_    0.618739 0.620856 0.363336 0.156242
H60   H     H_    0.583147 0.715624 0.300731 0.124024
H61   H     H_    0.543354 0.702274 0.156682 0.131144
H62   H     H_    0.651367 0.921369 0.554839 0.236860
H63   H     H_    0.649316 0.820917 0.498210 0.261618
H64   H     H_    0.599029 0.864861 0.437859 0.246530
H65   H     H_    0.784294 0.599442 0.305038 0.261838
H66   H     H_    0.832281 0.627039 0.241530 0.264521
H67   H     H_    0.299264 0.668224 0.458861 0.128633
H68   H     H_    0.757406 0.515031 0.203015 0.249714
H69   H     H_    0.910630 0.543751 0.265871 0.210805
H70   H     H_    0.858538 0.512216 0.320852 0.200171
H71   H     H_    0.481049 0.690290 0.364836 0.118523
H72   H     H_    0.252102 0.639110 0.264901 0.152909
O1    O     O_R   0.408360 0.551710 0.460090 -0.603673
O2    O     O_R   0.948270 0.356620 0.908410 -0.600555
O3    O     O_R   0.143330 0.551680 0.091590 -0.624736
O4    O     O_R   0.408390 0.448280 0.356670 -0.628165
O5    O     O_R   0.039890 0.448260 0.091620 -0.616001
O6    O     O_R   0.051700 0.643310 0.091570 -0.610111
O7    O     O_R   0.948260 0.539890 0.091600 -0.627379
O8    O     O_R   0.960080 0.551670 0.908360 -0.621111
O9    O     O_R   0.856640 0.448250 0.908390 -0.619153
O10   O     O_R   0.591600 0.643340 0.551710 -0.604032
O11   O     O_R   0.591630 0.539900 0.448290 -0.633534
O12   O     O_R   0.948280 0.908380 0.356650 -0.627121
O13   O     O_R   0.591610 0.551720 0.643330 -0.621263
O14   O     O_R   0.591640 0.448290 0.539910 -0.624917
O15   O     O_R   0.408370 0.460100 0.551710 -0.614510
O16   O     O_R   0.408400 0.356660 0.448290 -0.623176
O17   O     O_R   0.051730 0.908360 0.460070 -0.618683
O18   O     O_R   0.960110 0.908350 0.551690 -0.619295
O19   O     O_R   0.856660 0.908370 0.448270 -0.614745
O20   O     O_R   0.051720 0.091580 0.643310 -0.616502
O21   O     O_R   0.948270 0.091600 0.539890 -0.622688
O22   O     O_R   0.143340 0.091590 0.551680 -0.603703
O23   O     O_R   0.039890 0.091610 0.448270 -0.628611
O24   O     O_R   0.051710 0.460040 0.908380 -0.638315
Zn1   Zn    Zn3+2 0.499980 0.569070 0.569050 0.978716
Zn2   Zn    Zn3+2 0.500020 0.430930 0.430950 0.942774
Zn3   Zn    Zn3+2 0.069080 0.999960 0.569030 0.965573
Zn4   Zn    Zn3+2 0.930920 0.999990 0.430930 0.956125
Zn5   Zn    Zn3+2 0.069060 0.569020 0.999970 0.951478
Zn6   Zn    Zn3+2 0.930920 0.430910 0.000010 0.962296

loop_
_geom_bond_atom_site_label_1
_geom_bond_atom_site_label_2
_ccdc_geom_bond_type
C17   H63   S    
O19   Zn4   S    
C81   H25   S    
C20   H55   S    
C55   C56   A    
C55   H6    S    
C94   C105  A    
C54   H5    S    
C27   C29   A    
C41   C42   A    
C104  H33   S    
C4    H39   S    
C111  C112  A    
C11   H46   S    
C114  H37   S    
C87   C88   A    
C102  O8    A    
C19   H66   S    
C100  O5    A    
C104  C106  A    
C114  C115  A    
C53   C59   A    
C103  H32   S    
C7    C8    A    
C46   C89   S    
C31   H60   S    
C77   C78   A    
C56   C57   A    
C101  C112  S    
C22   H57   S    
C98   O23   A    
C26   C27   A    
O13   Zn1   S    
C48   C59   S    
C103  C110  A    
O12   Zn4   S    
C9    H43   S    
C15   H48   S    
C60   H10   S    
C93   O12   A    
C35   H23   S    
C85   C86   A    
C36   H34   S    
C57   C59   A    
O23   Zn4   S    
O17   Zn3   S    
C33   H12   S    
C21   H50   S    
C108  C109  A    
C30   C95   S    
C60   C62   A    
C18   C19   S    
C93   C115  S    
C93   O17   A    
C2    C13   A    
C28   H1    S    
C71   H17   S    
C46   O13   A    
C14   C105  S    
C49   H2    S    
C7    H41   S    
C35   C36   A    
O2    Zn6   S    
C68   C69   A    
C64   H13   S    
C50   H51   S    
C50   C105  A    
C23   C24   A    
C82   H15   S    
C9    C10   A    
C41   C52   S    
C6    H40   S    
C92   C102  S    
C94   C97   S    
C17   H64   S    
C18   C108  S    
C13   H54   S    
O24   Zn5   S    
C60   C66   A    
C87   C92   A    
C85   H28   S    
C61   C99   S    
O5    Zn6   S    
C8    H42   S    
C27   H59   S    
C22   C23   A    
C112  C113  A    
C101  O6    A    
C90   H24   S    
O9    Zn6   S    
O7    Zn6   S    
C40   H67   S    
C76   C77   A    
C45   C47   A    
C3    C106  S    
C98   O22   A    
C28   C70   A    
C69   C71   A    
C86   H29   S    
C51   C52   A    
C81   C88   A    
C38   H56   S    
C84   C85   A    
C4    C6    A    
C19   H68   S    
C91   C92   A    
C71   C73   A    
C76   H19   S    
C86   C87   A    
C45   H72   S    
C99   O24   A    
C45   C52   A    
C49   C51   A    
C25   C26   A    
C53   C54   A    
C83   C94   A    
C83   H52   S    
C29   C34   S    
O20   Zn3   S    
C16   H49   S    
C47   C100  S    
C67   C68   A    
C102  O9    A    
C56   H7    S    
C75   C76   A    
C17   C43   S    
C38   C44   A    
C29   C30   A    
C57   H8    S    
C5    C28   A    
C32   H61   S    
C34   O11   A    
C96   O19   A    
C47   C48   A    
C18   H69   S    
C62   C63   A    
C53   H4    S    
C8    C9    A    
C67   C74   A    
C97   O20   A    
C107  H27   S    
C11   C39   A    
C46   O14   A    
O14   Zn2   S    
O8    Zn5   S    
C10   C113  S    
C95   C107  A    
C1    O4    A    
C61   C72   A    
C48   C49   A    
C79   H22   S    
C20   C22   A    
O18   Zn3   S    
O21   Zn4   S    
C43   C44   A    
C2    C24   A    
C44   H45   S    
C66   H9    S    
C79   C80   A    
C42   C43   A    
C4    C10   A    
C73   C74   A    
C2    H53   S    
C91   H30   S    
C81   C84   A    
C101  O7    A    
C24   C72   S    
O6    Zn5   S    
C62   H11   S    
C113  C114  A    
C5    C107  A    
C1    O1    A    
C17   H62   S    
C21   C25   A    
C54   C55   A    
C40   C41   A    
C82   C95   A    
C13   C20   A    
C39   H44   S    
C78   C79   A    
O16   Zn2   S    
C31   C32   A    
C67   H16   S    
O15   Zn1   S    
C96   O18   A    
C111  H36   S    
C58   O16   A    
C65   H14   S    
C11   C12   A    
C75   H18   S    
C26   C37   S    
C6    C7    A    
C23   H58   S    
C63   C74   S    
C21   C30   A    
C18   H70   S    
C99   O2    A    
O22   Zn3   S    
C1    C51   S    
C32   C33   A    
C109  H35   S    
C12   C14   A    
O10   Zn1   S    
C3    C115  A    
C109  C110  A    
C64   C65   A    
C38   C40   A    
O1    Zn1   S    
C34   O10   A    
C42   H71   S    
C90   C91   A    
C3    C111  A    
C106  C108  A    
C84   H26   S    
C70   H3    S    
C5    H38   S    
C33   C35   A    
C100  O3    A    
C97   O21   A    
C70   C82   A    
C68   C98   S    
C72   C83   A    
C16   C39   A    
C12   H47   S    
C63   C64   A    
C31   C37   A    
C75   C80   A    
C88   C89   A    
C58   O15   A    
C25   C96   S    
C36   C37   A    
C65   C66   A    
C103  C104  A    
C50   C61   A    
C14   C15   A    
C69   C80   S    
C77   H20   S    
C89   C90   A    
C110  H31   S    
O11   Zn2   S    
O3    Zn5   S    
C19   H65   S    
O4    Zn2   S    
C15   C16   A    
C58   C73   S    
C78   H21   S    
