data_mof_unit_47692.cif
_audit_creation_date              2012-12-11T15:33:47-0500
_audit_creation_method            fapswitch 2.2
_symmetry_space_group_name_H-M    P1
_symmetry_Int_Tables_number       1
_space_group_crystal_system       triclinic
_cell_length_a                    27.356107
_cell_length_b                    7.194587
_cell_length_c                    22.591918
_cell_angle_alpha                 89.820466
_cell_angle_beta                  100.889396
_cell_angle_gamma                 90.082303
_cell_volume                      4366.36131998

loop_
_atom_site_label
_atom_site_type_symbol
_atom_type_description
_atom_site_fract_x
_atom_site_fract_y
_atom_site_fract_z
_atom_type_partial_charge
O1    O     O_R   0.207310 0.594030 0.676830 -0.545293
O2    O     O_R   0.792690 0.405970 0.323170 -0.546085
O3    O     O_R   0.292690 0.094030 0.823170 -0.527808
O4    O     O_R   0.707310 0.905970 0.176830 -0.527651
O5    O     O_R   0.197320 0.262370 0.795700 -0.513729
O6    O     O_R   0.802680 0.737630 0.204300 -0.512501
O7    O     O_R   0.302680 0.762370 0.704300 -0.530630
O8    O     O_R   0.697320 0.237630 0.295700 -0.528536
C1    C     C_R   0.184248 0.432081 0.811528 0.795848
C2    C     C_R   0.815646 0.567862 0.188282 0.794849
C3    C     C_R   0.315473 0.932513 0.688540 0.807166
C4    C     C_R   0.684489 0.067477 0.311530 0.802570
O9    O     O_R   0.201410 0.264250 0.675590 -0.517198
O10   O     O_R   0.798590 0.735750 0.324410 -0.517407
O11   O     O_R   0.298590 0.764250 0.824410 -0.529138
O12   O     O_R   0.701410 0.235750 0.175590 -0.530190
O13   O     O_R   0.296810 0.094940 0.702210 -0.518074
O14   O     O_R   0.703190 0.905060 0.297790 -0.514187
O15   O     O_R   0.203190 0.594940 0.797790 -0.507728
O16   O     O_R   0.796810 0.405060 0.202210 -0.508275
C5    C     C_R   0.189691 0.433123 0.653581 0.770993
C6    C     C_R   0.810385 0.566817 0.346380 0.776354
C7    C     C_R   0.310589 0.932558 0.846323 0.793312
C8    C     C_R   0.689457 0.067476 0.153652 0.790826
O17   O     O_3   0.281300 0.427390 0.758870 -0.372342
O18   O     O_3   0.718700 0.572610 0.241130 -0.369895
O19   O     O_3   0.218700 0.927390 0.741130 -0.359706
O20   O     O_3   0.781300 0.072610 0.258870 -0.360514
V1    V     V_3+5 0.244190 0.152150 0.748350 1.697095
V2    V     V_3+5 0.755810 0.847850 0.251650 1.703603
V3    V     V_3+5 0.255810 0.652150 0.751650 1.657299
V4    V     V_3+5 0.744190 0.347850 0.248350 1.663638
C9    C     C_R   0.653533 0.062765 0.095745 -0.110331
C10   C     C_R   0.346546 0.937384 0.904225 -0.110879
C11   C     C_R   0.846435 0.557374 0.404004 -0.113287
C12   C     C_R   0.153774 0.442293 0.595893 -0.112821
C13   C     C_R   0.638268 0.117770 0.988302 -0.069109
C14   C     C_R   0.361888 0.881914 0.011658 -0.069825
C15   C     C_R   0.860727 0.591281 0.512131 -0.052869
C16   C     C_R   0.139619 0.406856 0.487831 -0.051680
C17   C     C_R   0.669565 0.126072 0.044253 -0.214634
C18   C     C_R   0.330644 0.873032 0.955683 -0.215868
C19   C     C_R   0.828248 0.573054 0.457310 -0.196733
C20   C     C_R   0.172057 0.424696 0.542709 -0.192310
C21   C     C_R   0.603691 0.002708 0.091599 0.338631
C22   C     C_R   0.396277 0.998918 0.908454 0.341729
C23   C     C_R   0.898330 0.541905 0.406196 0.325661
C24   C     C_R   0.101893 0.458598 0.593577 0.324666
C25   C     C_R   0.568667 0.024127 0.035783 -0.005192
C26   C     C_R   0.431324 0.977588 0.964233 -0.006769
C27   C     C_R   0.931909 0.532144 0.463447 -0.008673
C28   C     C_R   0.068403 0.468346 0.536269 -0.009551
C29   C     C_R   0.588317 0.062846 0.983028 -0.022970
C30   C     C_R   0.411729 0.938170 0.016963 -0.017004
C31   C     C_R   0.912467 0.578775 0.515659 -0.026849
C32   C     C_R   0.087876 0.420986 0.484137 -0.023678
C33   C     C_R   0.515457 0.005905 0.029339 -0.009153
C34   C     C_R   0.484514 0.996318 0.970654 -0.013903
C35   C     C_R   0.983941 0.485184 0.471431 -0.003099
C36   C     C_R   0.016400 0.515737 0.528208 -0.004692
C37   C     C_R   0.508122 0.994097 0.920613 -0.083701
C38   C     C_R   0.491813 0.008379 0.079353 -0.087459
C39   C     C_R   0.996279 0.602238 0.573820 -0.092564
C40   C     C_R   0.004075 0.398865 0.425794 -0.095882
C41   C     C_R   0.558143 0.039455 0.925821 0.386852
C42   C     C_R   0.441845 0.962221 0.074161 0.386586
C43   C     C_R   0.945202 0.620644 0.569806 0.392090
C44   C     C_R   0.055152 0.379745 0.429915 0.388861
H1    H     H_    0.292879 0.824356 0.953040 0.197434
H2    H     H_    0.707445 0.173647 0.046881 0.194653
H3    H     H_    0.211719 0.414522 0.544036 0.193920
H4    H     H_    0.788609 0.581274 0.456171 0.198044
H5    H     H_    0.653555 0.156979 0.949252 0.201085
H6    H     H_    0.346664 0.842027 0.050692 0.201765
H7    H     H_    0.844804 0.616249 0.551719 0.205230
H8    H     H_    0.155577 0.380712 0.448343 0.204930
H9    H     H_    0.488493 0.953694 0.876647 0.238007
H10   H     H_    0.511364 0.049496 0.123272 0.229962
H11   H     H_    0.019800 0.660635 0.612961 0.218773
H12   H     H_    0.980561 0.340845 0.386586 0.218477
C45   C     C_R   0.652176 0.950840 0.402126 0.347022
C46   C     C_R   0.345882 0.032441 0.595050 0.338935
C47   C     C_R   0.856707 0.409466 0.110063 0.367681
C48   C     C_R   0.143976 0.585291 0.891268 0.367238
C49   C     C_R   0.614885 0.936826 0.436544 -0.100625
C50   C     C_R   0.382789 0.042268 0.559914 -0.112414
C51   C     C_R   0.893956 0.399052 0.075787 -0.060989
C52   C     C_R   0.107362 0.592239 0.926583 -0.120748
H13   H     H_    0.622160 0.855139 0.477648 0.188541
H14   H     H_    0.374124 0.109936 0.516265 0.187982
H15   H     H_    0.893521 0.283491 0.045005 0.192918
H16   H     H_    0.108730 0.703491 0.959119 0.180577
C53   C     C_R   0.569349 0.030245 0.420130 -0.169604
C54   C     C_R   0.430076 0.964026 0.579391 -0.168108
C55   C     C_R   0.930445 0.536475 0.078591 -0.173995
C56   C     C_R   0.069956 0.457657 0.922021 -0.158875
C57   C     C_R   0.561020 0.139223 0.366521 -0.114459
C58   C     C_R   0.440725 0.877006 0.637079 -0.116467
C59   C     C_R   0.930183 0.688488 0.118250 -0.122275
C60   C     C_R   0.068350 0.313862 0.878979 -0.117858
C61   C     C_R   0.598749 0.151198 0.330822 0.374752
C62   C     C_R   0.402774 0.863938 0.672363 0.374423
C63   C     C_R   0.893313 0.697751 0.154982 0.404698
C64   C     C_R   0.105402 0.305231 0.842603 0.397340
C65   C     C_R   0.644737 0.057490 0.348738 -0.208833
C66   C     C_R   0.355196 0.942479 0.651504 -0.209874
C67   C     C_R   0.855505 0.558850 0.150673 -0.226690
C68   C     C_R   0.144160 0.440713 0.848741 -0.215506
N1    N     N_R   0.504087 0.160218 0.471902 -0.274447
N2    N     N_R   0.495155 0.834509 0.527543 -0.281845
N3    N     N_R   0.982608 0.666861 0.009672 -0.279286
N4    N     N_R   0.017477 0.327496 0.990495 -0.290237
N5    N     N_R   0.472107 0.144580 0.509596 -0.246600
N6    N     N_R   0.527162 0.850112 0.489919 -0.241853
N7    N     N_R   0.014784 0.647281 0.972555 -0.255358
N8    N     N_R   0.985301 0.346952 0.027587 -0.224689
C69   C     C_R   0.467256 0.981807 0.538770 0.540076
C70   C     C_R   0.532225 0.013052 0.460959 0.539344
C71   C     C_R   0.032625 0.476902 0.961802 0.549885
C72   C     C_R   0.967400 0.517192 0.038283 0.543610
Cl1   Cl    Cl    0.581975 0.053768 0.858574 -0.486279
Cl2   Cl    Cl    0.417987 0.947724 0.141384 -0.522727
Cl3   Cl    Cl    0.924325 0.710956 0.633217 -0.490804
Cl4   Cl    Cl    0.076019 0.289210 0.366526 -0.520265
Cl5   Cl    Cl    0.409210 0.134335 0.847528 -0.573298
Cl6   Cl    Cl    0.590556 0.869419 0.152884 -0.577640
Cl7   Cl    Cl    0.081048 0.423187 0.662433 -0.567423
Cl8   Cl    Cl    0.919048 0.577712 0.337302 -0.584830
Cl9   Cl    Cl    0.709070 0.838423 0.429514 -0.660644
Cl10  Cl    Cl    0.287062 0.126827 0.564976 -0.659407
Cl11  Cl    Cl    0.811504 0.231591 0.097405 -0.635616
Cl12  Cl    Cl    0.189978 0.759898 0.905255 -0.653640
C73   C     C_2   0.511976 0.230465 0.346343 0.618058
H17   H     H_    0.478308 0.164348 0.354865 0.055273
O21   O     O_2   0.508640 0.382112 0.321532 -0.450523
C74   C     C_2   0.491775 0.808344 0.661744 0.591060
H18   H     H_    0.513539 0.738756 0.633207 0.063977
O22   O     O_2   0.510768 0.832852 0.714536 -0.429541
C75   C     C_2   0.970172 0.831069 0.123511 0.607041
H19   H     H_    0.007767 0.790351 0.120369 0.053532
O23   O     O_2   0.961345 0.995571 0.129376 -0.467930
C76   C     C_2   0.027012 0.176747 0.870166 0.586018
H20   H     H_    0.017531 0.102329 0.908174 0.067992
O24   O     O_2   0.002633 0.147228 0.819986 -0.431459
Cl13  Cl    Cl    0.586909 0.268107 0.260365 -0.499943
Cl14  Cl    Cl    0.414383 0.747414 0.742890 -0.510733
Cl15  Cl    Cl    0.898338 0.874160 0.210582 -0.449838
Cl16  Cl    Cl    0.102175 0.122215 0.789451 -0.456339

loop_
_geom_bond_atom_site_label_1
_geom_bond_atom_site_label_2
_ccdc_geom_bond_type
O17   V3    S    
C59   C63   A    
C52   C56   A    
O1    C5    A    
C19   H4    S    
C51   H15   S    
O19   V1    S    
C9    C21   A    
C64   Cl16  S    
C56   C71   S    
O3    C7    A    
C10   C18   A    
C57   C73   S    
C11   C23   A    
C44   Cl4   S    
C63   Cl15  S    
C23   Cl8   S    
C5    C12   S    
C39   H11   S    
C1    C68   S    
O7    C3    A    
C6    C11   S    
C61   Cl13  S    
C35   C40   A    
C26   C30   A    
C36   C39   A    
C40   C44   A    
O9    V1    S    
C14   C18   A    
O16   V4    S    
C4    C65   S    
O4    C8    A    
C54   C69   S    
C55   C59   A    
N4    N8    A    
C54   C58   A    
C58   C74   S    
O1    V3    S    
O13   V1    S    
C31   C43   A    
C20   H3    S    
O2    V4    S    
O3    V1    S    
C50   C54   A    
C49   C53   A    
C1    O15   A    
C60   C64   A    
C15   C31   A    
C52   H16   S    
C37   H9    S    
C16   C32   A    
C51   C55   A    
O2    C6    A    
C42   Cl2   S    
C12   C24   A    
C10   C22   A    
C41   Cl1   S    
C46   Cl10  S    
C11   C19   A    
N2    N6    A    
C16   C20   A    
N1    N5    A    
C13   C29   A    
C34   C37   A    
O11   C7    A    
O15   V3    S    
C35   C36   A    
O12   C8    A    
C40   H12   S    
C59   C75   S    
C2    C67   S    
O10   V2    S    
N2    C69   A    
N1    C70   A    
O5    V1    S    
C61   C65   A    
C39   C43   A    
O7    V3    S    
C38   C42   A    
O8    V4    S    
C33   C38   A    
C74   O22   D    
C50   H14   S    
C2    O16   A    
C49   H13   S    
O18   V4    S    
C23   C27   A    
C32   C44   A    
C48   Cl12  S    
C18   H1    S    
N8    C72   A    
N3    C72   A    
C26   C34   A    
O5    C1    A    
C58   C62   A    
N4    C71   A    
N3    N7    A    
C45   Cl9   S    
C14   C30   A    
C21   C25   A    
C21   Cl6   S    
O8    C4    A    
C7    C10   S    
C57   C61   A    
C3    C66   S    
O9    C5    A    
N6    C70   A    
N5    C69   A    
O6    V2    S    
C15   H7    S    
C73   H17   S    
C76   O24   D    
C12   C20   A    
C27   C35   A    
C53   C70   S    
C53   C57   A    
C64   C68   A    
C29   C41   A    
C14   H6    S    
C45   C65   A    
C13   H5    S    
C3    O13   A    
C38   H10   S    
C48   C52   A    
C74   H18   S    
C43   Cl3   S    
C47   C51   A    
O6    C2    A    
C22   Cl5   S    
C15   C19   A    
C75   H19   S    
O11   V3    S    
C30   C42   A    
C55   C72   S    
O12   V4    S    
C22   C26   A    
N7    C71   A    
C8    C9    S    
C9    C17   A    
O10   C6    A    
O20   V2    S    
C47   Cl11  S    
C46   C50   A    
C62   Cl14  S    
C24   Cl7   S    
C75   O23   D    
C33   C34   A    
C25   C33   A    
C25   C29   A    
C56   C60   A    
C48   C68   A    
C47   C67   A    
C62   C66   A    
C60   C76   S    
C27   C31   A    
C46   C66   A    
C37   C41   A    
C13   C17   A    
O4    V2    S    
O14   V2    S    
C16   H8    S    
C24   C28   A    
C28   C36   A    
C4    O14   A    
C73   O21   D    
C76   H20   S    
C63   C67   A    
C45   C49   A    
C28   C32   A    
C17   H2    S    
