data_mof_unit_18574.cif
_audit_creation_date              2013-03-05T16:06:17-0500
_audit_creation_method            fapswitch 2.2
_symmetry_space_group_name_H-M    P1
_symmetry_Int_Tables_number       1
_space_group_crystal_system       triclinic
_cell_length_a                    10.826234
_cell_length_b                    9.505948
_cell_length_c                    27.806181
_cell_angle_alpha                 90.211149
_cell_angle_beta                  89.971965
_cell_angle_gamma                 90.04422
_cell_volume                      2861.61405108

loop_
_atom_site_label
_atom_site_type_symbol
_atom_site_description
_atom_site_fract_x
_atom_site_fract_y
_atom_site_fract_z
_atom_type_partial_charge
O1    O     O_R   0.319640 0.618740 0.500000 -0.570183
O2    O     O_R   0.680360 0.381260 0.500000 -0.571875
O3    O     O_R   0.680360 0.618740 0.500000 -0.603924
O4    O     O_R   0.319640 0.381260 0.500000 -0.603420
C1    C     C_R   0.262030 0.499956 0.499833 0.822242
C2    C     C_R   0.737970 0.500039 0.500095 0.819507
O5    O     O_R   0.500020 0.618770 0.430260 -0.592937
O6    O     O_R   0.499980 0.381230 0.569740 -0.591228
O7    O     O_R   0.499980 0.618770 0.569740 -0.528255
O8    O     O_R   0.500020 0.381230 0.430260 -0.525740
C3    C     C_R   0.503229 0.499618 0.407491 0.861526
C4    C     C_R   0.496716 0.500398 0.592492 0.859601
Cu1   Cu    Cu3+1 0.500000 0.640660 0.500000 1.013133
Cu2   Cu    Cu3+1 0.500000 0.359340 0.500000 1.014216
C5    C     C_R   0.406996 0.448720 0.178262 0.543738
C6    C     C_R   0.597992 0.542006 0.821774 0.542625
O9    O     O_2   0.315759 0.384904 0.203135 -0.534888
O10   O     O_2   0.695870 0.591023 0.796842 -0.557062
N1    N     N_R   0.500819 0.513278 0.202290 -0.452605
N2    N     N_R   0.497699 0.491403 0.797787 -0.451247
C7    C     C_R   0.595150 0.579297 0.178724 0.538187
C8    C     C_R   0.395917 0.442321 0.821507 0.530187
C9    C     C_R   0.572876 0.407028 0.277224 -0.167596
C10   C     C_R   0.423887 0.593076 0.722359 -0.199137
C11   C     C_R   0.576717 0.401542 0.327507 0.404634
C12   C     C_R   0.420079 0.597034 0.672089 0.351408
C13   C     C_R   0.436126 0.601985 0.330447 -0.263585
C14   C     C_R   0.565802 0.401388 0.669827 -0.263215
C15   C     C_R   0.433922 0.606209 0.280412 -0.083424
C16   C     C_R   0.567931 0.398547 0.719900 -0.080167
C17   C     C_R   0.502032 0.508619 0.253783 0.289859
C18   C     C_R   0.497127 0.494504 0.746225 0.308625
C19   C     C_R   0.501372 0.514037 0.102194 -0.070683
C20   C     C_R   0.494432 0.498740 0.897894 -0.068887
C21   C     C_R   0.405334 0.447725 0.128016 -0.008636
C22   C     C_R   0.599209 0.544641 0.872045 -0.010511
C23   C     C_R   0.310287 0.379264 0.103374 -0.162951
C24   C     C_R   0.703425 0.592583 0.896700 -0.165511
C25   C     C_R   0.598984 0.581609 0.127575 -0.069301
C26   C     C_R   0.389119 0.448631 0.872549 -0.055755
C27   C     C_R   0.505983 0.499610 0.354583 -0.168273
C28   C     C_R   0.493451 0.500787 0.645368 -0.148308
H1    H     H_    0.381873 0.678087 0.350424 0.171167
H2    H     H_    0.622068 0.326715 0.650068 0.168788
H3    H     H_    0.379340 0.685299 0.262277 0.151942
H4    H     H_    0.624391 0.321693 0.738287 0.152160
H5    H     H_    0.237709 0.324413 0.122534 0.183130
H6    H     H_    0.785527 0.625861 0.877584 0.181226
C29   C     C_R   0.393008 0.453666 0.975232 0.011389
C30   C     C_R   0.597689 0.571517 0.024790 0.001583
C31   C     C_R   0.600178 0.558952 0.973765 0.061601
C32   C     C_R   0.398359 0.448217 0.026301 0.061737
C33   C     C_R   0.495762 0.503716 0.949077 0.068847
C34   C     C_R   0.499222 0.511462 0.050983 0.068714
C35   C     C_R   0.286460 0.413164 0.949623 -0.231694
C36   C     C_R   0.690475 0.643855 0.050346 -0.227716
C37   C     C_R   0.282171 0.409378 0.899311 0.104860
C38   C     C_R   0.694272 0.648860 0.100656 0.148410
O11   O     O_2   0.303419 0.386679 0.795249 -0.546349
O12   O     O_2   0.683704 0.641611 0.205279 -0.550171
C39   C     C_R   0.306851 0.378915 0.053621 -0.215823
C40   C     C_R   0.704643 0.598324 0.946450 -0.213076
H7    H     H_    0.369175 0.665935 0.743453 0.173654
H8    H     H_    0.625722 0.333152 0.255826 0.189671
H9    H     H_    0.201944 0.389414 0.968379 0.133461
H10   H     H_    0.761776 0.700532 0.031614 0.140104
H11   H     H_    0.232892 0.319024 0.037607 0.139623
H12   H     H_    0.790740 0.630919 0.962387 0.134912
C41   C     C_R   0.063762 0.372166 0.498440 -0.176347
C42   C     C_R   0.936235 0.627825 0.501398 -0.177125
C43   C     C_R   0.936023 0.372207 0.498552 -0.127186
C44   C     C_R   0.063972 0.627783 0.501278 -0.122448
H13   H     H_    0.111755 0.272260 0.497236 0.155563
H14   H     H_    0.888245 0.727732 0.502608 0.154903
H15   H     H_    0.887857 0.272319 0.497407 0.162796
H16   H     H_    0.112137 0.727673 0.502425 0.164979
C45   C     C_R   0.871788 0.500039 0.500037 -0.011518
C46   C     C_R   0.128209 0.499950 0.499820 -0.011416
C47   C     C_R   0.421316 0.074080 0.470924 0.048868
C48   C     C_R   0.578653 0.925919 0.529089 0.042055
C49   C     C_R   0.578649 0.074840 0.529092 0.011821
C50   C     C_R   0.421343 0.925159 0.470911 0.013134
H17   H     H_    0.358425 0.130001 0.447606 0.120766
H18   H     H_    0.641529 0.869997 0.552413 0.121457
H19   H     H_    0.641570 0.131360 0.552404 0.112882
H20   H     H_    0.358426 0.868639 0.447597 0.111096
N3    N     N_R   0.500000 0.852070 0.500000 -0.161771
N4    N     N_R   0.500000 0.147930 0.500000 -0.161469
S1    S     S_3+6 0.317539 0.717983 0.644733 0.023780
O13   O     O_2   0.390506 0.837492 0.623762 -0.245782
O14   O     O_2   0.246081 0.646649 0.605254 -0.313449
O15   O     O_3   0.217695 0.783643 0.685383 -0.505441
H21   H     H_    0.163265 0.703660 0.693876 0.349359
S2    S     S_3+6 0.676018 0.276351 0.354408 0.008647
O16   O     O_2   0.750322 0.345450 0.393556 -0.307827
O17   O     O_2   0.599842 0.159494 0.375439 -0.289781
O18   O     O_3   0.772992 0.208474 0.313137 -0.532817
H22   H     H_    0.823536 0.139204 0.330939 0.380652
C51   C     C_3   0.159338 0.367217 0.876848 -0.337410
C52   C     C_3   0.092164 0.495225 0.855752 -0.334839
C53   C     C_3   0.980460 0.450104 0.826049 -0.762981
H23   H     H_    0.009489 0.379830 0.796093 0.275846
H24   H     H_    0.912317 0.394325 0.849030 0.244080
H25   H     H_    0.935992 0.544614 0.810460 0.272300
H26   H     H_    0.060677 0.564690 0.885602 0.199200
H27   H     H_    0.154684 0.558122 0.832572 0.248637
H28   H     H_    0.172261 0.281435 0.850219 0.244976
H29   H     H_    0.096886 0.319878 0.904160 0.162850
C54   C     C_3   0.803478 0.726980 0.122707 -0.348374
C55   C     C_3   0.905254 0.626088 0.139964 -0.266730
C56   C     C_3   0.976407 0.560091 0.098096 -0.844364
H30   H     H_    0.914209 0.494001 0.075676 0.257631
H31   H     H_    0.018829 0.643060 0.075379 0.248439
H32   H     H_    0.051096 0.492216 0.112419 0.249600
H33   H     H_    0.971465 0.686129 0.162669 0.218783
H34   H     H_    0.865890 0.540505 0.162309 0.254743
H35   H     H_    0.845307 0.800854 0.096358 0.167603
H36   H     H_    0.772692 0.798325 0.151925 0.219295

loop_
_geom_bond_atom_site_label_1
_geom_bond_atom_site_label_2
_geom_bond_distance
_ccdc_geom_bond_type
C47   H17   1.081718 S    
C53   H23   1.111214 S    
C13   C15   1.392215 A    
C38   C54   1.523550 S    
C56   H30   1.110696 S    
C44   H16   1.083318 S    
O3    C2    1.289702 A    
N1    C17   1.432755 S    
O18   H22   0.990587 S    
C54   H35   1.112649 S    
C12   S1    1.772603 S    
O5    C3    1.296026 A    
C51   H29   1.112641 S    
C52   H26   1.112297 S    
C19   C25   1.422610 A    
C20   C26   1.421607 A    
C21   C23   1.395790 A    
C10   C12   1.399090 A    
C48   N3    1.366629 A    
C32   C39   1.412266 A    
C36   H10   1.076318 S    
C50   N3    1.366688 A    
C37   C51   1.522267 S    
O7    Cu1   1.951098 S    
C41   C43   1.382941 A    
C39   H11   1.077637 S    
C55   C56   1.528662 S    
C52   C53   1.525183 S    
C4    C28   1.470675 S    
C42   H14   1.083294 S    
C44   C46   1.401015 A    
C41   H13   1.083294 S    
C23   H5    1.083556 S    
C24   H6    1.083056 S    
O3    Cu1   1.963866 S    
O6    C4    1.295953 A    
C11   S2    1.772241 S    
C53   H24   1.111378 S    
Cu1   Cu2   2.674213 S    
C42   C45   1.400775 A    
C41   C46   1.400776 A    
O2    C2    1.289488 A    
C31   C40   1.413023 A    
C5    C21   1.397274 A    
C47   N4    1.366635 A    
C35   H9    1.077165 S    
C32   C34   1.421802 A    
C54   H36   1.107763 S    
C48   H18   1.081716 S    
C16   C18   1.396800 A    
C7    O12   1.346023 S    
O8    Cu2   1.951098 S    
C11   C27   1.420458 A    
C8    O11   1.346382 S    
C48   C49   1.415638 A    
C2    C45   1.448744 S    
S2    O18   1.682246 S    
C29   C35   1.408543 A    
C25   C38   1.426503 A    
C14   H2    1.083631 S    
C30   C36   1.408167 A    
C15   H3    1.082817 S    
C31   C33   1.421963 A    
C9    C17   1.397136 A    
C5    N1    1.360666 A    
C10   C18   1.397620 A    
C13   C27   1.405675 A    
C51   C52   1.536464 S    
C7    C25   1.423099 A    
C6    N2    1.361159 A    
C29   C32   1.422385 A    
C8    C26   1.422212 A    
Cu1   N3    2.009652 S    
C30   C31   1.423636 A    
C56   H31   1.111225 S    
C30   C34   1.412155 A    
S1    O15   1.682336 S    
S2    O17   1.502981 D    
C9    H8    1.082465 S    
N2    C8    1.366633 A    
C53   H25   1.109291 S    
C35   C37   1.400104 A    
O1    C1    1.289535 A    
O1    Cu1   1.963546 S    
C22   C24   1.395821 A    
C55   H34   1.110171 S    
C43   C45   1.401015 A    
C12   C28   1.419745 A    
N2    C18   1.434176 S    
C19   C34   1.424290 A    
C5    O9    1.350372 S    
O6    Cu2   1.949573 S    
C26   C37   1.426222 A    
N1    C7    1.366579 A    
C16   H4    1.082839 S    
O4    C1    1.289668 A    
C47   C50   1.415628 A    
C23   C39   1.383962 A    
C10   H7    1.082529 S    
C51   H28   1.108340 S    
C52   H27   1.110325 S    
C40   H12   1.077109 S    
C14   C16   1.392903 A    
C1    C46   1.448778 S    
Cu2   N4    2.009653 S    
C15   C17   1.395723 A    
C50   H20   1.081753 S    
C54   C55   1.539386 S    
C6    C22   1.398048 A    
C43   H15   1.083320 S    
C29   C33   1.411990 A    
C14   C28   1.405439 A    
O15   H21   0.990750 S    
C19   C21   1.412644 A    
C36   C38   1.400193 A    
C3    C27   1.471451 S    
C56   H32   1.109854 S    
C20   C22   1.412266 A    
C9    C11   1.399960 A    
O4    Cu2   1.963866 S    
S2    O16   1.502768 D    
O2    Cu2   1.963546 S    
O7    C4    1.293370 A    
C49   N4    1.366689 A    
O8    C3    1.293722 A    
C13   H1    1.083635 S    
O5    Cu1   1.949573 S    
C20   C33   1.423895 A    
C6    O10   1.349625 S    
S1    O14   1.502643 D    
C42   C44   1.382913 A    
S1    O13   1.502561 D    
C55   H33   1.111444 S    
C49   H19   1.081752 S    
C24   C40   1.384299 A    
