data_mof_unit_67954.cif
_audit_creation_date              2013-03-05T16:41:06-0500
_audit_creation_method            fapswitch 2.2
_symmetry_space_group_name_H-M    P1
_symmetry_Int_Tables_number       1
_space_group_crystal_system       triclinic
_cell_length_a                    8.640554
_cell_length_b                    10.868632
_cell_length_c                    10.0
_cell_angle_alpha                 88.219421
_cell_angle_beta                  96.070738
_cell_angle_gamma                 91.581748
_cell_volume                      933.113260256

loop_
_atom_site_label
_atom_site_type_symbol
_atom_site_description
_atom_site_fract_x
_atom_site_fract_y
_atom_site_fract_z
_atom_type_partial_charge
O1    O     O_R   0.500020 0.316790 0.614690 -0.594842
O2    O     O_R   0.500000 0.316760 0.385350 -0.559553
C1    C     C_R   0.500823 0.260479 0.500845 0.857711
O3    O     O_R   0.271760 0.500010 0.587850 -0.606404
O4    O     O_R   0.271740 0.499970 0.358500 -0.552694
C2    C     C_R   0.202364 0.497127 0.466822 0.982502
Zn1   Zn    Zn3+2 0.500010 0.500020 0.653130 1.044214
Zn2   Zn    Zn3+2 0.499990 0.499980 0.346870 1.077447
O5    O     O_R   0.500000 0.683240 0.614650 -0.576469
O6    O     O_R   0.499980 0.683210 0.385310 -0.587872
O7    O     O_R   0.728260 0.500030 0.641500 -0.610674
O8    O     O_R   0.728240 0.499990 0.412150 -0.584418
C3    C     C_R   0.499065 0.738913 0.498565 0.983646
C4    C     C_R   0.797304 0.504059 0.532452 0.853279
C5    C     C_2   0.038919 0.480397 0.455113 -0.429980
H1    H     H_    0.988180 0.408432 0.389618 0.122736
C6    C     C_2   0.956881 0.537141 0.539033 0.133054
C7    C     C_R   0.437023 0.056508 0.596130 -0.231978
C8    C     C_R   0.499657 0.128296 0.497710 -0.142433
C9    C     C_R   0.558655 0.067556 0.390780 0.520475
C10   C     C_R   0.548877 0.938181 0.387614 -0.301484
H2    H     H_    0.587098 0.892098 0.302909 0.226272
C11   C     C_R   0.496348 0.869741 0.495906 -0.087060
C12   C     C_R   0.442476 0.932647 0.599589 -0.098696
C13   C     C_3   0.393844 0.920196 0.739922 0.415377
C14   C     C_3   0.376103 0.062774 0.731047 0.598907
C15   C     C_R   0.431845 0.406424 0.066823 0.179175
N1    N     N_R   0.498950 0.499140 0.142680 -0.179233
C16   C     C_R   0.585638 0.587107 0.073436 0.291439
C17   C     C_R   0.580692 0.586092 0.930037 -0.116622
H3    H     H_    0.644107 0.654409 0.875738 0.242340
N2    N     N_R   0.498950 0.499180 0.857030 -0.124988
C18   C     C_R   0.433289 0.405483 0.926875 0.166871
C19   C     C_3   0.269229 0.358921 0.910036 -0.678648
C20   C     C_3   0.272344 0.352020 0.065267 0.870922
H4    H     H_    0.192914 0.428216 0.855295 0.207359
H5    H     H_    0.256809 0.269529 0.864025 0.264897
O9    O     O_3   0.174389 0.430808 0.126411 -0.604042
C21   C     C_3   0.021552 0.435860 0.060938 -0.062777
H6    H     H_    0.938199 0.419267 0.137185 0.183214
H7    H     H_    0.992369 0.365292 0.983217 0.124960
C22   C     C_3   0.997130 0.564652 0.999950 -0.586999
H8    H     H_    0.094226 0.594152 0.941303 0.279982
H9    H     H_    0.887907 0.565918 0.931883 0.218893
H10   H     H_    0.992611 0.631029 0.081398 0.287707
O10   O     O_3   0.291787 0.235835 0.131808 -0.560731
C23   C     C_3   0.159511 0.158113 0.112422 0.088244
H11   H     H_    0.122719 0.144842 0.003836 0.189327
H12   H     H_    0.062937 0.196119 0.161614 0.112238
C24   C     C_3   0.201571 0.033221 0.178675 -0.643345
H13   H     H_    0.214835 0.040666 0.289823 0.205825
H14   H     H_    0.111565 0.961661 0.150073 0.222355
H15   H     H_    0.312871 0.002132 0.146599 0.312481
N3    N     N_R   0.006220 0.653488 0.595573 0.248706
O11   O     O_R   0.938709 0.692988 0.695792 -0.326875
O12   O     O_R   0.079031 0.733176 0.523221 -0.371530
O13   O     O_3   0.613258 0.135675 0.285332 -0.551896
C25   C     C_3   0.766276 0.103981 0.264493 -0.030901
H16   H     H_    0.816285 0.026633 0.329763 0.158719
H17   H     H_    0.844098 0.185556 0.285751 0.138516
C26   C     C_3   0.766838 0.072157 0.117984 -0.546150
H18   H     H_    0.751407 0.156895 0.053740 0.258666
H19   H     H_    0.876324 0.029467 0.099937 0.197270
H20   H     H_    0.671789 0.004718 0.090503 0.336507
N4    N     N_R   0.253034 0.843312 0.751422 0.238026
O14   O     O_R   0.269630 0.724751 0.761542 -0.342960
O15   O     O_R   0.131892 0.887584 0.798291 -0.270271
N5    N     N_R   0.519059 0.881536 0.840793 0.202775
O16   O     O_R   0.664015 0.887526 0.815646 -0.327367
O17   O     O_R   0.485710 0.859364 0.963170 -0.370197
O18   O     O_3   0.218917 0.098705 0.735175 -0.615286
C27   C     C_3   0.145843 0.149593 0.613598 0.057506
H21   H     H_    0.139367 0.081740 0.532023 0.162313
H22   H     H_    0.208022 0.235084 0.583902 0.136395
C28   C     C_3   0.980046 0.182349 0.634330 -0.718192
H23   H     H_    0.981242 0.251962 0.713480 0.240829
H24   H     H_    0.919999 0.220873 0.539245 0.163500
H25   H     H_    0.914350 0.098748 0.665181 0.310884
N6    N     N_R   0.483602 0.125441 0.831830 0.202471
O19   O     O_R   0.622444 0.161321 0.805403 -0.412703
O20   O     O_R   0.453936 0.119615 0.956408 -0.378836
N7    N     N_R   0.684045 0.682764 0.138904 0.206835
O21   O     O_R   0.738163 0.674320 0.263810 -0.364330
O22   O     O_R   0.749187 0.767149 0.066952 -0.374329

loop_
_geom_bond_atom_site_label_1
_geom_bond_atom_site_label_2
_geom_bond_distance
_ccdc_geom_bond_type
C19   H5    1.085700 S    
C8    C9    1.420152 A    
C7    C14   1.503293 S    
C23   H12   1.107884 S    
C15   C18   1.401204 A    
Zn1   O7    1.987870 S    
C7    C12   1.347563 A    
N1    C16   1.408420 A    
C7    C8    1.382730 A    
C27   C28   1.522363 S    
C17   H3    1.077873 S    
O7    C4    1.296213 A    
C25   H17   1.109954 S    
C5    H1    1.088625 S    
C3    C11   1.422142 S    
C5    C6    1.330120 D    
C19   C20   1.549211 S    
C26   H19   1.099252 S    
O5    C3    1.291673 A    
C2    C5    1.411879 S    
N3    O11   1.301225 A    
N5    O16   1.302814 A    
N4    O15   1.300932 A    
C24   H14   1.106756 S    
C11   C12   1.386668 A    
C1    C8    1.437700 S    
C21   C22   1.520505 S    
C25   C26   1.516319 S    
C10   H2    1.082640 S    
C14   O18   1.428628 S    
C4    C6    1.410565 S    
C13   N5    1.460323 S    
C22   H9    1.103821 S    
O3    Zn1   2.010827 S    
C24   H13   1.110501 S    
C23   C24   1.527741 S    
O9    C21   1.412289 S    
N3    O12   1.302555 A    
C24   H15   1.109886 S    
C20   O9    1.416158 S    
C13   N4    1.469456 S    
C12   C13   1.507973 S    
C27   H22   1.108708 S    
C21   H6    1.110422 S    
N6    O20   1.297471 A    
C15   C20   1.483342 S    
C13   C14   1.560265 S    
O1    C1    1.309924 A    
C22   H10   1.109125 S    
C26   H20   1.104000 S    
C28   H23   1.110889 S    
C16   C17   1.430472 A    
C23   H11   1.111373 S    
Zn2   O8    2.010826 S    
C18   C19   1.486326 S    
C28   H24   1.109749 S    
O3    C2    1.293495 A    
O8    C4    1.286593 A    
N4    O14   1.300119 A    
N7    O22   1.300709 A    
C10   C11   1.402598 A    
Zn2   N1    2.041272 S    
C22   H8    1.108212 S    
Zn1   O5    2.016416 S    
O10   C23   1.402660 S    
Zn1   N2    2.039724 S    
O1    Zn1   2.039919 S    
O2    Zn2   2.016415 S    
C27   H21   1.112605 S    
O6    C3    1.301546 A    
O4    Zn2   1.987870 S    
C14   N6    1.467001 S    
N2    C18   1.361794 A    
O2    C1    1.289465 A    
C25   H16   1.116124 S    
O18   C27   1.413432 S    
C17   N2    1.349494 A    
O13   C25   1.413534 S    
O4    C2    1.291473 A    
C19   H4    1.107766 S    
C26   H18   1.109335 S    
C28   H25   1.110919 S    
N6    O19   1.302285 A    
C16   N7    1.451982 S    
C9    C10   1.407470 A    
C21   H7    1.113913 S    
Zn2   O6    2.039918 S    
N7    O21   1.287994 A    
C15   N1    1.359889 A    
N5    O17   1.300440 A    
C9    O13   1.385668 S    
C20   O10   1.414721 S    
C6    N3    1.436716 S    
