data_mof_unit_22652.cif
_audit_creation_date              2012-12-10T17:32:32-0500
_audit_creation_method            fapswitch 2.2
_symmetry_space_group_name_H-M    P1
_symmetry_Int_Tables_number       1
_space_group_crystal_system       triclinic
_cell_length_a                    12.098546
_cell_length_b                    13.060431
_cell_length_c                    14.125106
_cell_angle_alpha                 91.525537
_cell_angle_beta                  85.955294
_cell_angle_gamma                 92.560087
_cell_volume                      2223.54123246

loop_
_atom_site_label
_atom_site_type_symbol
_atom_type_description
_atom_site_fract_x
_atom_site_fract_y
_atom_site_fract_z
_atom_type_partial_charge
C1    C     C_R   0.521140 0.700019 0.497256 0.893264
C2    C     C_R   0.144023 0.481868 0.445215 0.543155
C3    C     C_R   0.974202 0.518723 0.543482 -0.129424
C4    C     C_R   0.026038 0.479652 0.458845 -0.163469
C5    C     C_R   0.499627 0.500332 0.670693 0.884916
C6    C     C_R   0.500516 0.500221 0.329318 0.878063
C7    C     C_1   0.499036 0.500980 0.772228 -0.133940
C8    C     C_1   0.501788 0.501301 0.227802 -0.157859
C9    C     C_1   0.499391 0.501559 0.857529 0.000462
C10   C     C_1   0.502113 0.502004 0.142494 -0.008620
C11   C     C_1   0.500425 0.502097 0.957389 0.020599
C12   C     C_R   0.478704 0.299629 0.502918 0.925407
C13   C     C_1   0.501379 0.502263 0.042643 0.018264
C14   C     C_R   0.466027 0.188154 0.507061 -0.277687
C15   C     C_R   0.532541 0.810986 0.497432 -0.286215
C16   C     C_R   0.640704 0.965349 0.529156 -0.267476
C17   C     C_R   0.352338 0.032335 0.493524 -0.283528
C18   C     C_R   0.635918 0.860829 0.511630 0.381253
C19   C     C_R   0.360367 0.138704 0.500606 0.408517
C20   C     C_R   0.437709 0.868579 0.488348 0.421977
C21   C     C_R   0.560367 0.129994 0.516836 0.396049
C22   C     C_3   0.731286 0.172154 0.444902 0.141179
C23   C     C_R   0.445910 0.974680 0.499604 -0.059108
C24   C     C_3   0.851400 0.194335 0.466694 -0.805919
C25   C     C_3   0.323516 0.810197 0.374982 0.112380
C26   C     C_3   0.202791 0.781893 0.359208 -0.843045
C27   C     C_3   0.185930 0.171120 0.566710 0.116837
C28   C     C_3   0.107677 0.258861 0.580803 -0.767141
C29   C     C_3   0.795960 0.825834 0.425214 0.119943
C30   C     C_3   0.894004 0.756452 0.417040 -0.838664
C31   C     C_3   0.191389 0.511113 0.288160 0.071132
C32   C     C_3   0.207395 0.453460 0.193526 -0.782459
C33   C     C_3   0.794332 0.644655 0.659034 0.135231
C34   C     C_R   0.548740 0.023469 0.516984 -0.070504
C35   C     C_3   0.788398 0.670383 0.764917 -0.832371
C36   C     C_R   0.959314 0.437709 0.390162 -0.327539
C37   C     C_R   0.042093 0.560430 0.612230 -0.313269
C38   C     C_R   0.844400 0.442165 0.401578 0.423185
C39   C     C_R   0.157598 0.564221 0.595724 0.446865
C40   C     C_R   0.855774 0.516672 0.556209 0.539878
Cl1   Cl    Cl    0.233829 0.635840 0.677575 -0.571335
Cl2   Cl    Cl    0.774536 0.394755 0.303815 -0.650256
H1    H     H_    0.719146 0.000719 0.547616 0.203666
H2    H     H_    0.375826 0.747920 0.344325 0.127183
H3    H     H_    0.346790 0.882364 0.336547 0.125739
H4    H     H_    0.149917 0.845945 0.384155 0.253211
H5    H     H_    0.192918 0.766696 0.282484 0.200149
H6    H     H_    0.175114 0.712311 0.399353 0.252111
H7    H     H_    0.223186 0.160051 0.635624 0.136675
H8    H     H_    0.136420 0.100791 0.547577 0.138802
H9    H     H_    0.071360 0.274032 0.512888 0.265265
H10   H     H_    0.039698 0.238746 0.634941 0.208849
H11   H     H_    0.153562 0.329004 0.605287 0.253944
H12   H     H_    0.272458 0.995410 0.481728 0.196956
H13   H     H_    0.828845 0.906790 0.422810 0.132837
H14   H     H_    0.745904 0.808895 0.362833 0.138322
H15   H     H_    0.863877 0.675052 0.416843 0.254539
H16   H     H_    0.944491 0.770980 0.349644 0.214781
H17   H     H_    0.947019 0.771610 0.477342 0.250259
H18   H     H_    0.258687 0.571197 0.292441 0.165465
H19   H     H_    0.111859 0.551058 0.288630 0.127389
H20   H     H_    0.214433 0.508493 0.134592 0.211841
H21   H     H_    0.283836 0.409328 0.191264 0.266815
H22   H     H_    0.135489 0.399304 0.183798 0.253412
H23   H     H_    0.995814 0.402569 0.325827 0.227571
H24   H     H_    0.715605 0.666823 0.632136 0.226979
H25   H     H_    0.863869 0.691798 0.624118 0.149332
H26   H     H_    0.865895 0.649668 0.795983 0.259161
H27   H     H_    0.777368 0.753823 0.776697 0.224560
H28   H     H_    0.717065 0.627512 0.801370 0.263699
H29   H     H_    0.006756 0.593035 0.677991 0.213371
H30   H     H_    0.705659 0.229152 0.395502 0.216854
H31   H     H_    0.726550 0.096470 0.406936 0.098193
H32   H     H_    0.880953 0.130773 0.507662 0.233150
H33   H     H_    0.904373 0.201807 0.399567 0.227898
H34   H     H_    0.858843 0.266433 0.509557 0.269625
N1    N     N_R   0.207800 0.519340 0.515940 -0.169119
N2    N     N_R   0.792200 0.480660 0.484060 -0.163380
O1    O     O_R   0.421690 0.658830 0.504250 -0.539536
O2    O     O_3   0.335063 0.821655 0.473595 -0.559227
O3    O     O_3   0.266965 0.194900 0.492445 -0.564172
O4    O     O_3   0.732309 0.807644 0.511476 -0.617743
O5    O     O_3   0.194981 0.441059 0.362863 -0.565313
O6    O     O_3   0.805246 0.537951 0.645091 -0.596946
O7    O     O_R   0.578310 0.341170 0.495750 -0.568907
O8    O     O_R   0.609320 0.646410 0.494030 -0.607942
O9    O     O_R   0.390680 0.353590 0.505970 -0.549065
O10   O     O_R   0.406170 0.506210 0.631400 -0.563171
O11   O     O_R   0.593830 0.493790 0.368600 -0.547502
O12   O     O_R   0.593790 0.493790 0.621170 -0.570142
O13   O     O_R   0.406210 0.506210 0.378830 -0.594089
O14   O     O_3   0.663317 0.176883 0.530687 -0.584641
Zn1   Zn    Zn3+2 0.374720 0.508290 0.506830 1.041118
Zn2   Zn    Zn3+2 0.625280 0.491710 0.493170 1.022444

loop_
_geom_bond_atom_site_label_1
_geom_bond_atom_site_label_2
_ccdc_geom_bond_type
C15   C18   A    
C4    C36   A    
C25   O2    S    
C11   C13   T    
C40   O6    S    
C39   Cl1   S    
C17   C23   A    
C12   O7    A    
C39   N1    A    
C14   C21   A    
O1    Zn1   S    
C28   H9    S    
C6    O13   A    
C30   H15   S    
O9    Zn1   S    
C31   O5    S    
O11   Zn2   S    
C31   H19   S    
O8    Zn2   S    
C18   O4    S    
C5    O10   A    
C35   H28   S    
C1    C15   S    
C5    O12   A    
C27   H8    S    
C26   H6    S    
C16   C34   A    
C2    O5    S    
C25   H2    S    
C22   H30   S    
C33   H24   S    
O12   Zn2   S    
C15   C20   A    
C20   O2    S    
C27   O3    S    
C32   H22   S    
C5    C7    S    
C36   H23   S    
C24   H34   S    
C6    C8    S    
C21   C34   A    
C29   H13   S    
C25   C26   S    
C31   H18   S    
C2    C4    A    
C29   C30   S    
O13   Zn1   S    
O7    Zn2   S    
C31   C32   S    
C20   C23   A    
C23   C34   A    
C30   H17   S    
C9    C11   S    
C16   H1    S    
C3    C37   A    
C26   H5    S    
C16   C18   A    
C12   C14   S    
C3    C40   A    
C37   H29   S    
C1    O1    A    
C22   C24   S    
C17   C19   A    
C3    C4    A    
C25   H3    S    
C33   H25   S    
C1    O8    A    
C7    C9    T    
O10   Zn1   S    
C12   O9    A    
C14   C19   A    
C32   H21   S    
C10   C13   S    
C28   H11   S    
C24   H33   S    
C38   Cl2   S    
C29   H14   S    
C6    O11   A    
C38   N2    A    
C36   C38   A    
C32   H20   S    
C29   O4    S    
C37   C39   A    
C2    N1    A    
C28   H10   S    
C24   H32   S    
C35   H26   S    
N2    Zn2   S    
C30   H16   S    
N1    Zn1   S    
C33   C35   S    
C40   N2    A    
C33   O6    S    
C26   H4    S    
C35   H27   S    
C8    C10   T    
C27   C28   S    
C22   O14   S    
C22   H31   S    
C19   O3    S    
C17   H12   S    
C27   H7    S    
C21   O14   S    
