data_mof_unit_39788.cif
_audit_creation_date              2012-10-26T20:21:42-0400
_audit_creation_method            fapswitch 2.2
_symmetry_space_group_name_H-M    P1
_symmetry_Int_Tables_number       1
_space_group_crystal_system       triclinic
_cell_length_a                    15.423863
_cell_length_b                    15.407254
_cell_length_c                    9.520367
_cell_angle_alpha                 89.986664
_cell_angle_beta                  90.725569
_cell_angle_gamma                 90.735218
_cell_volume                      2262.04640588

loop_
_atom_site_label
_atom_site_type_symbol
_atom_type_description
_atom_site_fract_x
_atom_site_fract_y
_atom_site_fract_z
_atom_type_partial_charge
C1    C     C_R   0.121800 0.384235 0.500787 0.612997
C2    C     C_R   0.013616 0.575044 0.925912 0.066758
C3    C     C_R   0.013220 0.575146 0.074579 0.064181
C4    C     C_R   0.987345 0.424688 0.925398 0.040015
C5    C     C_R   0.479754 0.926320 0.074010 0.048491
C6    C     C_R   0.521086 0.073438 0.926016 0.024897
C7    C     C_R   0.520445 0.073640 0.074698 0.024127
C8    C     C_R   0.479749 0.926345 0.925346 0.061700
C9    C     C_R   0.736015 0.328282 0.427017 0.003763
C10   C     C_R   0.260998 0.674928 0.584011 0.007214
C11   C     C_R   0.173619 0.761914 0.419497 0.009267
C12   C     C_R   0.883323 0.621398 0.498614 0.582913
C13   C     C_R   0.829411 0.236028 0.573734 0.009043
C14   C     C_R   0.216950 0.279984 0.629981 0.027940
C15   C     C_R   0.764900 0.704105 0.373732 -0.024485
C16   C     C_R   0.802589 0.738361 0.619115 0.015825
C17   C     C_R   0.230991 0.296045 0.374661 0.013013
C18   C     C_R   0.238832 0.826079 0.419552 0.004874
C19   C     C_R   0.762701 0.173398 0.579279 0.006911
C20   C     C_R   0.670220 0.264859 0.430328 0.004937
C21   C     C_R   0.327387 0.737861 0.580478 0.013078
C22   C     C_R   0.729142 0.790434 0.627705 0.027240
C23   C     C_R   0.881488 0.381078 0.499275 0.576307
C24   C     C_R   0.285446 0.224270 0.371792 -0.019878
C25   C     C_R   0.276103 0.212384 0.628180 0.025272
C26   C     C_R   0.691236 0.756224 0.383146 0.009124
C27   C     C_R   0.185198 0.686590 0.501817 -0.048597
C28   C     C_R   0.815389 0.313210 0.497333 -0.056559
C29   C     C_R   0.818147 0.690999 0.495067 -0.064701
C30   C     C_R   0.192119 0.320681 0.502443 -0.023799
C31   C     C_R   0.684800 0.186873 0.503580 -0.055189
C32   C     C_R   0.315396 0.813291 0.498656 -0.044153
C33   C     C_R   0.311136 0.183819 0.499275 -0.064548
C34   C     C_R   0.118419 0.619160 0.500560 0.598536
C35   C     C_R   0.677502 0.805219 0.505820 -0.024869
C36   C     C_2   0.718327 0.413655 0.361853 0.627908
C37   C     C_2   0.272839 0.594735 0.667787 0.644996
C38   C     C_2   0.090532 0.777003 0.342943 0.608020
C39   C     C_2   0.915194 0.219037 0.641510 0.607982
C40   C     C_2   0.185125 0.309164 0.768874 0.662032
C41   C     C_2   0.786974 0.668128 0.234019 0.658096
C42   C     C_2   0.866475 0.739115 0.737301 0.650442
C43   C     C_2   0.218493 0.346915 0.243232 0.638937
C44   C     C_2   0.223071 0.910867 0.350528 0.634332
C45   C     C_R   0.615210 0.877416 0.501464 0.606723
C46   C     C_2   0.774640 0.093338 0.662901 0.641413
C47   C     C_2   0.583819 0.283194 0.367102 0.624447
C48   C     C_2   0.411271 0.722468 0.655257 0.612798
C49   C     C_2   0.703671 0.822554 0.767992 0.664016
C50   C     C_2   0.316992 0.194635 0.233692 0.630900
C51   C     C_2   0.304743 0.177155 0.765413 0.642929
C52   C     C_2   0.624500 0.753863 0.268994 0.627225
C53   C     C_R   0.379294 0.117339 0.499525 0.595082
C54   C     C_R   0.381850 0.880757 0.499542 0.595279
C55   C     C_R   0.618457 0.119072 0.500871 0.586522
C56   C     C_R   0.987523 0.424652 0.074190 0.059558
Cu1   Cu    Cu3+1 0.000000 0.500000 0.640660 1.069660
Cu2   Cu    Cu3+1 1.000000 0.500000 0.359340 1.077446
Cu3   Cu    Cu3+1 0.500000 1.000000 0.640660 1.088916
Cu4   Cu    Cu3+1 0.500000 1.000000 0.359340 1.068528
H1    H     H_    0.977836 0.364215 0.129984 0.160262
H2    H     H_    0.281120 0.541112 0.860803 0.371229
H3    H     H_    0.960724 0.787081 0.353201 0.363104
H4    H     H_    0.981544 0.182556 0.815228 0.380458
H5    H     H_    0.182383 0.405005 0.912683 0.340475
H6    H     H_    0.752964 0.590331 0.071762 0.382360
H7    H     H_    0.985706 0.776064 0.805383 0.349281
H8    H     H_    0.232089 0.462339 0.145207 0.336301
H9    H     H_    0.194248 0.037189 0.375319 0.371445
H10   H     H_    0.780806 0.040121 0.856313 0.371219
H11   H     H_    0.456115 0.297554 0.399351 0.363467
H12   H     H_    0.025126 0.634991 0.870248 0.148008
H13   H     H_    0.473348 0.693992 0.836929 0.362496
H14   H     H_    0.734834 0.892496 0.940476 0.357232
H15   H     H_    0.314074 0.100495 0.086140 0.360934
H16   H     H_    0.388082 0.189122 0.928024 0.345530
H17   H     H_    0.595200 0.768863 0.064937 0.356014
H18   H     H_    0.023573 0.635439 0.130582 0.180132
H19   H     H_    0.977548 0.364297 0.869297 0.169872
H20   H     H_    0.463631 0.867162 0.129449 0.158593
H21   H     H_    0.537691 0.132470 0.870536 0.165619
H22   H     H_    0.536116 0.132955 0.130618 0.174610
H23   H     H_    0.463856 0.867194 0.869420 0.167702
H24   H     H_    0.654407 0.526867 0.374153 0.377145
N1    N     N_R   1.000000 0.500000 0.852070 -0.253480
N2    N     N_R   0.000000 0.500000 0.147930 -0.250778
N3    N     N_R   0.500000 1.000000 0.852070 -0.241659
N4    N     N_R   0.500000 1.000000 0.147930 -0.246367
O1    O     O_R   0.090170 0.409820 0.618740 -0.475829
O2    O     O_R   0.409830 0.090180 0.381260 -0.479096
O3    O     O_R   0.409830 0.090180 0.618740 -0.475709
O4    O     O_R   0.590170 0.909820 0.381260 -0.491727
O5    O     O_R   0.409830 0.909820 0.381260 -0.490801
O6    O     O_R   0.590170 0.090180 0.618740 -0.493610
O7    O     O_R   0.590170 0.090180 0.381260 -0.509039
O8    O     O_R   0.409830 0.909820 0.618740 -0.496878
O9    O     O_2   0.750390 0.432335 0.248931 -0.443253
O10   O     O_R   0.663058 0.471201 0.428878 -0.646823
O11   O     O_2   0.285565 0.525731 0.608627 -0.453994
O12   O     O_R   0.909830 0.590180 0.381260 -0.474890
O13   O     O_R   0.268290 0.598667 0.814149 -0.627956
O14   O     O_2   0.090586 0.793378 0.217281 -0.460790
O15   O     O_R   0.012474 0.773239 0.415511 -0.647854
O16   O     O_2   0.981616 0.227748 0.573853 -0.502335
O17   O     O_R   0.919938 0.193431 0.782182 -0.638373
O18   O     O_2   0.136988 0.262133 0.836915 -0.469178
O19   O     O_R   0.211509 0.390029 0.821301 -0.638408
O20   O     O_2   0.852219 0.694091 0.174795 -0.465647
O21   O     O_R   0.731333 0.608429 0.167389 -0.631727
O22   O     O_2   0.846580 0.709742 0.851977 -0.460720
O23   O     O_R   0.909830 0.590180 0.618740 -0.486841
O24   O     O_R   0.949242 0.774283 0.716139 -0.621716
O25   O     O_2   0.184174 0.312877 0.140371 -0.473247
O26   O     O_R   0.245163 0.433957 0.239026 -0.633128
O27   O     O_2   0.225439 0.917052 0.222609 -0.414064
O28   O     O_R   0.206319 0.983467 0.433340 -0.661240
O29   O     O_2   0.788127 0.024347 0.604188 -0.480153
O30   O     O_R   0.768773 0.097574 0.809061 -0.628508
O31   O     O_2   0.577620 0.305938 0.244344 -0.445111
O32   O     O_R   0.510090 0.277088 0.450348 -0.663405
O33   O     O_2   0.479258 0.727146 0.590947 -0.466547
O34   O     O_R   0.090170 0.409820 0.381260 -0.491836
O35   O     O_R   0.412500 0.703114 0.798664 -0.646136
O36   O     O_2   0.634560 0.798660 0.817010 -0.512064
O37   O     O_R   0.759319 0.876953 0.845531 -0.642693
O38   O     O_2   0.371710 0.237570 0.172014 -0.491066
O39   O     O_R   0.284462 0.117165 0.176262 -0.625227
O40   O     O_2   0.272759 0.109795 0.810295 -0.449106
O41   O     O_R   0.369408 0.221586 0.841005 -0.629445
O42   O     O_2   0.549451 0.734677 0.296785 -0.464436
O43   O     O_R   0.646874 0.774141 0.131178 -0.647633
O44   O     O_R   0.909830 0.409820 0.381260 -0.483274
O45   O     O_R   0.090170 0.590180 0.618740 -0.491990
O46   O     O_R   0.090170 0.590180 0.381260 -0.500400
O47   O     O_R   0.909830 0.409820 0.618740 -0.502765
O48   O     O_R   0.590170 0.909820 0.618740 -0.470365

loop_
_geom_bond_atom_site_label_1
_geom_bond_atom_site_label_2
_ccdc_geom_bond_type
C10   C27   A    
C11   C18   A    
C41   O20   D    
C12   C29   S    
C8    H23   S    
C19   C31   A    
C48   O35   S    
C25   C51   S    
Cu4   N4    S    
C19   C46   S    
C39   O16   D    
H9    O28   S    
Cu2   O46   S    
C22   C35   A    
Cu1   O1    S    
H11   O32   S    
C10   C37   S    
C51   O40   D    
C26   C52   S    
C43   O26   S    
H14   O37   S    
C34   O46   A    
Cu3   O48   S    
C46   O30   S    
C2    N1    A    
H17   O43   S    
C45   O4    A    
C42   O24   S    
C1    O34   A    
C54   O5    A    
C5    N4    A    
C44   O27   D    
Cu2   O44   S    
H13   O35   S    
C53   O3    A    
C9    C36   S    
C1    O1    A    
C13   C28   A    
C36   O9    D    
C50   O38   D    
Cu3   O6    S    
C54   O8    A    
H2    O13   S    
Cu4   O5    S    
C47   O31   D    
Cu3   Cu4   S    
C10   C21   A    
C6    H21   S    
C41   O21   S    
C4    C56   A    
C3    N2    A    
C24   C50   S    
C17   C30   A    
Cu1   O45   S    
C14   C30   A    
C55   O6    A    
C2    H12   S    
Cu2   N2    S    
C32   C54   S    
C15   C29   A    
Cu4   O4    S    
C27   C34   S    
C33   C53   S    
C21   C32   A    
Cu2   O34   S    
C17   C24   A    
C12   O12   A    
C13   C19   A    
H4    O17   S    
Cu2   O12   S    
C15   C41   S    
C4    H19   S    
H3    O15   S    
C48   O33   D    
C15   C26   A    
C4    N1    A    
C34   O45   A    
C16   C29   A    
C49   O36   D    
C51   O41   S    
C6    N3    A    
C46   O29   D    
C11   C38   S    
C17   C43   S    
C38   O15   S    
C18   C44   S    
H16   O41   S    
H7    O24   S    
C9    C20   A    
C56   N2    A    
C7    N4    A    
C11   C27   A    
Cu3   O3    S    
C23   C28   S    
C5    H20   S    
C40   O19   S    
C55   O7    A    
C47   O32   S    
C22   C49   S    
C18   C32   A    
Cu3   O8    S    
C35   C45   S    
C16   C42   S    
C37   O11   D    
C40   O18   D    
C39   O17   S    
C45   O48   A    
C16   C22   A    
C52   O43   S    
C5    C8    A    
C6    C7    A    
Cu4   O2    S    
C49   O37   S    
C24   C33   A    
C23   O47   A    
C8    N3    A    
C52   O42   D    
C21   C48   S    
C2    C3    A    
C42   O22   D    
H24   O10   S    
C38   O14   D    
C14   C25   A    
C43   O25   D    
C37   O13   S    
Cu1   Cu2   S    
Cu1   O23   S    
H10   O30   S    
C1    C30   S    
Cu1   N1    S    
C23   O44   A    
H15   O39   S    
H6    O21   S    
Cu3   N3    S    
C13   C39   S    
C20   C47   S    
C14   C40   S    
Cu4   O7    S    
C26   C35   A    
C7    H22   S    
C44   O28   S    
C25   C33   A    
C53   O2    A    
C56   H1    S    
Cu1   O47   S    
C36   O10   S    
C50   O39   S    
C31   C55   S    
C3    H18   S    
H5    O19   S    
C12   O23   A    
C9    C28   A    
H8    O26   S    
C20   C31   A    
