data_mof_unit_12024.cif
_audit_creation_date              2012-12-11T14:30:22-0500
_audit_creation_method            fapswitch 2.2
_symmetry_space_group_name_H-M    P1
_symmetry_Int_Tables_number       1
_space_group_crystal_system       triclinic
_cell_length_a                    12.612644
_cell_length_b                    12.612646
_cell_length_c                    27.072525
_cell_angle_alpha                 89.999984
_cell_angle_beta                  90.000021
_cell_angle_gamma                 120.000226
_cell_volume                      3729.67294577

loop_
_atom_site_label
_atom_site_type_symbol
_atom_type_description
_atom_site_fract_x
_atom_site_fract_y
_atom_site_fract_z
_atom_type_partial_charge
C1    C     C_R   0.556815 0.456514 0.822012 0.568604
C2    C     C_R   0.456514 0.556815 0.177988 0.568604
C3    C     C_R   0.004368 0.315746 0.474438 -0.118326
C4    C     C_R   0.311378 0.995632 0.025562 -0.118326
C5    C     C_R   0.684255 0.688622 0.474438 -0.118326
C6    C     C_R   0.315746 0.004368 0.525562 -0.118326
C7    C     C_R   0.995632 0.311378 0.974438 -0.118326
C8    C     C_R   0.688623 0.684254 0.525562 -0.118326
C9    C     C_R   0.315746 0.004368 0.974438 -0.118326
C10   C     C_R   0.995632 0.311378 0.525562 -0.118326
C11   C     C_R   0.688623 0.684254 0.974438 -0.118326
C12   C     C_2   0.023737 0.714251 0.133268 0.254663
C13   C     C_R   0.443185 0.899699 0.322012 0.568602
C14   C     C_2   0.690514 0.976261 0.366732 0.254663
C15   C     C_2   0.285747 0.309486 0.133268 0.254662
C16   C     C_2   0.023738 0.714252 0.366732 0.254663
C17   C     C_2   0.690514 0.976261 0.133268 0.254664
C18   C     C_2   0.285747 0.309486 0.366732 0.254662
C19   C     C_2   0.714251 0.023738 0.633268 0.254663
C20   C     C_2   0.976263 0.690514 0.866732 0.254663
C21   C     C_2   0.309485 0.285748 0.633268 0.254663
C22   C     C_2   0.714251 0.023737 0.866732 0.254663
C23   C     C_2   0.976263 0.690514 0.633268 0.254663
C24   C     C_R   0.100301 0.543485 0.177988 0.568604
C25   C     C_2   0.309485 0.285747 0.866732 0.254663
C26   C     C_R   0.994618 0.504349 0.974005 0.056701
C27   C     C_R   0.509731 0.005382 0.525995 0.056701
C28   C     C_R   0.495650 0.490268 0.974005 0.056701
C29   C     C_R   0.994618 0.504350 0.525995 0.056701
C30   C     C_R   0.509731 0.005381 0.974004 0.056701
C31   C     C_R   0.495650 0.490268 0.525995 0.056701
C32   C     C_R   0.504349 0.994618 0.474004 0.056701
C33   C     C_R   0.899699 0.443185 0.677988 0.568603
C34   C     C_R   0.005381 0.509731 0.025996 0.056701
C35   C     C_R   0.490269 0.495650 0.474004 0.056701
C36   C     C_R   0.504349 0.994618 0.025995 0.056701
C37   C     C_R   0.005382 0.509731 0.474004 0.056701
C38   C     C_R   0.490269 0.495650 0.025996 0.056701
C39   C     C_R   0.995467 0.697158 0.974352 -0.127090
C40   C     C_R   0.701690 0.004531 0.525648 -0.127090
C41   C     C_R   0.302841 0.298308 0.974352 -0.127091
C42   C     C_R   0.995468 0.697159 0.525648 -0.127090
C43   C     C_R   0.701690 0.004531 0.974352 -0.127091
C44   C     C_R   0.543485 0.100301 0.822012 0.568604
C45   C     C_R   0.302840 0.298309 0.525648 -0.127091
C46   C     C_R   0.697158 0.995467 0.474352 -0.127090
C47   C     C_R   0.004532 0.701690 0.025648 -0.127090
C48   C     C_R   0.298308 0.302841 0.474352 -0.127091
C49   C     C_R   0.697158 0.995466 0.025648 -0.127090
C50   C     C_R   0.004533 0.701691 0.474352 -0.127090
C51   C     C_R   0.298308 0.302841 0.025648 -0.127091
C52   C     C_R   0.974302 0.589120 0.895459 -0.006452
C53   C     C_R   0.614817 0.025698 0.604541 -0.006452
C54   C     C_R   0.410880 0.385182 0.895459 -0.006452
C55   C     C_R   0.556815 0.456514 0.677988 0.568605
C56   C     C_R   0.974303 0.589120 0.604541 -0.006452
C57   C     C_R   0.614817 0.025697 0.895459 -0.006452
C58   C     C_R   0.410880 0.385182 0.604541 -0.006452
C59   C     C_R   0.589120 0.974302 0.395460 -0.006452
C60   C     C_R   0.025697 0.614817 0.104541 -0.006452
C61   C     C_R   0.385181 0.410880 0.395459 -0.006452
C62   C     C_R   0.589120 0.974302 0.104540 -0.006452
C63   C     C_R   0.025698 0.614817 0.395459 -0.006452
C64   C     C_R   0.385182 0.410880 0.104541 -0.006452
C65   C     C_R   0.041788 0.523732 0.128783 0.013807
C66   C     C_R   0.899699 0.443185 0.822012 0.568603
C67   C     C_R   0.481944 0.958211 0.371217 0.013806
C68   C     C_R   0.476268 0.518056 0.128782 0.013806
C69   C     C_R   0.041789 0.523732 0.371217 0.013807
C70   C     C_R   0.481944 0.958211 0.128782 0.013806
C71   C     C_R   0.476268 0.518056 0.371217 0.013806
C72   C     C_R   0.523732 0.041789 0.628783 0.013806
C73   C     C_R   0.958211 0.481943 0.871217 0.013806
C74   C     C_R   0.518056 0.476268 0.628783 0.013807
C75   C     C_R   0.523732 0.041788 0.871217 0.013806
C76   C     C_R   0.958211 0.481944 0.628783 0.013806
C77   C     C_R   0.543485 0.100301 0.677988 0.568603
C78   C     C_R   0.518057 0.476268 0.871217 0.013807
C79   C     C_R   0.988654 0.598135 0.947603 -0.008510
C80   C     C_R   0.609481 0.011345 0.552398 -0.008509
C81   C     C_R   0.401864 0.390518 0.947602 -0.008510
C82   C     C_R   0.988654 0.598136 0.552397 -0.008510
C83   C     C_R   0.609481 0.011345 0.947602 -0.008510
C84   C     C_R   0.401864 0.390518 0.552397 -0.008510
C85   C     C_R   0.598135 0.988653 0.447603 -0.008509
C86   C     C_R   0.011345 0.609481 0.052398 -0.008510
C87   C     C_R   0.390518 0.401864 0.447603 -0.008510
C88   C     C_R   0.456514 0.556815 0.322012 0.568604
C89   C     C_R   0.598135 0.988653 0.052397 -0.008509
C90   C     C_R   0.011346 0.609481 0.447602 -0.008510
C91   C     C_R   0.390518 0.401864 0.052397 -0.008510
C92   C     C_R   0.974888 0.395888 0.897765 -0.137279
C93   C     C_R   0.420999 0.025112 0.602235 -0.137279
C94   C     C_R   0.604113 0.579000 0.897765 -0.137279
C95   C     C_R   0.974888 0.395888 0.602235 -0.137279
C96   C     C_R   0.420999 0.025112 0.897765 -0.137279
C97   C     C_R   0.604113 0.579000 0.602235 -0.137279
C98   C     C_R   0.395888 0.974889 0.397765 -0.137279
C99   C     C_R   0.443185 0.899699 0.177988 0.568603
C100  C     C_R   0.025111 0.420999 0.102235 -0.137279
C101  C     C_R   0.579001 0.604112 0.397765 -0.137279
C102  C     C_R   0.395888 0.974888 0.102235 -0.137279
C103  C     C_R   0.025112 0.420999 0.397765 -0.137279
C104  C     C_R   0.579001 0.604112 0.102235 -0.137279
C105  C     C_R   0.990378 0.404748 0.948564 0.008788
C106  C     C_R   0.414370 0.009622 0.551435 0.008788
C107  C     C_R   0.595253 0.585630 0.948564 0.008788
C108  C     C_R   0.990378 0.404748 0.551436 0.008788
C109  C     C_R   0.414370 0.009622 0.948564 0.008788
C110  C     C_R   0.100301 0.543485 0.322012 0.568603
C111  C     C_R   0.595253 0.585630 0.551435 0.008788
C112  C     C_R   0.404748 0.990378 0.448564 0.008788
C113  C     C_R   0.009621 0.414369 0.051436 0.008788
C114  C     C_R   0.585631 0.595252 0.448564 0.008788
C115  C     C_R   0.404748 0.990378 0.051436 0.008788
C116  C     C_R   0.009622 0.414370 0.448564 0.008788
C117  C     C_R   0.585631 0.595252 0.051436 0.008788
C118  C     C_R   0.004367 0.315745 0.025562 -0.118326
C119  C     C_R   0.311378 0.995633 0.474438 -0.118326
C120  C     C_R   0.684255 0.688622 0.025562 -0.118326
Cr1   Cr    Cr6+3 0.487630 0.241180 0.750000 1.117292
Cr2   Cr    Cr6+3 0.753550 0.512370 0.750000 1.117292
Cr3   Cr    Cr6+3 0.758820 0.246450 0.750000 1.117291
Cr4   Cr    Cr6+3 0.241180 0.487630 0.250000 1.117292
Cr5   Cr    Cr6+3 0.512370 0.753550 0.250000 1.117291
Cr6   Cr    Cr6+3 0.246450 0.758820 0.250000 1.117291
H1    H     H_    0.007019 0.779268 0.043705 0.087962
H2    H     H_    0.779268 0.007018 0.956295 0.087963
H3    H     H_    0.992981 0.772249 0.543705 0.087962
H4    H     H_    0.227750 0.220730 0.956295 0.087963
H5    H     H_    0.033457 0.349056 0.120561 0.145152
H6    H     H_    0.315600 0.966543 0.379438 0.145152
H7    H     H_    0.650944 0.684401 0.120561 0.145152
H8    H     H_    0.033457 0.349056 0.379439 0.145152
H9    H     H_    0.315599 0.966543 0.120561 0.145152
H10   H     H_    0.650944 0.684401 0.379439 0.145152
H11   H     H_    0.349056 0.033458 0.620561 0.145152
H12   H     H_    0.772248 0.992978 0.456296 0.087963
H13   H     H_    0.966542 0.315599 0.879439 0.145152
H14   H     H_    0.684402 0.650944 0.620561 0.145152
H15   H     H_    0.349056 0.033458 0.879439 0.145152
H16   H     H_    0.966543 0.315599 0.620561 0.145152
H17   H     H_    0.684401 0.650944 0.879439 0.145152
H18   H     H_    0.008355 0.242500 0.044856 0.097417
H19   H     H_    0.234146 0.991646 0.455143 0.097417
H20   H     H_    0.757501 0.765855 0.044857 0.097416
H21   H     H_    0.008355 0.242500 0.455144 0.097417
H22   H     H_    0.234145 0.991645 0.044857 0.097417
H23   H     H_    0.220730 0.227751 0.043705 0.087962
H24   H     H_    0.757501 0.765855 0.455143 0.097417
H25   H     H_    0.242501 0.008356 0.544856 0.097417
H26   H     H_    0.991644 0.234145 0.955144 0.097417
H27   H     H_    0.765856 0.757500 0.544856 0.097417
H28   H     H_    0.242500 0.008356 0.955144 0.097416
H29   H     H_    0.991645 0.234145 0.544856 0.097417
H30   H     H_    0.765856 0.757500 0.955144 0.097416
H31   H     H_    0.074329 0.808419 0.120716 0.079237
H32   H     H_    0.734088 0.925667 0.379285 0.079237
H33   H     H_    0.191579 0.265910 0.120715 0.079238
H34   H     H_    0.007021 0.779269 0.456295 0.087962
H35   H     H_    0.074331 0.808419 0.379284 0.079238
H36   H     H_    0.734088 0.925668 0.120716 0.079237
H37   H     H_    0.191579 0.265910 0.379285 0.079237
H38   H     H_    0.808419 0.074331 0.620716 0.079238
H39   H     H_    0.925671 0.734090 0.879285 0.079237
H40   H     H_    0.265909 0.191580 0.620715 0.079237
H41   H     H_    0.808419 0.074328 0.879284 0.079237
H42   H     H_    0.925671 0.734090 0.620715 0.079237
H43   H     H_    0.265909 0.191579 0.879285 0.079237
H44   H     H_    0.772248 0.992978 0.043705 0.087963
H45   H     H_    0.220729 0.227751 0.456295 0.087962
H46   H     H_    0.779268 0.007019 0.543705 0.087963
H47   H     H_    0.992979 0.772248 0.956295 0.087962
H48   H     H_    0.227750 0.220731 0.543705 0.087962
O1    O     O_R   0.460870 0.120930 0.805240 -0.512788
O2    O     O_R   0.120930 0.460870 0.194760 -0.512788
O3    O     O_R   0.539130 0.660060 0.305240 -0.512788
O4    O     O_R   0.339940 0.879070 0.194760 -0.512787
O5    O     O_R   0.498910 0.350470 0.801870 -0.463173
O6    O     O_R   0.851560 0.501090 0.698130 -0.463173
O7    O     O_R   0.649530 0.148440 0.801870 -0.463174
O8    O     O_R   0.498910 0.350470 0.698130 -0.463173
O9    O     O_R   0.851560 0.501090 0.801870 -0.463173
O10   O     O_R   0.649530 0.148440 0.698130 -0.463174
O11   O     O_R   0.350470 0.498910 0.301870 -0.463173
O12   O     O_R   0.660060 0.539130 0.694760 -0.512788
O13   O     O_R   0.501090 0.851560 0.198130 -0.463174
O14   O     O_R   0.148440 0.649530 0.301870 -0.463173
O15   O     O_R   0.350470 0.498910 0.198130 -0.463173
O16   O     O_R   0.501090 0.851560 0.301870 -0.463174
O17   O     O_R   0.148440 0.649530 0.198130 -0.463173
O18   O     O_3   0.666667 0.333333 0.750000 -0.292722
O19   O     O_3   0.333333 0.666667 0.250000 -0.292722
O20   O     O_2   0.963490 0.690862 0.171135 -0.448570
O21   O     O_2   0.727373 0.036509 0.328866 -0.448571
O22   O     O_2   0.309135 0.272627 0.171135 -0.448569
O23   O     O_R   0.879070 0.339940 0.805240 -0.512788
O24   O     O_2   0.963491 0.690863 0.328865 -0.448570
O25   O     O_2   0.727373 0.036510 0.171134 -0.448571
O26   O     O_2   0.309135 0.272627 0.328865 -0.448570
O27   O     O_2   0.690862 0.963490 0.671135 -0.448570
O28   O     O_2   0.036510 0.727372 0.828865 -0.448570
O29   O     O_2   0.272628 0.309137 0.671135 -0.448570
O30   O     O_2   0.690861 0.963490 0.828865 -0.448570
O31   O     O_2   0.036510 0.727373 0.671135 -0.448570
O32   O     O_2   0.272628 0.309136 0.828865 -0.448570
O33   O     O_R   0.460870 0.120930 0.694760 -0.512787
O34   O     O_R   0.660060 0.539130 0.805240 -0.512788
O35   O     O_R   0.879070 0.339940 0.694760 -0.512788
O36   O     O_R   0.120930 0.460870 0.305240 -0.512788
O37   O     O_R   0.539130 0.660060 0.194760 -0.512788
O38   O     O_R   0.339940 0.879070 0.305240 -0.512787

loop_
_geom_bond_atom_site_label_1
_geom_bond_atom_site_label_2
_ccdc_geom_bond_type
C36   C89   A    
C14   O21   D    
C3    H21   S    
C56   C76   A    
C5    C114  A    
C43   C83   A    
C21   O29   D    
C4    C115  A    
C10   C108  A    
C42   C82   A    
C44   O1    A    
C39   H47   S    
C22   C57   S    
C99   O13   A    
Cr5   O37   S    
C100  H5    S    
C23   C56   S    
Cr1   O5    S    
C37   C116  A    
Cr1   O1    S    
C34   C113  A    
Cr2   O6    S    
C14   C59   S    
C110  O14   A    
C2    O37   A    
Cr3   O10   S    
C37   C90   A    
C14   H32   S    
C94   H17   S    
C64   C68   A    
C103  H8    S    
C2    C68   S    
C3    C116  A    
C77   O33   A    
C76   C95   A    
C18   O26   D    
C41   H4    S    
C97   C111  A    
Cr2   O12   S    
C28   C107  A    
C101  C114  A    
C4    H22   S    
C62   C89   A    
C120  H20   S    
C19   O27   D    
C77   O10   A    
C62   C70   A    
C35   C114  A    
C34   C86   A    
C55   O12   A    
C30   C83   A    
C1    O34   A    
C102  H9    S    
C102  C115  A    
C61   C87   A    
C67   C98   A    
C51   C91   A    
C96   H15   S    
C55   C74   S    
C35   C87   A    
C26   C34   A    
C63   C69   A    
Cr4   O19   S    
C15   C64   S    
C40   C80   A    
C29   C108  A    
C17   O25   D    
Cr5   O16   S    
C16   C63   S    
C28   C38   A    
C12   H31   S    
C42   H3    S    
C52   C79   A    
C53   C72   A    
C97   H14   S    
C46   H12   S    
C46   C85   A    
C59   C67   A    
C61   C71   A    
C71   C101  A    
C23   O31   D    
C33   O6    A    
C1    C78   S    
C38   C117  A    
C7    C118  A    
C110  O36   A    
C33   O35   A    
Cr1   O18   S    
C11   C120  A    
C26   C105  A    
Cr4   O15   S    
C101  H10   S    
C50   C90   A    
C75   C96   A    
C74   C97   A    
C69   C103  A    
C9    C109  A    
C94   C107  A    
C98   C112  A    
C104  H7    S    
C30   C109  A    
C66   O23   A    
C47   C86   A    
Cr2   O34   S    
C88   O3    A    
C53   C80   A    
C25   C54   S    
C65   C100  A    
C99   O4    A    
C52   C73   A    
C17   H36   S    
C117  C120  A    
C60   C86   A    
C43   C49   A    
C27   C106  A    
C50   H34   S    
C66   C73   S    
C38   C91   A    
C21   H40   S    
C23   H42   S    
C5    H24   S    
C39   C79   A    
C43   H2    S    
C44   C75   S    
C40   C46   A    
C59   C85   A    
C15   H33   S    
C72   C77   S    
C20   H39   S    
C2    O15   A    
C58   C84   A    
C17   C62   S    
C5    C8    A    
C48   H45   S    
C18   H37   S    
C92   C105  A    
C33   C76   S    
Cr5   O19   S    
C41   C81   A    
C57   C83   A    
C6    C106  A    
C48   C87   A    
Cr2   O18   S    
C71   C88   S    
C92   H13   S    
C24   C65   S    
C42   C50   A    
C6    H25   S    
C11   H30   S    
Cr2   O9    S    
C69   C110  S    
C60   C65   A    
C27   C80   A    
C93   C106  A    
C11   C107  A    
C31   C35   A    
C8    C111  A    
C45   C84   A    
Cr1   O33   S    
C29   C37   A    
C25   O32   D    
C24   O2    A    
C6    C119  A    
C40   H46   S    
C16   O24   D    
C70   C99   S    
C58   C74   A    
C39   C47   A    
C104  C117  A    
C13   C67   S    
C45   C48   A    
C25   H43   S    
C13   O38   A    
C88   O11   A    
C32   C112  A    
C27   C32   A    
C12   O20   D    
Cr3   O23   S    
Cr3   O18   S    
C100  C113  A    
C68   C104  A    
C73   C92   A    
C49   C89   A    
C10   H29   S    
C9    H28   S    
C112  C119  A    
C70   C102  A    
C18   C61   S    
C56   C82   A    
Cr4   O2    S    
C22   O30   D    
C16   H35   S    
C119  H19   S    
C96   C109  A    
C118  H18   S    
C26   C79   A    
C30   C36   A    
Cr5   O13   S    
C57   C75   A    
C66   O9    A    
Cr6   O14   S    
C103  C116  A    
C28   C81   A    
C8    H27   S    
C29   C82   A    
C20   C52   S    
C3    C10   A    
Cr6   O38   S    
C45   H48   S    
Cr5   O3    S    
C7    H26   S    
C1    O5    A    
Cr6   O19   S    
C19   C53   S    
C49   H44   S    
Cr4   O36   S    
C47   H1    S    
C78   C94   A    
C32   C85   A    
Cr3   O35   S    
C63   C90   A    
C13   O16   A    
C72   C93   A    
C7    C105  A    
Cr6   O4    S    
C24   O17   A    
C19   H38   S    
Cr6   O17   S    
C55   O8    A    
C93   H11   S    
C95   C108  A    
C31   C84   A    
C20   O28   D    
C113  C118  A    
C12   C60   S    
C15   O22   D    
C21   C58   S    
C51   H23   S    
C95   H16   S    
Cr3   O7    S    
C98   H6    S    
C31   C111  A    
Cr4   O11   S    
C64   C91   A    
C4    C9    A    
C36   C115  A    
C44   O7    A    
C41   C51   A    
C54   C81   A    
Cr1   O8    S    
C54   C78   A    
C22   H41   S    
