data_mof_unit_64446.cif
_audit_creation_date              2012-10-26T19:44:28-0400
_audit_creation_method            fapswitch 2.2
_symmetry_space_group_name_H-M    P1
_symmetry_Int_Tables_number       1
_space_group_crystal_system       triclinic
_cell_length_a                    10.752838
_cell_length_b                    11.729062
_cell_length_c                    10.473262
_cell_angle_alpha                 90.000901
_cell_angle_beta                  89.999971
_cell_angle_gamma                 89.999923
_cell_volume                      1320.89517203

loop_
_atom_site_label
_atom_site_type_symbol
_atom_type_description
_atom_site_fract_x
_atom_site_fract_y
_atom_site_fract_z
_atom_type_partial_charge
C1    C     C_R   0.500000 0.283341 0.500001 0.545191
C2    C     C_R   0.500000 0.716669 0.500002 0.545260
C3    C     C_1   0.500000 0.161960 0.500006 -0.027018
C4    C     C_3   0.071766 0.392632 0.569001 -0.234892
C5    C     C_3   0.071217 0.499133 0.360004 -0.231244
C6    C     C_3   0.928234 0.392650 0.569031 -0.234884
C7    C     C_3   0.928783 0.499101 0.360006 -0.231251
C8    C     C_1   0.500000 0.059741 0.500010 -0.043232
C9    C     C_3   0.071767 0.607913 0.567540 -0.234901
C10   C     C_3   0.928232 0.607928 0.567506 -0.234920
C11   C     C_3   0.121518 0.499902 0.499128 0.044032
C12   C     C_3   0.878482 0.499902 0.499128 0.044019
C13   C     C_1   0.500000 0.838050 0.500007 -0.027002
C14   C     C_1   0.500000 0.940269 0.500011 -0.043229
C15   C     C_R   0.259111 0.499927 0.499809 0.540912
C16   C     C_R   0.740889 0.499927 0.499809 0.540911
C17   C     C_1   0.500000 0.499989 0.072077 0.092366
C18   C     C_1   0.500000 0.499989 0.927924 0.092841
Cu1   Cu    Cu3+1 0.500000 0.500000 0.625300 0.972878
Cu2   Cu    Cu3+1 0.500000 0.500000 0.374700 0.971921
H1    H     H_    0.106502 0.314147 0.521018 0.112199
H2    H     H_    0.106535 0.685874 0.518518 0.112242
H3    H     H_    0.893951 0.610787 0.667749 0.132407
H4    H     H_    0.893507 0.685869 0.518422 0.112256
H5    H     H_    0.105324 0.422220 0.308381 0.130963
H6    H     H_    0.893456 0.314155 0.521110 0.112193
H7    H     H_    0.894715 0.422153 0.308430 0.130955
H8    H     H_    0.106025 0.390890 0.669289 0.132638
H9    H     H_    0.105267 0.575492 0.307324 0.131281
H10   H     H_    0.894017 0.390965 0.669332 0.132654
H11   H     H_    0.894695 0.575419 0.307284 0.131296
H12   H     H_    0.106006 0.610718 0.667804 0.132417
N1    N     N_1   0.500000 0.499990 0.186410 -0.193761
N2    N     N_1   0.500000 0.499990 0.813590 -0.193405
O1    O     O_R   0.500000 0.337200 0.605810 -0.488839
O2    O     O_R   0.500000 0.337200 0.394190 -0.488517
O3    O     O_R   0.317690 0.499990 0.605810 -0.501540
O4    O     O_R   0.317690 0.499990 0.394190 -0.503178
O5    O     O_R   0.682310 0.499990 0.605810 -0.501539
O6    O     O_R   0.682310 0.499990 0.394190 -0.503177
O7    O     O_R   0.500000 0.662810 0.605810 -0.488816
O8    O     O_R   0.500000 0.662810 0.394190 -0.488488

loop_
_geom_bond_atom_site_label_1
_geom_bond_atom_site_label_2
_ccdc_geom_bond_type
Cu2   O8    S    
C15   O4    A    
C10   H3    S    
Cu2   O4    S    
C9    C10   S    
Cu1   Cu2   S    
C17   C18   S    
C2    O7    A    
Cu1   O1    S    
C13   C14   T    
C4    C11   S    
C4    H1    S    
C9    C11   S    
C6    H6    S    
C17   N1    T    
C16   O6    A    
C5    H5    S    
Cu2   N1    S    
Cu1   O5    S    
C6    H10   S    
C2    O8    A    
C5    C11   S    
C5    H9    S    
C18   N2    T    
C6    C12   S    
C7    C12   S    
Cu2   O6    S    
C9    H2    S    
C7    H11   S    
C16   O5    A    
Cu2   O2    S    
C12   C16   S    
C7    H7    S    
C1    O1    A    
C4    C6    S    
C3    C8    T    
C4    H8    S    
C5    C7    S    
C2    C13   S    
C15   O3    A    
C8    C14   S    
Cu1   O3    S    
C9    H12   S    
C10   H4    S    
C10   C12   S    
C11   C15   S    
Cu1   O7    S    
C1    O2    A    
C1    C3    S    
Cu1   N2    S    
