data_mof_unit_55320.cif
_audit_creation_date              2012-12-10T17:41:00-0500
_audit_creation_method            fapswitch 2.2
_symmetry_space_group_name_H-M    P1
_symmetry_Int_Tables_number       1
_space_group_crystal_system       triclinic
_cell_length_a                    15.377643
_cell_length_b                    15.207617
_cell_length_c                    9.99768
_cell_angle_alpha                 89.847607
_cell_angle_beta                  91.664541
_cell_angle_gamma                 89.957202
_cell_volume                      2337.03485873

loop_
_atom_site_label
_atom_site_type_symbol
_atom_type_description
_atom_site_fract_x
_atom_site_fract_y
_atom_site_fract_z
_atom_type_partial_charge
C1    C     C_R   0.385488 0.874369 0.500468 0.867979
C2    C     C_R   0.724542 0.207488 0.384807 -0.279385
C3    C     C_R   0.228550 0.295715 0.389795 -0.302586
C4    C     C_R   0.215889 0.716880 0.383463 -0.306730
C5    C     C_R   0.673619 0.800041 0.502547 -0.200196
C6    C     C_R   0.677379 0.195503 0.500371 -0.191343
C7    C     C_R   0.183275 0.308621 0.507242 -0.196430
C8    C     C_R   0.172812 0.700222 0.501282 -0.195724
C9    C     C_R   0.342689 0.995535 0.133360 -0.242677
C10   C     C_R   0.842673 0.506059 0.133345 -0.238504
C11   C     C_R   0.262911 0.991011 0.062780 0.493912
C12   C     C_R   0.387745 0.126899 0.500619 0.876525
C13   C     C_R   0.762713 0.509130 0.062821 0.517806
C14   C     C_R   0.262802 0.994404 0.924015 -0.260073
C15   C     C_R   0.762681 0.508839 0.924026 -0.231331
C16   C     C_R   0.340624 0.997221 0.856391 -0.227829
C17   C     C_R   0.840603 0.506785 0.856388 -0.251666
C18   C     C_R   0.421853 0.997220 0.925279 0.150057
C19   C     C_R   0.921893 0.505470 0.925208 0.143033
C20   C     C_R   0.422251 0.996650 0.068908 0.068691
C21   C     C_R   0.922286 0.505432 0.068883 0.071377
C22   C     C_R   0.575420 0.006476 0.071231 0.043149
C23   C     C_R   0.885184 0.374919 0.500483 0.881477
C24   C     C_R   0.074408 0.488105 0.071895 0.062014
C25   C     C_R   0.614999 0.124468 0.500516 0.918459
C26   C     C_R   0.613466 0.873976 0.501052 0.928431
C27   C     C_R   0.113232 0.626060 0.500658 0.924515
C28   C     C_R   0.116569 0.376325 0.501987 0.910693
C29   C     C_R   0.574111 0.005177 0.929368 -0.244675
C30   C     C_R   0.073486 0.488396 0.929932 -0.205731
C31   C     C_R   0.343538 0.221474 0.754421 -0.229790
C32   C     C_R   0.323508 0.790620 0.755176 -0.234026
C33   C     C_R   0.829296 0.713916 0.753933 -0.233116
C34   C     C_R   0.885954 0.625914 0.500252 0.863835
C35   C     C_R   0.818742 0.296469 0.755732 -0.241039
C36   C     C_R   0.302915 0.235123 0.874560 -0.222215
C37   C     C_R   0.275013 0.785322 0.869869 -0.221469
C38   C     C_R   0.783455 0.722039 0.870854 -0.222667
C39   C     C_R   0.765609 0.299185 0.865422 -0.216312
C40   C     C_R   0.695054 0.741621 0.866269 0.557893
C41   C     C_R   0.677524 0.280442 0.851168 0.556233
C42   C     C_R   0.215707 0.258382 0.874015 0.515562
C43   C     C_R   0.186996 0.764701 0.862034 0.558786
C44   C     C_R   0.654933 0.760880 0.740260 -0.288386
C45   C     C_R   0.303606 0.246211 0.390069 0.477053
C46   C     C_R   0.644962 0.249499 0.726524 -0.298937
C47   C     C_R   0.171609 0.276779 0.752567 -0.281649
C48   C     C_R   0.149658 0.742545 0.735687 -0.288840
C49   C     C_R   0.703844 0.761342 0.623317 0.052303
C50   C     C_R   0.700750 0.240899 0.617952 0.052984
C51   C     C_R   0.215406 0.271894 0.629941 0.048401
C52   C     C_R   0.200917 0.740487 0.621314 0.052924
C53   C     C_R   0.297229 0.230927 0.630807 0.056675
C54   C     C_R   0.283680 0.778732 0.627267 0.059036
C55   C     C_R   0.786815 0.723486 0.627468 0.059778
C56   C     C_R   0.293405 0.762654 0.385521 0.437052
C57   C     C_R   0.782989 0.279779 0.626412 0.054286
C58   C     C_R   0.331339 0.203944 0.507267 -0.245613
C59   C     C_R   0.323507 0.801471 0.505122 -0.231448
C60   C     C_R   0.824719 0.699360 0.504786 -0.233539
C61   C     C_R   0.824261 0.301632 0.504961 -0.245329
C62   C     C_3   0.405286 0.336075 0.303514 0.094209
C63   C     C_3   0.404165 0.387615 0.172779 -0.830853
C64   C     C_3   0.374098 0.671611 0.256920 0.095796
C65   C     C_3   0.356998 0.642094 0.113204 -0.823429
C66   C     C_3   0.876219 0.832098 0.266438 0.098772
C67   C     C_R   0.793439 0.737398 0.385250 0.440879
C68   C     C_3   0.860025 0.868338 0.125800 -0.819819
C69   C     C_3   0.887701 0.193394 0.241740 0.098936
C70   C     C_3   0.889113 0.179271 0.091601 -0.860714
C71   C     C_3   0.566772 0.769209 0.981308 0.009888
C72   C     C_3   0.538996 0.788957 0.121409 -0.764394
C73   C     C_3   0.554762 0.242296 0.970052 0.021116
C74   C     C_3   0.543521 0.222310 0.116433 -0.739209
C75   C     C_3   0.119283 0.196609 0.013083 0.092201
C76   C     C_3   0.112486 0.180707 0.162027 -0.744354
C77   C     C_3   0.060213 0.728465 0.974803 0.010758
C78   C     C_R   0.796839 0.260968 0.385257 0.474374
C79   C     C_3   0.033651 0.709150 0.115879 -0.761062
C80   C     C_2   0.663644 0.020213 0.131625 0.369165
C81   C     C_2   0.160044 0.470364 0.135688 0.393255
C82   C     C_3   0.178044 0.933077 0.229070 0.154096
C83   C     C_3   0.090171 0.942114 0.292503 -0.918017
C84   C     C_3   0.676980 0.559486 0.232583 0.143078
C85   C     C_3   0.585865 0.554395 0.285474 -0.888587
C86   C     C_R   0.715758 0.782855 0.384012 -0.302910
H1    H     H_    0.201634 0.994731 0.867505 0.163644
H2    H     H_    0.887399 0.307393 0.774647 0.186764
H3    H     H_    0.338300 0.224301 0.968299 0.175730
H4    H     H_    0.305669 0.800355 0.965889 0.180788
H5    H     H_    0.816519 0.709919 0.966184 0.180261
H6    H     H_    0.792419 0.319563 0.961668 0.202041
H7    H     H_    0.585935 0.773358 0.730657 0.131335
H8    H     H_    0.576307 0.235955 0.711916 0.132287
H9    H     H_    0.103399 0.292920 0.756975 0.167516
H10   H     H_    0.080869 0.729195 0.724139 0.129593
H11   H     H_    0.695542 0.813639 0.290908 0.232421
H12   H     H_    0.701494 0.507579 0.867584 0.183321
H13   H     H_    0.708175 0.172861 0.293497 0.195199
H14   H     H_    0.210566 0.329649 0.298024 0.221166
H15   H     H_    0.195610 0.686540 0.290169 0.230534
H16   H     H_    0.341113 0.002097 0.238118 0.214246
H17   H     H_    0.841218 0.498884 0.238068 0.216112
H18   H     H_    0.472787 0.320739 0.337528 0.139204
H19   H     H_    0.379994 0.381118 0.381829 0.135739
H20   H     H_    0.343791 0.426893 0.163881 0.245840
H21   H     H_    0.460582 0.432637 0.170614 0.233180
H22   H     H_    0.406458 0.343207 0.085655 0.269576
H23   H     H_    0.334095 0.999879 0.750342 0.240426
H24   H     H_    0.345123 0.621029 0.323601 0.160954
H25   H     H_    0.444070 0.669579 0.282090 0.145286
H26   H     H_    0.391945 0.684438 0.042785 0.237571
H27   H     H_    0.380360 0.573833 0.100364 0.215144
H28   H     H_    0.286194 0.644490 0.088403 0.281102
H29   H     H_    0.946092 0.832197 0.292656 0.142444
H30   H     H_    0.847431 0.880022 0.337396 0.155456
H31   H     H_    0.789877 0.863406 0.097453 0.283433
H32   H     H_    0.879619 0.938558 0.122128 0.210487
H33   H     H_    0.898310 0.831527 0.052694 0.239548
H34   H     H_    0.834009 0.502404 0.750489 0.244297
H35   H     H_    0.860328 0.132333 0.286378 0.132174
H36   H     H_    0.954615 0.200752 0.283585 0.144207
H37   H     H_    0.917167 0.237846 0.042670 0.255876
H38   H     H_    0.928218 0.120175 0.068428 0.208497
H39   H     H_    0.821835 0.168823 0.051898 0.252125
H40   H     H_    0.525722 0.715714 0.937902 0.153218
H41   H     H_    0.557560 0.830869 0.923257 0.164591
H42   H     H_    0.577779 0.844313 0.160521 0.278927
H43   H     H_    0.469430 0.807827 0.121053 0.251995
H44   H     H_    0.552669 0.731703 0.186800 0.249213
H45   H     H_    0.634183 0.009340 0.875676 0.159663
H46   H     H_    0.562030 0.178247 0.918600 0.142278
H47   H     H_    0.496237 0.276671 0.929132 0.153496
H48   H     H_    0.553417 0.283207 0.174717 0.280333
H49   H     H_    0.478699 0.192890 0.132636 0.252453
H50   H     H_    0.594199 0.176013 0.150946 0.229622
H51   H     H_    0.142144 0.134262 0.967252 0.167409
H52   H     H_    0.054321 0.212747 0.968756 0.133456
H53   H     H_    0.088056 0.240931 0.210805 0.236858
H54   H     H_    0.067872 0.125078 0.179941 0.225500
H55   H     H_    0.177487 0.163746 0.205815 0.282134
H56   H     H_    0.133442 0.479913 0.877111 0.159504
H57   H     H_    0.060270 0.664750 0.921036 0.163426
H58   H     H_    0.012711 0.774484 0.926432 0.147798
H59   H     H_    0.044649 0.767919 0.178596 0.255589
H60   H     H_    0.964677 0.688188 0.116553 0.250477
H61   H     H_    0.075117 0.656060 0.157331 0.274112
H62   H     H_    0.711387 0.055584 0.074514 0.031147
H63   H     H_    0.201891 0.422179 0.090720 0.094211
H64   H     H_    0.227139 0.943230 0.310900 0.131563
H65   H     H_    0.184436 0.865546 0.188242 0.213248
H66   H     H_    0.037970 0.939394 0.213679 0.269448
H67   H     H_    0.412053 0.205962 0.759651 0.166208
H68   H     H_    0.081693 0.888313 0.366302 0.210696
H69   H     H_    0.086086 0.006026 0.345467 0.249592
H70   H     H_    0.689218 0.628021 0.198527 0.195632
H71   H     H_    0.721722 0.542593 0.317900 0.129374
H72   H     H_    0.574183 0.488066 0.328112 0.256730
H73   H     H_    0.578030 0.604198 0.365294 0.203497
H74   H     H_    0.538210 0.566889 0.202278 0.263223
H75   H     H_    0.392477 0.802071 0.769414 0.174348
H76   H     H_    0.898446 0.702208 0.764811 0.170110
N1    N     N_R   0.498810 0.000000 0.142780 -0.126960
N2    N     N_R   0.998810 0.500000 0.142780 -0.127373
N3    N     N_R   0.498740 0.000000 0.857170 -0.128410
N4    N     N_R   0.998740 0.500000 0.857170 -0.128909
O1    O     O_R   0.408390 0.908380 0.614690 -0.656278
O2    O     O_R   0.591620 0.908390 0.614640 -0.627159
O3    O     O_R   0.091620 0.591610 0.614640 -0.628286
O4    O     O_R   0.091620 0.408390 0.614640 -0.627908
O5    O     O_R   0.591610 0.091610 0.385310 -0.585494
O6    O     O_R   0.591610 0.908390 0.385310 -0.567911
O7    O     O_R   0.091610 0.591610 0.385310 -0.570979
O8    O     O_R   0.091610 0.408390 0.385310 -0.589217
O9    O     O_3   0.358933 0.255804 0.285283 -0.607350
O10   O     O_3   0.344561 0.759495 0.274345 -0.618080
O11   O     O_3   0.845409 0.744011 0.275362 -0.615866
O12   O     O_R   0.408390 0.091620 0.614690 -0.654031
O13   O     O_3   0.841133 0.271491 0.268139 -0.582906
O14   O     O_3   0.654428 0.742622 0.988682 -0.628844
O15   O     O_3   0.626860 0.298687 0.959854 -0.588890
O16   O     O_3   0.175689 0.268186 0.994246 -0.646904
O17   O     O_3   0.143130 0.767520 0.981430 -0.631519
O18   O     O_2   0.687241 0.989702 0.238779 -0.558130
O19   O     O_2   0.188550 0.513060 0.229624 -0.582760
O20   O     O_3   0.183900 0.996137 0.125705 -0.635390
O21   O     O_3   0.683919 0.499578 0.125542 -0.580560
O22   O     O_R   0.908390 0.408380 0.614690 -0.655975
O23   O     O_R   0.908390 0.591620 0.614690 -0.655989
O24   O     O_R   0.408370 0.908380 0.385360 -0.606320
O25   O     O_R   0.408370 0.091620 0.385360 -0.608840
O26   O     O_R   0.908370 0.408380 0.385360 -0.590456
O27   O     O_R   0.908370 0.591620 0.385360 -0.612247
O28   O     O_R   0.591620 0.091610 0.614640 -0.628549
Zn1   Zn    Zn3+2 0.500010 0.000000 0.653130 0.905701
Zn2   Zn    Zn3+2 0.000010 0.500000 0.653130 0.910403
Zn3   Zn    Zn3+2 0.499980 0.000000 0.346870 0.972388
Zn4   Zn    Zn3+2 0.999980 0.500000 0.346870 0.984552

loop_
_geom_bond_atom_site_label_1
_geom_bond_atom_site_label_2
_ccdc_geom_bond_type
C36   H3    S    
C33   C55   A    
C66   C68   S    
C75   C76   S    
C13   O21   S    
C22   C29   A    
C11   O20   S    
C84   H70   S    
C65   H28   S    
C36   C42   A    
C4    C8    A    
C5    C49   A    
C27   O7    A    
C72   H43   S    
C39   C41   A    
C62   H19   S    
C2    C6    A    
C42   O16   S    
C26   O2    A    
C69   H35   S    
C66   H30   S    
C37   H4    S    
C82   O20   S    
C83   H68   S    
C10   H17   S    
C19   C21   A    
N4    Zn2   S    
C14   H1    S    
C48   C52   A    
C3    C7    A    
C1    C59   S    
C68   H33   S    
C23   O22   A    
C11   C14   A    
C6    C25   S    
C83   H69   S    
C1    O1    A    
C1    O24   A    
O27   Zn4   S    
C73   C74   S    
C29   N3    A    
C86   H11   S    
C44   H7    S    
C17   H34   S    
C68   H32   S    
C40   O14   S    
C70   H37   S    
C60   C67   A    
C52   C54   A    
C9    H16   S    
O2    Zn1   S    
C74   H50   S    
C41   C46   A    
C71   H40   S    
C19   N4    A    
O26   Zn4   S    
C64   O10   S    
C43   C48   A    
C8    C52   A    
C82   H65   S    
C12   C58   S    
C76   H55   S    
C25   O5    A    
C77   C79   S    
O28   Zn1   S    
C73   H46   S    
C26   O6    A    
C21   N2    A    
C55   C60   A    
C74   H49   S    
C34   C60   S    
C41   O15   S    
C24   N2    A    
O1    Zn1   S    
N3    Zn1   S    
C32   C54   A    
C23   O26   A    
C31   H67   S    
C18   N3    A    
N2    Zn4   S    
C16   H23   S    
O3    Zn2   S    
C62   H18   S    
C54   C59   A    
C76   H54   S    
C10   C21   A    
C66   O11   S    
C45   C58   A    
O8    Zn4   S    
C66   H29   S    
C78   O13   S    
C79   H60   S    
C84   C85   S    
C30   N4    A    
C79   H59   S    
C67   O11   S    
C81   O19   D    
C64   H25   S    
C47   C51   A    
C71   H41   S    
C49   C55   A    
C20   N1    A    
C38   H5    S    
C3    C45   A    
C44   C49   A    
C6    C50   A    
C7    C28   S    
C51   C53   A    
C71   O14   S    
C37   C43   A    
C35   C39   A    
C24   C81   S    
C77   H57   S    
C65   H26   S    
C62   C63   S    
C2    C78   A    
C68   H31   S    
C73   O15   S    
C35   H2    S    
C9    C20   A    
C64   H24   S    
C46   H8    S    
C80   H62   S    
C61   C78   A    
C53   C58   A    
C32   H75   S    
O6    Zn3   S    
C32   C37   A    
C31   C53   A    
C63   H20   S    
C72   H44   S    
C9    C11   A    
O22   Zn2   S    
C82   H64   S    
C4    H15   S    
C5    C86   A    
C70   H39   S    
C28   O4    A    
C85   H74   S    
C72   H42   S    
C2    H13   S    
C13   C15   A    
C75   H51   S    
C14   C16   A    
C85   H72   S    
C15   H12   S    
C63   H21   S    
C39   H6    S    
C34   O27   A    
C3    H14   S    
C83   H66   S    
C76   H53   S    
C15   C17   A    
C12   O25   A    
C27   O3    A    
C67   C86   A    
C48   H10   S    
O7    Zn4   S    
C50   C57   A    
C65   H27   S    
C34   O23   A    
O25   Zn3   S    
C73   H47   S    
C10   C13   A    
C79   H61   S    
C84   H71   S    
C57   C61   A    
C56   O10   S    
O12   Zn1   S    
C46   C50   A    
C33   C38   A    
C30   H56   S    
C56   C59   A    
C35   C57   A    
C64   C65   S    
C45   O9    S    
C33   H76   S    
C77   H58   S    
C22   C80   S    
C71   C72   S    
O5    Zn3   S    
C69   O13   S    
C38   C40   A    
C22   N1    A    
O4    Zn2   S    
O23   Zn2   S    
C28   O8    A    
C29   H45   S    
C69   H36   S    
C81   H63   S    
C62   O9    S    
C74   H48   S    
C43   O17   S    
C17   C19   A    
C18   C20   A    
C42   C47   A    
C80   O18   D    
C69   C70   S    
C24   C30   A    
C12   O12   A    
C7    C51   A    
C5    C26   S    
C75   H52   S    
C70   H38   S    
C40   C44   A    
N1    Zn3   S    
C16   C18   A    
C82   C83   S    
C8    C27   S    
C47   H9    S    
C31   C36   A    
C23   C61   S    
C84   O21   S    
C85   H73   S    
C63   H22   S    
C75   O16   S    
C4    C56   A    
C25   O28   A    
C77   O17   S    
O24   Zn3   S    
