data_mof_unit_64664.cif
_audit_creation_date              2012-12-11T20:50:55-0500
_audit_creation_method            fapswitch 2.2
_symmetry_space_group_name_H-M    P1
_symmetry_Int_Tables_number       1
_space_group_crystal_system       triclinic
_cell_length_a                    30.358532
_cell_length_b                    35.300917
_cell_length_c                    8.240526
_cell_angle_alpha                 89.962961
_cell_angle_beta                  90.079669
_cell_angle_gamma                 89.994803
_cell_volume                      8831.22959746

loop_
_atom_site_label
_atom_site_type_symbol
_atom_type_description
_atom_site_fract_x
_atom_site_fract_y
_atom_site_fract_z
_atom_type_partial_charge
Ba1   Ba    Ba6+2 0.999930 0.472870 0.844940 1.651162
Ba2   Ba    Ba6+2 0.999930 0.527130 0.344940 1.654606
Ba3   Ba    Ba6+2 0.499930 0.972870 0.844940 1.651162
Ba4   Ba    Ba6+2 0.499930 0.027130 0.344940 1.654606
C1    C     C_3   0.036020 0.292464 0.607668 -0.336149
C2    C     C_3   0.036047 0.707551 0.107603 -0.338049
C3    C     C_3   0.536020 0.792464 0.607668 -0.336149
C4    C     C_3   0.536047 0.207551 0.107603 -0.338049
C5    C     C_R   0.228016 0.702958 0.195666 -0.022199
C6    C     C_R   0.228021 0.297037 0.695664 -0.019416
C7    C     C_R   0.728016 0.202958 0.195666 -0.022199
C8    C     C_R   0.728021 0.797037 0.695664 -0.019416
C9    C     C_R   0.196934 0.674485 0.150099 0.602507
C10   C     C_R   0.196943 0.325504 0.650041 0.594737
C11   C     C_R   0.696934 0.174485 0.150099 0.602507
C12   C     C_R   0.696943 0.825504 0.650041 0.594737
C13   C     C_R   0.176142 0.710775 0.917458 0.585041
C14   C     C_R   0.176145 0.289230 0.417482 0.583557
C15   C     C_R   0.676142 0.210775 0.917458 0.585041
C16   C     C_R   0.676145 0.789230 0.417482 0.583557
C17   C     C_R   0.206863 0.738991 0.959843 -0.019671
C18   C     C_R   0.206868 0.261006 0.459856 -0.019986
C19   C     C_R   0.706863 0.238991 0.959843 -0.019671
C20   C     C_R   0.706868 0.761007 0.459856 -0.019986
C21   C     C_R   0.232924 0.735474 0.099691 -0.056156
C22   C     C_R   0.232924 0.264531 0.599710 -0.056649
C23   C     C_R   0.732924 0.235474 0.099691 -0.056156
C24   C     C_R   0.732924 0.764531 0.599710 -0.056649
C25   C     C_R   0.254588 0.699871 0.336132 -0.063550
C26   C     C_R   0.254601 0.300125 0.836134 -0.068863
C27   C     C_R   0.754588 0.199871 0.336132 -0.063550
C28   C     C_R   0.754601 0.800125 0.836134 -0.068863
C29   C     C_R   0.784501 0.228299 0.378937 -0.071550
C30   C     C_R   0.784508 0.771698 0.878938 -0.073042
C31   C     C_R   0.284501 0.728299 0.378937 -0.071550
C32   C     C_R   0.284508 0.271698 0.878938 -0.073042
C33   C     C_R   0.789622 0.261008 0.283425 -0.021866
C34   C     C_R   0.789618 0.738996 0.783413 -0.020577
C35   C     C_R   0.289622 0.761008 0.283425 -0.021866
C36   C     C_R   0.289618 0.238996 0.783413 -0.020577
C37   C     C_R   0.763532 0.264419 0.143837 -0.056802
C38   C     C_R   0.763532 0.735578 0.643822 -0.057708
C39   C     C_R   0.263532 0.764419 0.143837 -0.056802
C40   C     C_R   0.263532 0.235578 0.643822 -0.057708
C41   C     C_R   0.211919 0.771623 0.864429 -0.074507
C42   C     C_R   0.211912 0.228382 0.364431 -0.074415
C43   C     C_R   0.711919 0.271623 0.864429 -0.074507
C44   C     C_R   0.711912 0.728382 0.364431 -0.074415
C45   C     C_3   0.983034 0.332564 0.097202 0.370191
C46   C     C_3   0.983048 0.667430 0.597257 0.370722
C47   C     C_3   0.483034 0.832565 0.097202 0.370191
C48   C     C_3   0.483048 0.167430 0.597257 0.370722
C49   C     C_R   0.741792 0.299964 0.907405 -0.063392
C50   C     C_R   0.741782 0.700043 0.407406 -0.063255
C51   C     C_R   0.241792 0.799964 0.907405 -0.063392
C52   C     C_R   0.241782 0.200043 0.407406 -0.063255
C53   C     C_R   0.768425 0.296879 0.048029 -0.018617
C54   C     C_R   0.768423 0.703128 0.548039 -0.018767
C55   C     C_R   0.268425 0.796879 0.048029 -0.018617
C56   C     C_R   0.268423 0.203127 0.548039 -0.018767
C57   C     C_R   0.799288 0.325483 0.092956 0.597648
C58   C     C_R   0.799287 0.674532 0.593019 0.597213
C59   C     C_R   0.299288 0.825483 0.092956 0.597648
C60   C     C_R   0.299287 0.174532 0.593019 0.597213
C61   C     C_R   0.820418 0.289446 0.325696 0.584421
C62   C     C_R   0.820417 0.710550 0.825681 0.583621
C63   C     C_R   0.320418 0.789446 0.325696 0.584421
C64   C     C_R   0.320417 0.210550 0.825681 0.583621
C65   C     C_2   0.113132 0.649071 0.810170 -0.137356
C66   C     C_2   0.113158 0.350933 0.310257 -0.138949
C67   C     C_2   0.613132 0.149071 0.810170 -0.137356
C68   C     C_2   0.613158 0.850933 0.310257 -0.138949
C69   C     C_3   0.078803 0.623085 0.768811 -0.068379
C70   C     C_3   0.078805 0.376902 0.268788 -0.068557
C71   C     C_3   0.578803 0.123085 0.768811 -0.068379
C72   C     C_3   0.578805 0.876902 0.268788 -0.068557
C73   C     C_1   0.097105 0.585454 0.002270 0.032022
C74   C     C_1   0.097197 0.414614 0.501729 0.036627
C75   C     C_1   0.597105 0.085454 0.002270 0.032022
C76   C     C_1   0.597197 0.914614 0.501729 0.036627
C77   C     C_2   0.127838 0.611454 0.057702 -0.090274
C78   C     C_2   0.127970 0.388638 0.557298 -0.105176
C79   C     C_2   0.627838 0.111454 0.057702 -0.090274
C80   C     C_2   0.627970 0.888638 0.557298 -0.105176
C81   C     C_2   0.137948 0.647222 0.961311 0.188626
C82   C     C_2   0.137988 0.352784 0.461295 0.189117
C83   C     C_2   0.637948 0.147222 0.961311 0.188626
C84   C     C_2   0.637988 0.852784 0.461295 0.189117
C85   C     C_R   0.882911 0.352274 0.417200 -0.144855
C86   C     C_R   0.882906 0.647721 0.917151 -0.144906
C87   C     C_R   0.382910 0.852274 0.417200 -0.144855
C88   C     C_R   0.382906 0.147721 0.917151 -0.144906
C89   C     C_3   0.963767 0.292922 0.081771 -0.335351
C90   C     C_3   0.963794 0.707065 0.581709 -0.336515
C91   C     C_3   0.463767 0.792922 0.081771 -0.335351
C92   C     C_3   0.463794 0.207065 0.581709 -0.336515
C93   C     C_R   0.916101 0.380529 0.460577 -0.034671
C94   C     C_R   0.916089 0.619477 0.960587 -0.034705
C95   C     C_R   0.416101 0.880529 0.460577 -0.034671
C96   C     C_R   0.416089 0.119477 0.960587 -0.034705
C97   C     C_R   0.901725 0.414929 0.210035 0.013157
C98   C     C_R   0.901712 0.585091 0.710057 0.012628
C99   C     C_R   0.401725 0.914929 0.210035 0.013157
C100  C     C_R   0.401712 0.085091 0.710057 0.012628
C101  C     C_R   0.867430 0.387978 0.177698 -0.116570
C102  C     C_R   0.867416 0.612039 0.677694 -0.116371
C103  C     C_R   0.367430 0.887978 0.177698 -0.116571
C104  C     C_R   0.367416 0.112039 0.677694 -0.116371
C105  C     C_R   0.858384 0.354432 0.276898 0.192236
C106  C     C_R   0.858371 0.645580 0.776891 0.192326
C107  C     C_R   0.358384 0.854432 0.276898 0.192236
C108  C     C_R   0.358371 0.145580 0.776891 0.192326
C109  C     C_2   0.073062 0.589621 0.862082 -0.277553
C110  C     C_2   0.073212 0.410415 0.361691 -0.275184
C111  C     C_2   0.573062 0.089621 0.862082 -0.277553
C112  C     C_2   0.573212 0.910415 0.361691 -0.275184
C113  C     C_3   0.134783 0.479241 0.161965 0.371604
C114  C     C_3   0.135080 0.522049 0.650703 0.282979
C115  C     C_3   0.634783 0.979241 0.161965 0.371604
C116  C     C_3   0.635080 0.022049 0.650703 0.282979
C117  C     C_3   0.177507 0.458961 0.117365 0.323073
C118  C     C_3   0.180154 0.539159 0.612191 0.287461
C119  C     C_3   0.677507 0.958961 0.117365 0.323073
C120  C     C_3   0.680154 0.039159 0.612191 0.287461
C121  C     C_3   0.863487 0.521273 0.039496 0.286378
C122  C     C_3   0.863479 0.478714 0.539467 0.286412
C123  C     C_3   0.363487 0.021273 0.039496 0.286378
C124  C     C_3   0.363479 0.978714 0.539467 0.286412
C125  C     C_3   0.818809 0.538571 0.078247 -0.348730
C126  C     C_3   0.818793 0.461407 0.578246 -0.348689
C127  C     C_3   0.318809 0.038571 0.078247 -0.348730
C128  C     C_3   0.318793 0.961407 0.578246 -0.348689
C129  C     C_3   0.016271 0.331951 0.594789 0.358817
C130  C     C_3   0.016287 0.668056 0.094846 0.359702
C131  C     C_3   0.516271 0.831951 0.594789 0.358817
C132  C     C_3   0.516287 0.168056 0.094846 0.359702
C133  C     C_R   0.924266 0.412777 0.350379 -0.278550
C134  C     C_R   0.924230 0.587254 0.850365 -0.278503
C135  C     C_R   0.424266 0.912777 0.350379 -0.278550
C136  C     C_R   0.424230 0.087254 0.850365 -0.278503
H1    H     H_    0.039234 0.353393 0.647026 0.069488
H2    H     H_    0.039214 0.646637 0.146979 0.068232
H3    H     H_    0.539234 0.853393 0.647026 0.069488
H4    H     H_    0.539214 0.146637 0.146979 0.068232
H5    H     H_    0.175779 0.428637 0.156517 -0.035977
H6    H     H_    0.178617 0.570250 0.635986 0.012430
H7    H     H_    0.675779 0.928637 0.156517 -0.035977
H8    H     H_    0.678617 0.070250 0.635986 0.012430
H9    H     H_    0.179138 0.460787 0.984028 0.009767
H10   H     H_    0.188348 0.535716 0.480837 0.067742
H11   H     H_    0.679138 0.960787 0.984028 0.009767
H12   H     H_    0.688348 0.035716 0.480837 0.067742
H13   H     H_    0.871596 0.525780 0.909872 -0.001020
H14   H     H_    0.871600 0.474185 0.409850 -0.001395
H15   H     H_    0.371596 0.025780 0.909872 -0.001020
H16   H     H_    0.371600 0.974185 0.409850 -0.001395
H17   H     H_    0.888831 0.534675 0.117909 0.055439
H18   H     H_    0.888802 0.465354 0.617955 0.055751
H19   H     H_    0.388831 0.034675 0.117909 0.055439
H20   H     H_    0.388802 0.965354 0.617955 0.055751
H21   H     H_    0.793809 0.527396 0.992224 0.119559
H22   H     H_    0.793796 0.472571 0.492237 0.119429
H23   H     H_    0.293809 0.027396 0.992224 0.119559
H24   H     H_    0.293796 0.972571 0.492237 0.119429
H25   H     H_    0.820279 0.569725 0.065995 0.077640
H26   H     H_    0.820236 0.430252 0.565811 0.077665
H27   H     H_    0.320279 0.069725 0.065995 0.077640
H28   H     H_    0.320236 0.930252 0.565811 0.077665
H29   H     H_    0.808507 0.531247 0.204121 0.134888
H30   H     H_    0.808476 0.468766 0.704198 0.134939
H31   H     H_    0.308507 0.031248 0.204121 0.134888
H32   H     H_    0.308476 0.968766 0.704198 0.134939
H33   H     H_    0.010780 0.338384 0.466056 -0.063124
H34   H     H_    0.010781 0.661563 0.966058 -0.063456
H35   H     H_    0.510780 0.838384 0.466056 -0.063124
H36   H     H_    0.510781 0.161563 0.966058 -0.063456
H37   H     H_    0.050185 0.283550 0.488805 0.091500
H38   H     H_    0.050212 0.716470 0.988785 0.091224
H39   H     H_    0.550185 0.783550 0.488805 0.091500
H40   H     H_    0.550212 0.216470 0.988785 0.091224
H41   H     H_    0.062507 0.292095 0.701153 0.119843
H42   H     H_    0.062502 0.707941 0.201135 0.119377
H43   H     H_    0.562507 0.792095 0.701153 0.119843
H44   H     H_    0.562502 0.207941 0.201135 0.119377
H45   H     H_    0.949778 0.283415 0.200002 0.085449
H46   H     H_    0.949804 0.716565 0.699990 0.084690
H47   H     H_    0.449778 0.783415 0.200002 0.085449
H48   H     H_    0.449804 0.216565 0.699990 0.084690
H49   H     H_    0.744577 0.324335 0.828271 0.125383
H50   H     H_    0.744564 0.675663 0.328205 0.125616
H51   H     H_    0.244577 0.824335 0.828271 0.125383
H52   H     H_    0.244564 0.175663 0.328205 0.125616
H53   H     H_    0.192532 0.775192 0.754919 0.129622
H54   H     H_    0.192533 0.224812 0.254909 0.130068
H55   H     H_    0.692532 0.275192 0.754919 0.129622
H56   H     H_    0.692533 0.724812 0.254909 0.130068
H57   H     H_    0.803882 0.224758 0.488534 0.129746
H58   H     H_    0.803882 0.775240 0.988544 0.127521
H59   H     H_    0.303882 0.724758 0.488534 0.129746
H60   H     H_    0.303882 0.275240 0.988544 0.127521
H61   H     H_    0.880388 0.331502 0.507142 0.168046
H62   H     H_    0.880404 0.668507 0.007101 0.167939
H63   H     H_    0.380388 0.831502 0.507142 0.168046
H64   H     H_    0.380404 0.168507 0.007101 0.167939
H65   H     H_    0.251798 0.675497 0.415274 0.125145
H66   H     H_    0.251815 0.324510 0.915338 0.118368
H67   H     H_    0.751798 0.175497 0.415274 0.125145
H68   H     H_    0.751815 0.824510 0.915338 0.118368
H69   H     H_    0.148794 0.602169 0.154592 0.165198
H70   H     H_    0.148875 0.397880 0.654464 0.151284
H71   H     H_    0.648794 0.102169 0.154592 0.165198
H72   H     H_    0.648875 0.897880 0.654464 0.151284
H73   H     H_    0.117347 0.669462 0.719611 0.171815
H74   H     H_    0.117326 0.330530 0.219720 0.171846
H75   H     H_    0.617347 0.169462 0.719611 0.171814
H76   H     H_    0.617326 0.830530 0.219720 0.171846
H77   H     H_    0.848419 0.395517 0.074435 0.166792
H78   H     H_    0.848404 0.604511 0.574398 0.166862
H79   H     H_    0.348419 0.895517 0.074435 0.166792
H80   H     H_    0.348404 0.104511 0.574398 0.166862
H81   H     H_    0.946620 0.435333 0.385539 0.087367
H82   H     H_    0.946580 0.564708 0.885598 0.087332
H83   H     H_    0.446620 0.935334 0.385539 0.087367
H84   H     H_    0.446580 0.064708 0.885598 0.087332
H85   H     H_    0.010446 0.271533 0.644118 0.145084
H86   H     H_    0.010454 0.728467 0.144067 0.144637
H87   H     H_    0.510446 0.771533 0.644118 0.145084
H88   H     H_    0.510454 0.228467 0.144067 0.144637
H89   H     H_    0.050812 0.567802 0.819385 0.081129
H90   H     H_    0.050853 0.432166 0.319084 0.080256
H91   H     H_    0.550812 0.067802 0.819385 0.081129
H92   H     H_    0.550853 0.932166 0.319084 0.080256
H93   H     H_    0.960003 0.353884 0.045413 0.078003
H94   H     H_    0.959986 0.646091 0.545362 0.078018
H95   H     H_    0.460003 0.853884 0.045413 0.078003
H96   H     H_    0.459986 0.146091 0.545362 0.078018
H97   H     H_    0.987191 0.338878 0.227101 -0.082403
H98   H     H_    0.987194 0.661181 0.727098 -0.082062
H99   H     H_    0.487191 0.838878 0.227101 -0.082403
H100  H     H_    0.487194 0.161181 0.727098 -0.082062
H101  H     H_    0.937140 0.292608 0.988923 0.120269
H102  H     H_    0.937137 0.707356 0.488907 0.119809
H103  H     H_    0.437140 0.792608 0.988923 0.120269
H104  H     H_    0.437137 0.207356 0.488907 0.119809
H105  H     H_    0.989564 0.272360 0.043623 0.144745
H106  H     H_    0.989570 0.727643 0.543582 0.144173
H107  H     H_    0.489564 0.772360 0.043623 0.144745
H108  H     H_    0.489570 0.227643 0.543582 0.144173
H109  H     H_    0.127727 0.475765 0.292498 -0.035995
H110  H     H_    0.128045 0.525467 0.782263 -0.012665
H111  H     H_    0.627727 0.975765 0.292498 -0.035995
H112  H     H_    0.628045 0.025467 0.782263 -0.012665
H113  H     H_    0.107717 0.466730 0.088848 -0.038170
H114  H     H_    0.109273 0.536582 0.578523 0.004393
H115  H     H_    0.607718 0.966730 0.088848 -0.038170
H116  H     H_    0.609273 0.036582 0.578523 0.004393
N1    N     N_R   0.170590 0.677349 0.009206 -0.414790
N2    N     N_R   0.170613 0.322639 0.509233 -0.414708
N3    N     N_R   0.670590 0.177349 0.009206 -0.414790
N4    N     N_R   0.670613 0.822639 0.509233 -0.414708
N5    N     N_R   0.825863 0.323191 0.233420 -0.413527
N6    N     N_R   0.825851 0.676822 0.733413 -0.413727
N7    N     N_R   0.325863 0.823191 0.233420 -0.413527
N8    N     N_R   0.325851 0.176822 0.733413 -0.413727
O1    O     O_2   0.914200 0.445720 0.903420 -0.455226
O2    O     O_2   0.914200 0.554280 0.403420 -0.455188
O3    O     O_2   0.414200 0.945720 0.903420 -0.455226
O4    O     O_2   0.414200 0.054280 0.403420 -0.455188
O5    O     O_3   0.138436 0.483780 0.610901 -0.664748
O6    O     O_3   0.140222 0.517639 0.123391 -0.616715
O7    O     O_3   0.638436 0.983780 0.610901 -0.664748
O8    O     O_3   0.640222 0.017639 0.123391 -0.616715
O9    O     O_3   0.023597 0.333198 0.015639 -0.579996
O10   O     O_3   0.023592 0.666801 0.515741 -0.580200
O11   O     O_3   0.523597 0.833198 0.015639 -0.579996
O12   O     O_3   0.523592 0.166800 0.515741 -0.580200
O13   O     O_3   0.049930 0.518940 0.045960 -0.495995
O14   O     O_3   0.049930 0.481060 0.545960 -0.486198
O15   O     O_3   0.549930 0.018940 0.045960 -0.495995
O16   O     O_3   0.549930 0.981060 0.545960 -0.486198
O17   O     O_2   0.193449 0.647281 0.239104 -0.605498
O18   O     O_2   0.193474 0.352726 0.739109 -0.617393
O19   O     O_2   0.693449 0.147281 0.239104 -0.605498
O20   O     O_2   0.693474 0.852726 0.739109 -0.617393
O21   O     O_2   0.153682 0.717169 0.797810 -0.618420
O22   O     O_2   0.153691 0.282832 0.297800 -0.618141
O23   O     O_2   0.653682 0.217169 0.797810 -0.618420
O24   O     O_2   0.653691 0.782832 0.297800 -0.618141
O25   O     O_2   0.801951 0.352481 0.002869 -0.612247
O26   O     O_2   0.801938 0.647520 0.502839 -0.612042
O27   O     O_2   0.301952 0.852481 0.002869 -0.612247
O28   O     O_2   0.301938 0.147520 0.502839 -0.612042
O29   O     O_2   0.842788 0.283111 0.445738 -0.614596
O30   O     O_2   0.842782 0.716890 0.945745 -0.615531
O31   O     O_2   0.342788 0.783111 0.445738 -0.614596
O32   O     O_2   0.342782 0.216890 0.945745 -0.615531
O33   O     O_3   0.950020 0.480960 0.143730 -0.497259
O34   O     O_3   0.950020 0.519040 0.643730 -0.497183
O35   O     O_3   0.450020 0.980960 0.143730 -0.497259
O36   O     O_3   0.450020 0.019040 0.643730 -0.497183
O37   O     O_3   0.985090 0.412220 0.642040 -0.491420
O38   O     O_3   0.985090 0.587780 0.142040 -0.491673
O39   O     O_3   0.485090 0.912220 0.642040 -0.491420
O40   O     O_3   0.485090 0.087780 0.142040 -0.491673
O41   O     O_2   0.919812 0.379503 0.800661 -0.469186
O42   O     O_2   0.919820 0.620476 0.300664 -0.469273
O43   O     O_2   0.419812 0.879503 0.800661 -0.469186
O44   O     O_2   0.419820 0.120476 0.300664 -0.469273
O45   O     O_3   0.859638 0.482758 0.071336 -0.633352
O46   O     O_3   0.859631 0.517236 0.571368 -0.633274
O47   O     O_3   0.359638 0.982758 0.071336 -0.633352
O48   O     O_3   0.359631 0.017236 0.571368 -0.633274
O49   O     O_3   0.976275 0.331906 0.678529 -0.585653
O50   O     O_3   0.976273 0.668098 0.178633 -0.585526
O51   O     O_3   0.476275 0.831906 0.678529 -0.585653
O52   O     O_3   0.476273 0.168098 0.178633 -0.585526
O53   O     O_2   0.085560 0.445380 0.786390 -0.461876
O54   O     O_2   0.085560 0.554620 0.286390 -0.462667
O55   O     O_2   0.585560 0.945380 0.786390 -0.461876
O56   O     O_2   0.585560 0.054620 0.286390 -0.462667
O57   O     O_3   0.014550 0.412170 0.047860 -0.483463
O58   O     O_3   0.014550 0.587830 0.547860 -0.483936
O59   O     O_3   0.514550 0.912170 0.047860 -0.483463
O60   O     O_3   0.514550 0.087830 0.547860 -0.483936
O61   O     O_2   0.085315 0.380068 0.924556 -0.466086
O62   O     O_2   0.085315 0.619975 0.424548 -0.466966
O63   O     O_2   0.585315 0.880068 0.924556 -0.466086
O64   O     O_2   0.585315 0.119974 0.424548 -0.466966
P1    P     P_3+3 0.909970 0.458430 0.077330 0.998604
P2    P     P_3+3 0.909970 0.541570 0.577330 0.998758
P3    P     P_3+3 0.409970 0.958430 0.077330 0.998604
P4    P     P_3+3 0.409970 0.041570 0.577330 0.998758
P5    P     P_3+3 0.089830 0.458070 0.612460 0.981277
P6    P     P_3+3 0.089830 0.541930 0.112460 0.990178
P7    P     P_3+3 0.589830 0.958070 0.612460 0.981277
P8    P     P_3+3 0.589830 0.041930 0.112460 0.990178
P9    P     P_3+3 0.051505 0.375187 0.063642 0.976256
P10   P     P_3+3 0.051479 0.624870 0.563596 0.975029
P11   P     P_3+3 0.551505 0.875187 0.063642 0.976256
P12   P     P_3+3 0.551479 0.124870 0.563596 0.975029
P13   P     P_3+3 0.948654 0.625131 0.146737 0.979791
P14   P     P_3+3 0.948668 0.374819 0.646741 0.979927
P15   P     P_3+3 0.448654 0.125131 0.146737 0.979791
P16   P     P_3+3 0.448668 0.874819 0.646741 0.979927
O65   O     O_3   0.212670 0.477416 0.201970 -0.641505
C137  C     C_3   0.254238 0.477514 0.121647 0.240516
H117  H     H_    0.253069 0.470852 0.989805 0.005200
H118  H     H_    0.276418 0.456566 0.179823 0.023000
H119  H     H_    0.269847 0.505664 0.139662 0.076006
O66   O     O_3   0.213185 0.522974 0.713201 -0.636438
C138  C     C_3   0.225123 0.485140 0.671916 0.249352
H120  H     H_    0.261314 0.482297 0.681921 0.028547
H121  H     H_    0.215633 0.476999 0.545413 0.083064
H122  H     H_    0.210791 0.464985 0.761651 0.047307
O67   O     O_3   0.712670 0.977416 0.201970 -0.641505
C139  C     C_3   0.754238 0.977514 0.121647 0.240516
H123  H     H_    0.753069 0.970852 0.989805 0.005200
H124  H     H_    0.776418 0.956566 0.179823 0.023000
H125  H     H_    0.769847 0.005664 0.139662 0.076006
O68   O     O_3   0.713185 0.022974 0.713201 -0.636438
C140  C     C_3   0.725123 0.985140 0.671916 0.249352
H126  H     H_    0.761314 0.982297 0.681921 0.028547
H127  H     H_    0.715633 0.976999 0.545413 0.083064
H128  H     H_    0.710791 0.964986 0.761651 0.047307

loop_
_geom_bond_atom_site_label_1
_geom_bond_atom_site_label_2
_ccdc_geom_bond_type
C77   H69   S    
O48   P4    S    
C51   C55   A    
C74   C78   A    
C38   C54   A    
Ba2   O13   S    
O55   P7    D    
C127  H31   S    
C94   C134  S    
C43   H55   S    
C15   N3    Am   
C70   C110  A    
C100  P4    S    
O49   P14   S    
C47   H95   S    
C118  O66   S    
C5    C9    A    
C92   H104  S    
O42   P13   D    
C7    C11   A    
C8    C12   A    
Ba1   O53   S    
C66   C70   A    
Ba3   O55   S    
C130  O50   S    
C43   C49   A    
C114  O5    S    
Ba1   P1    S    
C45   O9    S    
C73   C109  A    
C94   P13   S    
C140  H128  S    
O5    P5    S    
O34   P2    S    
C5    C21   A    
C66   H74   S    
C80   C84   S    
Ba1   O34   S    
C45   H97   S    
C114  H110  S    
C83   N3    S    
C97   C133  D    
C118  H6    S    
C139  H125  S    
C13   C17   A    
C100  C136  D    
C115  H115  S    
C28   C30   A    
C12   O20   D    
C15   C19   A    
C27   H67   S    
C140  H127  S    
C4    H40   S    
Ba3   O15   S    
O67   C139  S    
C7    C23   A    
C46   O10   S    
C60   N8    Am   
Ba2   O38   S    
C89   H105  S    
C108  N8    S    
C103  H79   S    
C122  H14   S    
C131  O51   S    
C101  H77   S    
Ba4   O16   S    
C99   P3    S    
C71   C111  A    
C121  O45   S    
C48   H96   S    
C135  H83   S    
C130  H34   S    
C46   C90   S    
C116  H112  S    
C63   N7    Am   
C53   C57   A    
C14   O22   D    
C115  C119  S    
C25   C31   A    
C55   C59   A    
Ba2   P2    S    
C26   C32   A    
C56   C60   A    
O39   P16   S    
C57   N5    Am   
C3    H87   S    
C117  H9    S    
O9    P9    S    
C3    H43   S    
O6    P6    S    
O66   C138  S    
C123  C127  S    
O61   P9    D    
C124  H16   S    
C121  C125  S    
C99   C103  A    
C128  H32   S    
C45   C89   S    
C117  O65   S    
C47   C91   S    
C86   H62   S    
C132  H36   S    
C44   H56   S    
C75   C111  A    
C138  H120  S    
C21   C39   A    
C4    H88   S    
C138  H122  S    
C22   C40   A    
C1    C129  S    
C2    H42   S    
C40   C56   A    
C16   O24   D    
C12   N4    Am   
C134  H82   S    
Ba2   O2    S    
C69   P10   S    
C25   H65   S    
C114  C118  S    
C9    N1    Am   
O51   P16   S    
C91   H107  S    
O46   P2    S    
C113  H113  S    
Ba3   O59   S    
C1    H85   S    
C33   C61   A    
C96   P15   S    
C28   H68   S    
Ba4   O56   S    
C39   C55   A    
C126  H22   S    
C131  H3    S    
C127  H27   S    
C112  H92   S    
C95   C135  S    
O1    P1    D    
C93   C133  S    
O68   C140  S    
O52   P15   S    
C42   H54   S    
C17   C41   A    
C74   P5    S    
C19   C43   A    
C20   C44   A    
C76   C112  A    
C6    C10   A    
C136  H84   S    
Ba2   O54   S    
C115  H111  S    
O58   P10   S    
Ba1   P5    S    
C30   H58   S    
C137  H118  S    
Ba3   P7    S    
C139  H124  S    
O40   P15   S    
C125  H21   S    
O64   P12   D    
C18   C22   A    
Ba2   O33   S    
C13   N1    Am   
Ba3   Ba4   S    
O50   P13   S    
C64   N8    Am   
C65   C81   A    
C137  H119  S    
C17   C21   A    
C50   H50   S    
C14   C18   A    
C103  C107  A    
O44   P15   D    
O45   P1    S    
C90   H46   S    
Ba2   O14   S    
C109  H89   S    
C113  C117  S    
C47   O11   S    
C60   O28   D    
C81   N1    S    
C89   H101  S    
O2    P2    D    
C9    O17   D    
C129  H33   S    
C67   H75   S    
C72   P11   S    
C33   C37   A    
C122  O46   S    
C119  O67   S    
C48   H100  S    
C36   C40   A    
C41   C51   A    
C42   C52   A    
C87   C95   S    
C49   H49   S    
C77   C81   S    
C78   H70   S    
C54   C58   A    
C79   C83   S    
C52   H52   S    
Ba2   P6    S    
C4    C132  S    
C129  O49   S    
C76   C80   A    
C91   H47   S    
C48   O12   S    
C74   C110  A    
C120  H8    S    
C124  H20   S    
C58   O26   D    
C8    C24   A    
C118  H10   S    
C102  C106  A    
C121  H17   S    
C122  C126  S    
C133  H81   S    
C69   C109  A    
Ba4   O40   S    
C46   H94   S    
C82   N2    S    
C101  C105  A    
O7    P7    S    
C65   C69   A    
C88   H64   S    
O47   P3    S    
C2    H38   S    
O35   P3    S    
C120  O68   S    
C1    H41   S    
O63   P11   D    
C41   H53   S    
C119  H11   S    
Ba4   P4    S    
Ba3   O3    S    
C31   H59   S    
C75   P8    S    
C20   C24   A    
C65   H73   S    
C10   N2    Am   
C123  H15   S    
C49   C53   A    
C88   C108  D    
C78   C82   S    
C29   C33   A    
C104  C108  A    
O8    P8    S    
O60   P12   S    
C107  N7    S    
C31   C35   A    
C128  H24   S    
C130  H2    S    
C126  H26   S    
C73   C77   A    
C90   H106  S    
C67   C83   A    
C102  H78   S    
O12   P12   S    
C71   P12   S    
C105  N5    S    
C100  C104  A    
C113  H109  S    
O41   P14   D    
O54   P6    D    
C32   H60   S    
C59   N7    Am   
Ba1   O57   S    
C80   H72   S    
Ba4   O4    S    
Ba3   P3    S    
C129  H1    S    
C125  H25   S    
C37   C53   A    
Ba1   O14   S    
C132  H4    S    
C75   C79   A    
Ba3   O16   S    
C126  H30   S    
C2    H86   S    
O10   P10   S    
O62   P10   D    
Ba3   O36   S    
C14   N2    Am   
C84   N4    S    
O33   P1    S    
C104  H80   S    
C52   C56   A    
C36   C64   A    
C63   O31   D    
Ba4   O15   S    
C62   O30   D    
C47   H99   S    
C62   N6    Am   
C92   H108  S    
C87   H63   S    
C51   H51   S    
C89   H45   S    
C85   H61   S    
O59   P11   S    
C92   H48   S    
C11   O19   D    
C68   H76   S    
C68   C72   A    
C58   N6    Am   
C113  O6    S    
C97   P1    S    
C132  O52   S    
C46   H98   S    
C44   C50   A    
C115  O8    S    
C116  O7    S    
C125  H29   S    
C34   C38   A    
C70   P9    S    
C26   H66   S    
C85   C105  D    
C76   P7    S    
Ba1   Ba2   S    
C98   C134  D    
C87   C107  D    
O36   P4    S    
C6    C26   A    
C45   H93   S    
C96   C136  S    
C16   C20   A    
O53   P5    D    
Ba2   O58   S    
O13   P6    S    
C27   C29   A    
C98   C102  A    
Ba4   O35   S    
C19   C23   A    
O15   P8    S    
C114  H114  S    
C111  H91   S    
C5    C25   A    
O38   P13   S    
C4    H44   S    
C120  H12   S    
C7    C27   A    
C8    C28   A    
C59   O27   D    
O56   P8    D    
Ba1   O37   S    
C10   O18   D    
O11   P11   S    
C124  C128  S    
Ba3   O39   S    
C68   C84   A    
C121  H13   S    
C122  H18   S    
C97   C101  A    
C34   C62   A    
C32   C36   A    
C35   C39   A    
C85   C93   S    
C131  H35   S    
C116  H116  S    
C3    C131  S    
C138  H121  S    
C99   C135  D    
C13   O21   D    
C23   C37   A    
O16   P7    S    
O57   P9    S    
C29   H57   S    
C15   O23   D    
Ba1   O13   S    
C98   P2    S    
C3    H39   S    
C73   P6    S    
C1    H37   S    
C16   N4    Am   
C119  H7    S    
Ba4   P8    S    
O4    P4    D    
C117  H5    S    
C86   C106  D    
C66   C82   A    
C123  H19   S    
C11   N3    Am   
C88   C96   S    
C50   C54   A    
C18   C42   A    
C30   C34   A    
C35   C63   A    
C128  H28   S    
O14   P5    S    
O43   P16   D    
C110  H90   S    
C123  O47   S    
C140  H126  S    
C124  O48   S    
O37   P14   S    
C90   H102  S    
C2    C130  S    
O3    P3    D    
C67   C71   A    
C6    C22   A    
C137  H117  S    
C57   O25   D    
C64   O32   D    
C24   C38   A    
C139  H123  S    
C72   C112  A    
C48   C92   S    
C93   P14   S    
C106  N6    S    
C95   P16   S    
C61   O29   D    
Ba1   O1    S    
C127  H23   S    
Ba4   O60   S    
C61   N5    Am   
O65   C137  S    
C86   C94   S    
C79   H71   S    
C116  C120  S    
C91   H103  S    
