data_mof_unit_58349.cif
_audit_creation_date              2013-03-05T16:02:58-0500
_audit_creation_method            fapswitch 2.2
_symmetry_space_group_name_H-M    P1
_symmetry_Int_Tables_number       1
_space_group_crystal_system       triclinic
_cell_length_a                    14.941759
_cell_length_b                    14.027989
_cell_length_c                    10.534908
_cell_angle_alpha                 89.257198
_cell_angle_beta                  90.255532
_cell_angle_gamma                 90.130176
_cell_volume                      2207.93360443

loop_
_atom_site_label
_atom_site_type_symbol
_atom_site_description
_atom_site_fract_x
_atom_site_fract_y
_atom_site_fract_z
_atom_type_partial_charge
O1    O     O_R   0.367850 0.580280 0.500030 -0.611572
O2    O     O_R   0.632150 0.419720 0.499970 -0.611399
O3    O     O_R   0.632150 0.580280 0.499970 -0.613941
O4    O     O_R   0.367850 0.419720 0.500030 -0.613941
C1    C     C_R   0.327122 0.499931 0.496019 0.888691
C2    C     C_R   0.672879 0.500070 0.503983 0.888595
O5    O     O_R   0.499970 0.580260 0.313950 -0.633726
O6    O     O_R   0.500030 0.419740 0.686050 -0.633659
O7    O     O_R   0.500030 0.580260 0.686050 -0.624460
O8    O     O_R   0.499970 0.419740 0.313950 -0.624203
C3    C     C_R   0.498332 0.500715 0.257628 0.907552
C4    C     C_R   0.501632 0.499284 0.742375 0.907540
Zn1   Zn    Zn3+2 0.500000 0.607200 0.500000 0.955149
Zn2   Zn    Zn3+2 0.500000 0.392800 0.500000 0.955268
C5    C     C_3   0.484767 0.589833 0.036500 0.125603
C6    C     C_3   0.515163 0.410167 0.963503 0.125547
C7    C     C_3   0.565586 0.557452 0.958068 0.102529
C8    C     C_3   0.434346 0.442549 0.041946 0.102447
C9    C     C_3   0.421083 0.530083 0.954152 0.115820
C10   C     C_3   0.578845 0.469916 0.045855 0.115735
C11   C     C_3   0.501838 0.497820 0.876528 -0.120875
C12   C     C_3   0.498091 0.502177 0.123477 -0.120835
C13   C     C_R   0.811742 0.548057 0.412067 -0.248747
C14   C     C_R   0.188266 0.451995 0.587982 -0.248696
C15   C     C_R   0.768132 0.500518 0.510078 -0.066085
C16   C     C_R   0.231872 0.499491 0.489933 -0.066032
C17   C     C_R   0.814599 0.454080 0.609377 0.162115
C18   C     C_R   0.185407 0.545912 0.390619 0.162207
C19   C     C_R   0.908606 0.452624 0.604177 0.076517
C20   C     C_R   0.091401 0.547390 0.395837 0.076520
C21   C     C_R   0.953157 0.500284 0.502636 -0.006081
C22   C     C_R   0.046850 0.499745 0.497390 -0.006094
C23   C     C_R   0.904104 0.548633 0.406444 0.058524
C24   C     C_R   0.095904 0.451409 0.593594 0.058485
C25   C     C_R   0.959107 0.404888 0.698098 -0.211746
C26   C     C_R   0.040902 0.595131 0.301920 -0.211804
C27   C     C_R   0.051684 0.404249 0.693803 0.276646
C28   C     C_R   0.948324 0.595791 0.306233 0.276700
H1    H     H_    0.772052 0.583330 0.339223 0.189807
H2    H     H_    0.227960 0.416762 0.660858 0.189784
H3    H     H_    0.927646 0.367036 0.776057 0.199610
H4    H     H_    0.072364 0.632973 0.223953 0.199597
C29   C     C_R   0.548248 0.798769 0.411176 0.013048
C30   C     C_R   0.451747 0.201231 0.588818 0.013028
C31   C     C_R   0.452089 0.796810 0.589222 0.019076
C32   C     C_R   0.547911 0.203190 0.410778 0.019061
N1    N     N_R   0.500000 0.750030 0.500000 -0.124920
N2    N     N_R   0.500000 0.249970 0.500000 -0.124925
C33   C     C_R   0.450799 0.897652 0.592505 -0.074805
C34   C     C_R   0.549199 0.102347 0.407491 -0.074819
C35   C     C_R   0.549409 0.899677 0.407720 -0.075919
C36   C     C_R   0.450586 0.100322 0.592274 -0.075897
C37   C     C_R   0.500027 0.949404 0.500028 0.006384
C38   C     C_R   0.499970 0.050595 0.499968 0.006400
C39   C     C_R   0.401913 0.947548 0.685210 0.237766
C40   C     C_R   0.598081 0.052451 0.314783 0.237749
C41   C     C_R   0.598295 0.951603 0.315001 0.244031
C42   C     C_R   0.401698 0.048396 0.684990 0.243990
H5    H     H_    0.585695 0.757682 0.343812 0.169779
H6    H     H_    0.414294 0.242317 0.656176 0.169763
H7    H     H_    0.415216 0.754249 0.657308 0.170438
H8    H     H_    0.584786 0.245751 0.342694 0.170507
C43   C     C_3   0.331972 0.563528 0.899006 -0.808469
H9    H     H_    0.343026 0.625623 0.834428 0.258255
H10   H     H_    0.300420 0.504767 0.845040 0.239604
H11   H     H_    0.286868 0.584778 0.977088 0.255868
C44   C     C_3   0.667917 0.436428 0.101076 -0.808275
H12   H     H_    0.657037 0.373151 0.163447 0.258769
H13   H     H_    0.713711 0.417087 0.023027 0.255646
H14   H     H_    0.698547 0.494409 0.157302 0.238738
C45   C     C_3   0.466900 0.692006 0.076113 -0.745473
H15   H     H_    0.457855 0.737684 0.990282 0.268479
H16   H     H_    0.405398 0.694708 0.134581 0.242556
H17   H     H_    0.524539 0.719063 0.131646 0.254776
C46   C     C_3   0.533016 0.307991 0.923887 -0.745412
H18   H     H_    0.541986 0.262292 0.009715 0.268256
H19   H     H_    0.475401 0.280969 0.868275 0.254747
H20   H     H_    0.594554 0.305270 0.865497 0.242779
C47   C     C_3   0.639914 0.622527 0.909290 -0.766724
H21   H     H_    0.676356 0.653767 0.990864 0.278657
H22   H     H_    0.687312 0.581139 0.851158 0.232588
H23   H     H_    0.610798 0.680889 0.850332 0.257484
C48   C     C_3   0.360027 0.377468 0.090742 -0.766944
H24   H     H_    0.323619 0.346167 0.009180 0.278498
H25   H     H_    0.389149 0.319148 0.149768 0.257490
H26   H     H_    0.312598 0.418868 0.148807 0.232795
C49   C     C_3   0.765302 0.409638 0.721582 -0.902282
H27   H     H_    0.791485 0.439729 0.811359 0.238836
H28   H     H_    0.692506 0.423853 0.721601 0.237376
H29   H     H_    0.774895 0.331177 0.722490 0.263566
C50   C     C_3   0.234704 0.590320 0.278389 -0.902643
H30   H     H_    0.307499 0.576087 0.278368 0.237357
H31   H     H_    0.208510 0.560222 0.188623 0.239045
H32   H     H_    0.225132 0.668783 0.277459 0.263527
Br1   Br    Br    0.113383 0.337665 0.829117 -0.460857
Br2   Br    Br    0.886626 0.662377 0.170917 -0.460510
Br3   Br    Br    0.335083 0.878827 0.813954 -0.445425
Br4   Br    Br    0.664906 0.121170 0.186033 -0.445657
Br5   Br    Br    0.665792 0.885724 0.186916 -0.404901
Br6   Br    Br    0.334196 0.114274 0.813071 -0.404949

loop_
_geom_bond_atom_site_label_1
_geom_bond_atom_site_label_2
_geom_bond_distance
_ccdc_geom_bond_type
C49   H27   1.109982 S    
C43   H10   1.110380 S    
C6    C11   1.536673 S    
C17   C19   1.406147 A    
C6    C46   1.522503 S    
C10   C44   1.522902 S    
C26   H4    1.080949 S    
C40   Br4   1.933847 S    
O3    C2    1.280555 A    
C37   C38   1.419495 A    
C5    C9    1.538987 S    
C34   C38   1.415225 A    
C32   H8    1.079557 S    
O1    C1    1.280800 A    
C6    C10   1.538973 S    
C25   C27   1.384265 A    
C14   C16   1.386212 A    
C33   C37   1.415223 A    
C2    C15   1.424409 S    
C50   H31   1.109989 S    
C24   C27   1.405285 A    
C7    C47   1.522876 S    
C7    C10   1.540275 S    
C40   C41   1.414673 A    
C27   Br1   1.926680 S    
C8    C9    1.540301 S    
C31   H7    1.079552 S    
O7    Zn1   1.991302 S    
Zn1   N1    2.003618 S    
C5    C12   1.536719 S    
C21   C22   1.401307 A    
C9    C43   1.522928 S    
C13   C23   1.381589 A    
C21   C23   1.414901 A    
C35   C41   1.415527 A    
C7    C11   1.533833 S    
O3    Zn1   2.011185 S    
C29   H5    1.079127 S    
C30   C36   1.415609 A    
C43   H11   1.109923 S    
O2    C2    1.280825 A    
O2    Zn2   2.009498 S    
O7    C4    1.274954 A    
C36   C38   1.415294 A    
C31   N1    1.360417 A    
C32   N2    1.360422 A    
C43   H9    1.110794 S    
C44   H12   1.109628 S    
C42   Br6   1.934078 S    
O8    Zn2   1.991303 S    
C50   H30   1.106300 S    
C47   H22   1.108447 S    
Zn2   N2    2.003619 S    
C33   C39   1.415514 A    
C4    C11   1.413162 S    
C14   C24   1.381580 A    
C1    C16   1.424360 S    
C35   C37   1.415295 A    
C22   C24   1.414911 A    
O5    C3    1.270712 A    
C46   H18   1.109398 S    
C47   H23   1.109658 S    
C48   H24   1.109762 S    
C31   C33   1.415664 A    
O6    C4    1.270709 A    
C39   Br3   1.933855 S    
C8    C48   1.522886 S    
C17   C49   1.521542 S    
C46   H19   1.108066 S    
C36   C42   1.415532 A    
C48   H25   1.109661 S    
C10   C12   1.533072 S    
C49   H28   1.106279 S    
C49   H29   1.110171 S    
O1    Zn1   2.009500 S    
C45   H16   1.109551 S    
C5    C7    1.538975 S    
C32   C34   1.415668 A    
O6    Zn2   2.000923 S    
C9    C11   1.533102 S    
C8    C12   1.533719 S    
O4    C1    1.280559 A    
C45   H17   1.108063 S    
C15   C17   1.406642 A    
C5    C45   1.522489 S    
C19   C25   1.405438 A    
C3    C12   1.413142 S    
C16   C18   1.406647 A    
C23   C28   1.405299 A    
C20   C26   1.405430 A    
C44   H14   1.109162 S    
C26   C28   1.384269 A    
C45   H15   1.109395 S    
C19   C21   1.421339 A    
C50   H32   1.110160 S    
C20   C22   1.421343 A    
C29   C35   1.415607 A    
C30   H6    1.079122 S    
C13   H1    1.082992 S    
C18   C20   1.406140 A    
C14   H2    1.083006 S    
C18   C50   1.521558 S    
C13   C15   1.386228 A    
O4    Zn2   2.011186 S    
C25   H3    1.080946 S    
C46   H20   1.109550 S    
C34   C40   1.415519 A    
O8    C3    1.274943 A    
C47   H21   1.109763 S    
O5    Zn1   2.000924 S    
C48   H26   1.108437 S    
C6    C8    1.539016 S    
C39   C42   1.414675 A    
C28   Br2   1.926695 S    
C44   H13   1.108842 S    
C29   N1    1.360142 A    
C30   N2    1.360144 A    
C41   Br5   1.934081 S    
