data_mof_unit_29940.cif
_audit_creation_date              2012-12-11T15:27:08-0500
_audit_creation_method            fapswitch 2.2
_symmetry_space_group_name_H-M    P1
_symmetry_Int_Tables_number       1
_space_group_crystal_system       triclinic
_cell_length_a                    13.909628
_cell_length_b                    13.88676
_cell_length_c                    27.362036
_cell_angle_alpha                 90.456055
_cell_angle_beta                  89.499057
_cell_angle_gamma                 120.003369
_cell_volume                      4576.78399213

loop_
_atom_site_label
_atom_site_type_symbol
_atom_type_description
_atom_site_fract_x
_atom_site_fract_y
_atom_site_fract_z
_atom_type_partial_charge
C1    C     C_R   0.233636 0.787941 0.568256 0.542396
C2    C     C_R   0.212515 0.447005 0.568728 0.541036
C3    C     C_R   0.553661 0.766453 0.568442 0.541785
C4    C     C_3   0.709499 0.755217 0.781516 -0.212052
C5    C     C_3   0.255723 0.945726 0.784340 -0.212066
C6    C     C_3   0.078765 0.347220 0.790087 -0.212360
C7    C     C_3   0.678718 0.739535 0.726733 -0.213014
C8    C     C_3   0.272253 0.928935 0.729545 -0.213235
C9    C     C_3   0.085953 0.367080 0.734211 -0.213411
C10   C     C_1   0.765357 0.885096 0.851271 -0.074888
C11   C     C_1   0.116946 0.885088 0.851057 -0.076364
C12   C     C_1   0.156679 0.294461 0.858971 -0.075693
C13   C     C_1   0.641902 0.823604 0.655656 -0.076337
C14   C     C_1   0.178641 0.822893 0.655361 -0.076328
C15   C     C_1   0.186013 0.371611 0.658425 -0.075904
C16   C     C_1   0.607237 0.801541 0.614631 -0.018153
C17   C     C_1   0.199396 0.808369 0.614325 -0.017459
C18   C     C_1   0.195147 0.398943 0.616261 -0.017848
C19   C     C_R   0.107532 0.220625 0.949026 0.557488
C20   C     C_R   0.837272 0.908024 0.941586 0.532531
C21   C     C_R   0.091663 0.929858 0.941940 0.535916
C22   C     C_R   0.619552 0.809455 0.386647 0.023972
C23   C     C_R   0.191639 0.809706 0.386549 0.024147
C24   C     C_R   0.185909 0.369116 0.389404 0.022958
C25   C     C_R   0.619422 0.898334 0.362549 -0.128007
C26   C     C_R   0.102767 0.721192 0.361965 -0.127231
C27   C     C_R   0.271883 0.371625 0.361007 -0.127975
C28   C     C_R   0.650871 0.918995 0.313872 -0.121924
C29   C     C_R   0.081901 0.732918 0.313512 -0.117917
C30   C     C_R   0.248316 0.314637 0.316530 -0.116900
C31   C     C_R   0.684979 0.852552 0.289040 0.040193
C32   C     C_R   0.148666 0.833657 0.289326 0.039978
C33   C     C_R   0.138422 0.253667 0.300108 0.037912
C34   C     C_R   0.233026 0.787925 0.431706 0.543291
C35   C     C_R   0.212134 0.444272 0.431654 0.541841
C36   C     C_R   0.555510 0.767234 0.431794 0.543177
C37   C     C_R   0.698120 0.772835 0.314763 -0.120015
C38   C     C_R   0.229448 0.925654 0.315422 -0.119831
C39   C     C_R   0.051860 0.242074 0.330927 -0.118883
C40   C     C_R   0.664820 0.750804 0.363349 -0.127732
C41   C     C_R   0.251143 0.913684 0.363791 -0.125233
C42   C     C_R   0.075461 0.300307 0.374982 -0.127161
C43   C     C_R   0.656509 0.761761 0.207817 -0.112890
C44   C     C_R   0.237423 0.893360 0.207657 -0.114600
C45   C     C_R   0.045453 0.247234 0.222660 -0.111296
C46   C     C_R   0.672971 0.767317 0.157131 0.240157
C47   C     C_R   0.231026 0.904070 0.157078 0.234598
C48   C     C_R   0.029480 0.228548 0.172307 0.237989
C49   C     C_R   0.759247 0.968831 0.162305 -0.184128
C50   C     C_R   0.029265 0.799225 0.163715 -0.177182
C51   C     C_R   0.155325 0.154196 0.172549 -0.180530
C52   C     C_R   0.745243 0.962780 0.212546 -0.140820
C53   C     C_R   0.036501 0.790415 0.213801 -0.138178
C54   C     C_R   0.170695 0.173829 0.222859 -0.132357
C55   C     C_R   0.696971 0.859491 0.235773 0.002247
C56   C     C_R   0.140461 0.839966 0.236225 0.001393
C57   C     C_R   0.115772 0.220670 0.248194 0.002792
C58   C     C_R   0.729116 0.872316 0.134773 0.058930
C59   C     C_R   0.125888 0.859475 0.135399 0.058427
C60   C     C_R   0.085808 0.182063 0.146656 0.049705
C61   C     C_R   0.066561 0.155168 0.093902 0.573858
C62   C     C_R   0.777442 0.884763 0.086124 0.598236
C63   C     C_R   0.114743 0.893296 0.086356 0.597433
C64   C     C_3   0.589772 0.857754 0.738262 -0.215308
C65   C     C_3   0.120541 0.728710 0.735281 -0.215735
C66   C     C_3   0.290467 0.432838 0.736153 -0.213771
C67   C     C_3   0.790989 0.945974 0.713490 -0.213849
C68   C     C_3   0.074322 0.876221 0.712604 -0.213989
C69   C     C_3   0.152594 0.230309 0.721914 -0.215941
C70   C     C_3   0.823612 0.962950 0.768190 -0.216949
C71   C     C_3   0.058199 0.893049 0.767367 -0.218888
C72   C     C_3   0.145889 0.210891 0.777872 -0.215310
C73   C     C_1   0.796811 0.895747 0.892800 -0.019287
C74   C     C_1   0.104359 0.903423 0.892822 -0.023656
C75   C     C_1   0.139577 0.266703 0.901141 -0.023154
C76   C     C_3   0.674928 0.841897 0.707121 0.072046
C77   C     C_3   0.161392 0.838795 0.706793 0.072681
C78   C     C_3   0.178831 0.350316 0.711205 0.072319
C79   C     C_3   0.623372 0.875157 0.793023 -0.212159
C80   C     C_3   0.103999 0.745669 0.790139 -0.212673
C81   C     C_3   0.283236 0.413120 0.792185 -0.214845
C82   C     C_3   0.731192 0.870223 0.799906 0.071196
C83   C     C_3   0.133360 0.867437 0.799630 0.071352
C84   C     C_3   0.166716 0.316709 0.806237 0.072234
Cr1   Cr    Cr6+3 0.164410 0.584450 0.499910 1.016616
Cr2   Cr    Cr6+3 0.415550 0.579960 0.499910 1.018061
Cr3   Cr    Cr6+3 0.420040 0.835590 0.499910 1.015884
Cr4   Cr    Cr6+3 0.156760 0.076070 0.017830 1.043413
Cr5   Cr    Cr6+3 0.923930 0.080690 0.017830 1.047143
Cr6   Cr    Cr6+3 0.919310 0.843240 0.017830 1.041587
H1    H     H_    0.636076 0.957020 0.805745 0.116726
H2    H     H_    0.016276 0.687706 0.800921 0.114477
H3    H     H_    0.347978 0.393091 0.803365 0.114620
H4    H     H_    0.505475 0.783559 0.734434 0.107479
H5    H     H_    0.181965 0.699916 0.731545 0.107859
H6    H     H_    0.311405 0.520025 0.728949 0.108350
H7    H     H_    0.555001 0.809801 0.815410 0.117364
H8    H     H_    0.157559 0.725244 0.812706 0.117352
H9    H     H_    0.300085 0.490523 0.811774 0.114162
H10   H     H_    0.783671 0.746508 0.787173 0.104958
H11   H     H_    0.278950 0.033944 0.790955 0.109570
H12   H     H_    0.994011 0.279004 0.799824 0.112501
H13   H     H_    0.586097 0.945943 0.379833 0.131184
H14   H     H_    0.054828 0.640224 0.378761 0.131749
H15   H     H_    0.357884 0.423491 0.371503 0.128701
H16   H     H_    0.613945 0.681374 0.225507 0.093439
H17   H     H_    0.317967 0.927805 0.224808 0.095037
H18   H     H_    0.005390 0.286467 0.241734 0.091214
H19   H     H_    0.640451 0.981288 0.294906 0.102641
H20   H     H_    0.018791 0.660973 0.294119 0.106874
H21   H     H_    0.316526 0.325354 0.293392 0.106837
H22   H     H_    0.776263 0.039237 0.233323 0.115278
H23   H     H_    0.960752 0.748558 0.235213 0.117120
H24   H     H_    0.225552 0.152749 0.241937 0.116546
H25   H     H_    0.801384 0.049970 0.145454 0.174850
H26   H     H_    0.947606 0.765325 0.147706 0.150445
H27   H     H_    0.197620 0.116893 0.153822 0.146588
H28   H     H_    0.728361 0.723494 0.296569 0.101199
H29   H     H_    0.279387 0.005209 0.297685 0.098805
H30   H     H_    0.966149 0.193446 0.319447 0.104262
H31   H     H_    0.585233 0.930836 0.724861 0.112398
H32   H     H_    0.040784 0.662450 0.719754 0.113115
H33   H     H_    0.358830 0.422381 0.720494 0.113289
H34   H     H_    0.667851 0.683411 0.381561 0.126777
H35   H     H_    0.318785 0.983770 0.382281 0.127718
H36   H     H_    0.007588 0.294983 0.396769 0.125884
H37   H     H_    0.853947 0.936311 0.691947 0.109574
H38   H     H_    0.101891 0.955392 0.692601 0.109823
H39   H     H_    0.072335 0.169268 0.704839 0.108566
H40   H     H_    0.790691 0.020871 0.699514 0.112580
H41   H     H_    0.993673 0.812653 0.696689 0.111150
H42   H     H_    0.218179 0.215994 0.705815 0.111312
H43   H     H_    0.838746 0.045952 0.780534 0.109572
H44   H     H_    0.970175 0.837471 0.777760 0.108125
H45   H     H_    0.208117 0.187001 0.788635 0.109250
H46   H     H_    0.902288 0.962544 0.772725 0.099392
H47   H     H_    0.078383 0.980162 0.773576 0.101263
H48   H     H_    0.062448 0.140818 0.787580 0.100860
H49   H     H_    0.596540 0.662950 0.721845 0.111434
H50   H     H_    0.336552 0.903933 0.725674 0.110832
H51   H     H_    0.102849 0.452996 0.727015 0.110602
H52   H     H_    0.740936 0.727617 0.705726 0.112551
H53   H     H_    0.303336 0.009089 0.709885 0.113755
H54   H     H_    0.004648 0.308518 0.717237 0.112526
H55   H     H_    0.640515 0.687995 0.802966 0.117889
H56   H     H_    0.311801 0.928534 0.806772 0.119081
H57   H     H_    0.092083 0.423494 0.809649 0.115622
O1    O     O_R   0.137310 0.468260 0.552980 -0.510702
O2    O     O_R   0.531740 0.669050 0.552980 -0.510592
O3    O     O_R   0.330950 0.862690 0.552980 -0.510564
O4    O     O_R   0.180530 0.983530 0.965090 -0.484000
O5    O     O_R   0.016470 0.197000 0.965090 -0.506610
O6    O     O_R   0.803000 0.819470 0.965090 -0.491804
O7    O     O_R   0.174120 0.688790 0.549730 -0.498964
O8    O     O_R   0.311210 0.485330 0.549730 -0.498376
O9    O     O_R   0.514670 0.825880 0.549730 -0.499207
O10   O     O_R   0.139940 0.470480 0.446230 -0.519467
O11   O     O_R   0.529520 0.669460 0.446230 -0.521108
O12   O     O_R   0.330540 0.860060 0.446230 -0.522031
O13   O     O_R   0.176560 0.690850 0.450770 -0.504818
O14   O     O_R   0.309150 0.485710 0.450770 -0.502674
O15   O     O_R   0.514290 0.823440 0.450770 -0.505576
O16   O     O_3   0.333333 0.666667 0.499990 -0.260918
O17   O     O_3   0.000000 1.000000 0.017910 -0.312872
O18   O     O_R   0.149710 0.171070 0.967700 -0.513554
O19   O     O_R   0.828930 0.978640 0.967700 -0.483123
O20   O     O_R   0.021360 0.850290 0.967700 -0.497481
O21   O     O_R   0.178510 0.985930 0.071830 -0.469460
O22   O     O_R   0.014070 0.192580 0.071830 -0.423432
O23   O     O_R   0.807420 0.821490 0.071830 -0.456723
O24   O     O_R   0.147830 0.173300 0.066650 -0.493286
O25   O     O_R   0.826700 0.974530 0.066650 -0.528376
O26   O     O_R   0.025470 0.852170 0.066650 -0.516284
O27   O     O_3   0.638588 0.672429 0.129188 -0.677538
H58   H     H_    0.601673 0.606355 0.150683 0.319305
O28   O     O_3   0.325482 0.959986 0.128562 -0.677834
H59   H     H_    0.391810 0.986500 0.149578 0.319653
O29   O     O_3   0.960821 0.257050 0.147763 -0.684758
H60   H     H_    0.927280 0.286698 0.171271 0.312549

loop_
_geom_bond_atom_site_label_1
_geom_bond_atom_site_label_2
_ccdc_geom_bond_type
C58   C62   S    
C15   C18   T    
Cr3   O16   S    
C2    O8    A    
Cr6   O20   S    
C2    C18   S    
C24   C42   A    
Cr1   O1    S    
C6    C9    S    
C48   O29   S    
O29   H60   S    
C71   H47   S    
C25   C28   A    
Cr6   O26   S    
C45   C57   A    
C35   O14   A    
C50   C59   A    
C21   O4    A    
C29   C32   A    
C4    C7    S    
C5    C83   S    
C10   C73   T    
C14   C77   S    
C15   C78   S    
C52   H22   S    
C2    O1    A    
C39   H30   S    
C12   C84   S    
C45   H18   S    
C23   C26   A    
O27   H58   S    
C26   H14   S    
Cr5   O5    S    
C37   H28   S    
Cr3   O12   S    
Cr4   O21   S    
Cr3   O3    S    
C70   H43   S    
C24   C27   A    
C48   C60   A    
C61   O24   A    
Cr1   O13   S    
C32   C38   A    
C68   H38   S    
Cr5   O17   S    
C79   H1    S    
C47   O28   S    
C44   C47   A    
C36   O11   A    
Cr1   O7    S    
C34   O12   A    
C49   C52   A    
C72   H48   S    
C65   C80   S    
C46   C58   A    
C27   C30   A    
C70   H46   S    
C14   C17   T    
C69   C78   S    
Cr1   O10   S    
C71   H44   S    
C80   C83   S    
C40   H34   S    
C9    H54   S    
C53   H23   S    
C63   O26   A    
C39   C42   A    
C71   C83   S    
C62   O23   A    
C5    H11   S    
C3    O2    A    
C24   C35   S    
C6    C84   S    
C20   O6    A    
C50   C53   A    
C41   H35   S    
C29   H20   S    
C65   C77   S    
C38   C41   A    
Cr2   O2    S    
C9    H51   S    
C25   H13   S    
C72   H45   S    
C81   H9    S    
C11   C83   S    
Cr4   O17   S    
C47   C59   A    
C21   C74   S    
C22   C25   A    
C49   C58   A    
C31   C37   A    
Cr6   O17   S    
C60   C61   S    
C43   H16   S    
C80   H2    S    
C68   H41   S    
Cr2   O8    S    
C35   O10   A    
C67   H37   S    
C5    C8    S    
C44   H17   S    
C81   H3    S    
C44   C56   A    
C13   C76   S    
C23   C34   S    
C22   C40   A    
Cr6   O23   S    
C46   O27   S    
C19   O5    A    
C64   C76   S    
C1    O3    A    
Cr2   O14   S    
C33   C39   A    
C65   H32   S    
Cr6   O6    S    
Cr2   O11   S    
C72   C84   S    
C38   H29   S    
C66   C78   S    
C43   C55   A    
O28   H59   S    
C49   H25   S    
C4    H10   S    
C8    C77   S    
Cr1   O16   S    
Cr4   O4    S    
C13   C16   T    
C67   H40   S    
C61   O22   A    
C69   H42   S    
C81   C84   S    
C62   O25   A    
C66   H6    S    
C45   C48   A    
C68   C77   S    
C63   O21   A    
C33   C57   S    
C5    H56   S    
C30   C33   A    
C80   H8    S    
Cr3   O9    S    
C59   C63   S    
C20   O19   A    
C79   H7    S    
C28   C31   A    
Cr5   O25   S    
C69   C72   S    
C11   C74   T    
C21   O20   A    
C79   C82   S    
C52   C55   A    
C7    C76   S    
Cr2   O16   S    
C28   H19   S    
C37   C40   A    
C22   C36   S    
C1    C17   S    
C23   C41   A    
C30   H21   S    
C8    H50   S    
C67   C70   S    
C51   C54   A    
C51   C60   A    
C19   C75   S    
Cr5   O22   S    
C66   C81   S    
C7    H49   S    
C6    H57   S    
C36   O15   A    
C68   C71   S    
C4    H55   S    
C54   H24   S    
C3    O9    A    
C64   C79   S    
C10   C82   S    
C20   C73   S    
C8    H53   S    
C50   H26   S    
C9    C78   S    
C6    H12   S    
C1    O7    A    
C70   C82   S    
C43   C46   A    
C53   C56   A    
Cr5   O19   S    
C42   H36   S    
C64   H4    S    
C65   H5    S    
Cr3   O15   S    
C4    C82   S    
C26   C29   A    
C69   H39   S    
Cr4   O18   S    
C12   C75   T    
Cr4   O24   S    
C51   H27   S    
C27   H15   S    
C66   H33   S    
C67   C76   S    
C19   O18   A    
C31   C55   S    
C32   C56   S    
C7    H52   S    
C3    C16   S    
C64   H31   S    
C54   C57   A    
C34   O13   A    
