data_mof_unit_22387.cif
_audit_creation_date              2013-03-05T16:06:02-0500
_audit_creation_method            fapswitch 2.2
_symmetry_space_group_name_H-M    P1
_symmetry_Int_Tables_number       1
_space_group_crystal_system       triclinic
_cell_length_a                    10.935972
_cell_length_b                    9.564158
_cell_length_c                    23.610414
_cell_angle_alpha                 89.294008
_cell_angle_beta                  92.461331
_cell_angle_gamma                 88.888336
_cell_volume                      2466.53606749

loop_
_atom_site_label
_atom_site_type_symbol
_atom_site_description
_atom_site_fract_x
_atom_site_fract_y
_atom_site_fract_z
_atom_type_partial_charge
O1    O     O_R   0.319640 0.618740 0.500000 -0.575970
O2    O     O_R   0.680360 0.381260 0.500000 -0.580835
O3    O     O_R   0.680360 0.618740 0.500000 -0.582684
O4    O     O_R   0.319640 0.381260 0.500000 -0.575485
C1    C     C_R   0.262846 0.501257 0.503932 0.801103
C2    C     C_R   0.737589 0.498710 0.497068 0.797932
O5    O     O_R   0.499960 0.618810 0.417880 -0.578745
O6    O     O_R   0.500040 0.381190 0.582120 -0.577910
O7    O     O_R   0.500040 0.618810 0.582120 -0.578130
O8    O     O_R   0.499960 0.381190 0.417880 -0.575927
C3    C     C_R   0.509812 0.500438 0.391016 0.822554
C4    C     C_R   0.500747 0.499510 0.608580 0.817820
Cu1   Cu    Cu3+1 0.500000 0.640660 0.500000 0.988504
Cu2   Cu    Cu3+1 0.500000 0.359340 0.500000 1.001428
C5    C     C_R   0.580084 0.585582 0.880095 0.558493
C6    C     C_R   0.448005 0.406448 0.118243 0.563176
N1    N     N_R   0.511324 0.489893 0.851209 -0.461464
N2    N     N_R   0.533065 0.484249 0.147060 -0.461229
C7    C     C_R   0.446106 0.391612 0.879085 0.557401
C8    C     C_R   0.617238 0.560157 0.119079 0.554252
C9    C     C_R   0.442588 0.391700 0.939081 -0.018097
C10   C     C_R   0.610777 0.571091 0.059136 -0.016601
C11   C     C_R   0.519952 0.485481 0.969154 -0.050542
C12   C     C_R   0.526244 0.485377 0.029114 -0.050970
C13   C     C_R   0.590717 0.580455 0.939330 -0.047897
C14   C     C_R   0.447162 0.399964 0.058996 -0.049497
C15   C     C_R   0.365357 0.303295 0.970208 0.136365
C16   C     C_R   0.683522 0.664629 0.028081 0.136823
C17   C     C_R   0.367517 0.311057 0.029448 -0.136140
C18   C     C_R   0.670428 0.669265 0.968864 -0.137284
O9    O     O_2   0.638649 0.685164 0.851336 -0.527470
O10   O     O_2   0.364362 0.335580 0.146980 -0.525146
O11   O     O_2   0.386132 0.294587 0.848397 -0.534998
O12   O     O_2   0.706262 0.623970 0.149696 -0.536151
H1    H     H_    0.307221 0.245236 0.052832 0.192547
H2    H     H_    0.724733 0.741927 0.945496 0.192382
C19   C     C_R   0.510803 0.616405 0.235256 0.008685
C20   C     C_R   0.398053 0.527986 0.759191 0.008518
C21   C     C_R   0.522663 0.625150 0.294799 0.074617
C22   C     C_R   0.393308 0.527160 0.699393 0.070547
C23   C     C_R   0.529534 0.499573 0.328252 -0.118250
C24   C     C_R   0.502020 0.499019 0.670700 -0.071530
C25   C     C_R   0.557223 0.371609 0.300451 -0.131630
C26   C     C_R   0.613707 0.474060 0.701589 -0.146455
C27   C     C_R   0.562332 0.368225 0.240956 -0.036627
C28   C     C_R   0.615296 0.463440 0.760960 -0.034489
C29   C     C_R   0.533093 0.488856 0.208239 0.217234
C30   C     C_R   0.507947 0.492561 0.789976 0.215444
C31   C     C_R   0.067402 0.376692 0.516520 -0.067502
C32   C     C_R   0.934135 0.623964 0.488502 -0.065599
C33   C     C_R   0.941152 0.371475 0.505816 -0.059499
C34   C     C_R   0.059929 0.628870 0.500209 -0.060379
C35   C     C_R   0.872300 0.496755 0.495233 -0.132640
C36   C     C_R   0.128820 0.503356 0.508619 -0.150998
C37   C     C_R   0.423208 0.077155 0.463400 0.052279
C38   C     C_R   0.576088 0.922586 0.536768 0.039512
C39   C     C_R   0.574181 0.071289 0.537541 0.044707
C40   C     C_R   0.422555 0.928199 0.463756 0.041620
N3    N     N_R   0.500000 0.852070 0.500000 -0.209615
N4    N     N_R   0.500000 0.147930 0.500000 -0.206638
C41   C     C_3   0.276651 0.203077 0.942524 -0.707146
H3    H     H_    0.211911 0.260797 0.912742 0.261494
H4    H     H_    0.327468 0.120649 0.919989 0.264141
H5    H     H_    0.220724 0.148996 0.973959 0.204114
C42   C     C_3   0.772134 0.764913 0.055816 -0.707315
H6    H     H_    0.723527 0.833622 0.085437 0.262143
H7    H     H_    0.848047 0.705875 0.078536 0.264650
H8    H     H_    0.814384 0.834358 0.024393 0.203671
C43   C     C_1   0.474216 0.738808 0.201264 0.303534
N5    N     N_1   0.445017 0.836388 0.174125 -0.242334
C44   C     C_1   0.290257 0.566957 0.789446 0.312238
N6    N     N_1   0.204207 0.598045 0.813631 -0.246513
C45   C     C_3   0.538965 0.768401 0.320470 -0.734481
H9    H     H_    0.606954 0.765192 0.356707 0.250541
H10   H     H_    0.577575 0.843197 0.290008 0.233384
H11   H     H_    0.449750 0.811537 0.332468 0.239607
C46   C     C_3   0.272122 0.557617 0.667485 -0.786261
H12   H     H_    0.277193 0.551201 0.620940 0.208292
H13   H     H_    0.203436 0.480929 0.680565 0.243950
H14   H     H_    0.238999 0.664670 0.677380 0.243831
C47   C     C_1   0.589270 0.243946 0.332122 0.303899
N7    N     N_1   0.615341 0.141915 0.357045 -0.267234
C48   C     C_1   0.728143 0.467988 0.672669 0.315302
N8    N     N_1   0.819674 0.464419 0.649799 -0.251536
C49   C     C_1   0.598642 0.240655 0.212940 0.323162
N9    N     N_1   0.627571 0.138934 0.190605 -0.247613
C50   C     C_1   0.727212 0.422247 0.792461 0.332045
N10   N     N_1   0.816529 0.389343 0.817617 -0.243375
C51   C     C_1   0.131213 0.253976 0.540938 0.300753
N11   N     N_1   0.182339 0.157274 0.560982 -0.238675
C52   C     C_1   0.871994 0.748174 0.464458 0.296536
N12   N     N_1   0.822404 0.846229 0.444709 -0.242425
C53   C     C_1   0.887628 0.234660 0.500328 0.319203
N13   N     N_1   0.847173 0.124550 0.495165 -0.254932
C54   C     C_1   0.113017 0.764535 0.509945 0.316070
N14   N     N_1   0.153636 0.873300 0.518583 -0.258374
C55   C     C_1   0.340219 0.154046 0.424690 0.323588
N15   N     N_1   0.273283 0.214599 0.393502 -0.264330
C56   C     C_1   0.659285 0.845548 0.575360 0.329356
N16   N     N_1   0.726589 0.785218 0.606438 -0.264116
C57   C     C_1   0.650276 0.140795 0.579273 0.324923
N17   N     N_1   0.712609 0.193243 0.613232 -0.272814
C58   C     C_1   0.336656 0.856744 0.426709 0.303621
N18   N     N_1   0.266691 0.800643 0.397102 -0.277494

loop_
_geom_bond_atom_site_label_1
_geom_bond_atom_site_label_2
_geom_bond_distance
_ccdc_geom_bond_type
C50   N10   1.157373 T    
C53   N13   1.155955 T    
C19   C43   1.451131 S    
C15   C17   1.400778 A    
C45   H10   1.110142 S    
C45   H9    1.108874 S    
C54   N14   1.156033 T    
N1    C30   1.444510 S    
C26   C48   1.451654 S    
N2    C29   1.445660 S    
C55   N15   1.157675 T    
C21   C23   1.428282 A    
C46   H12   1.105112 S    
O5    C3    1.309373 A    
C57   N17   1.155597 T    
O1    C1    1.298608 A    
C7    C9    1.418721 A    
C12   C14   1.406659 A    
C43   N5    1.157440 T    
C5    C13   1.398585 A    
C31   C36   1.410763 A    
C38   C39   1.422317 A    
C34   C54   1.448650 S    
C41   H4    1.110025 S    
O7    Cu1   1.947535 S    
C4    C24   1.466079 S    
C15   C41   1.511313 S    
C48   N8    1.157690 T    
C26   C28   1.403552 A    
C31   C33   1.394848 A    
C32   C34   1.393287 A    
C11   C12   1.414380 A    
C19   C29   1.405509 A    
C20   C30   1.410859 A    
O3    Cu1   1.979472 S    
C8    O12   1.347713 S    
O3    C2    1.300831 A    
C27   C29   1.404480 A    
C9    C15   1.426202 A    
C10   C16   1.425611 A    
Cu1   Cu2   2.690589 S    
C23   C25   1.429286 A    
O2    C2    1.298993 A    
C24   C26   1.410176 A    
C34   C36   1.412183 A    
C47   N7    1.157774 T    
C46   H13   1.110535 S    
C6    C14   1.400621 A    
C28   C30   1.409328 A    
C32   C35   1.413916 A    
C1    C36   1.474377 S    
C7    O11   1.347456 S    
C52   N12   1.157061 T    
C39   N4    1.371208 A    
C42   H7    1.109913 S    
C40   N3    1.370479 A    
C49   N9    1.157449 T    
C33   C35   1.416512 A    
C41   H5    1.110976 S    
C27   C49   1.451721 S    
C56   N16   1.157485 T    
O6    C4    1.299347 A    
C42   H8    1.110962 S    
C37   C55   1.444330 S    
C25   C27   1.408970 A    
C33   C53   1.448802 S    
C8    C10   1.416475 A    
C9    C11   1.420556 A    
O8    Cu2   1.947535 S    
C25   C47   1.452987 S    
C45   H11   1.101519 S    
C10   C12   1.420054 A    
O1    Cu1   1.987563 S    
C2    C35   1.475462 S    
Cu2   N4    2.021960 S    
C28   C50   1.449905 S    
C46   H14   1.110354 S    
C13   C18   1.399539 A    
C5    N1    1.366081 A    
C20   C44   1.449399 S    
O6    Cu2   1.952657 S    
C31   C51   1.453912 S    
O4    C1    1.300559 A    
C5    O9    1.350346 S    
Cu1   N3    2.021959 S    
C6    O10   1.349998 S    
C39   C57   1.439591 S    
C17   H1    1.083850 S    
C38   N3    1.369315 A    
C18   H2    1.083865 S    
C16   C18   1.399396 A    
C16   C42   1.511575 S    
C44   N6    1.157368 T    
C19   C21   1.409922 A    
C20   C22   1.410701 A    
C22   C24   1.416353 A    
N1    C7    1.369862 A    
C3    C23   1.506740 S    
N2    C8    1.370113 A    
C21   C45   1.515557 S    
O4    Cu2   1.979474 S    
C41   H3    1.110380 S    
O2    Cu2   1.987562 S    
O7    C4    1.293798 A    
O8    C3    1.306703 A    
C32   C52   1.454055 S    
O5    Cu1   1.952657 S    
C11   C13   1.406467 A    
C14   C17   1.399837 A    
C6    N2    1.366332 A    
C42   H6    1.110507 S    
C37   C40   1.424718 A    
C58   N18   1.158102 T    
C22   C46   1.517444 S    
C40   C58   1.443483 S    
C38   C56   1.444702 S    
C51   N11   1.156887 T    
C37   N4    1.372720 A    
