data_mof_unit_16207.cif
_audit_creation_date              2012-12-10T16:48:46-0500
_audit_creation_method            fapswitch 2.2
_symmetry_space_group_name_H-M    P1
_symmetry_Int_Tables_number       1
_space_group_crystal_system       triclinic
_cell_length_a                    7.85944
_cell_length_b                    8.628944
_cell_length_c                    10.644977
_cell_angle_alpha                 89.681518
_cell_angle_beta                  99.308206
_cell_angle_gamma                 92.447464
_cell_volume                      711.771673004

loop_
_atom_site_label
_atom_site_type_symbol
_atom_type_description
_atom_site_fract_x
_atom_site_fract_y
_atom_site_fract_z
_atom_type_partial_charge
C1    C     C_R   0.544052 0.793729 0.500105 0.885851
C2    C     C_2   0.431252 0.043895 0.482346 0.184807
C3    C     C_3   0.969979 0.404798 0.345103 -0.411069
C4    C     C_3   0.030455 0.593617 0.655401 -0.441768
C5    C     C_R   0.455944 0.206263 0.499876 0.866174
C6    C     C_R   0.571737 0.488053 0.736668 0.782656
C7    C     C_R   0.426369 0.500848 0.263237 0.786504
C8    C     C_2   0.608912 0.459112 0.873390 0.255602
C9    C     C_2   0.380363 0.479410 0.125841 0.246669
C10   C     C_2   0.476145 0.410318 0.930201 -0.119214
C11   C     C_2   0.493633 0.408359 0.066871 -0.128889
C12   C     C_2   0.568758 0.956107 0.517617 0.181998
H1    H     H_    0.612377 0.364746 0.119121 0.171649
H2    H     H_    0.144977 0.664534 0.700032 0.192077
H3    H     H_    0.921099 0.670876 0.646440 0.191046
H4    H     H_    0.015106 0.492737 0.718309 0.193835
H5    H     H_    0.347134 0.389453 0.876726 0.181060
H6    H     H_    0.169393 0.591017 0.115969 0.353390
H7    H     H_    0.847804 0.532819 0.887243 0.347506
H8    H     H_    0.804362 0.933967 0.608462 0.338346
H9    H     H_    0.195698 0.066029 0.391423 0.338471
H10   H     H_    0.855947 0.332755 0.301362 0.173928
H11   H     H_    0.984973 0.504557 0.280991 0.196777
H12   H     H_    0.079694 0.328009 0.354754 0.191523
N1    N     N_2   0.940600 0.458860 0.467170 -0.004573
N2    N     N_2   0.059400 0.541140 0.532830 -0.002382
O1    O     O_R   0.391630 0.738350 0.508060 -0.543275
O2    O     O_3   0.771360 0.486300 0.943909 -0.752655
O3    O     O_3   0.724998 0.018355 0.581184 -0.761604
O4    O     O_3   0.275031 0.981642 0.418757 -0.763937
O5    O     O_R   0.608370 0.261650 0.491940 -0.548390
O6    O     O_R   0.674540 0.711990 0.487010 -0.637032
O7    O     O_R   0.325460 0.288010 0.512990 -0.644750
O8    O     O_R   0.411370 0.508250 0.688780 -0.632054
O9    O     O_R   0.588630 0.491750 0.311220 -0.626660
O10   O     O_R   0.694270 0.481880 0.667740 -0.621105
O11   O     O_R   0.305730 0.518120 0.332260 -0.624845
O12   O     O_3   0.230357 0.534449 0.057098 -0.759361
Zn1   Zn    Zn3+2 0.311100 0.517600 0.514050 0.980014
Zn2   Zn    Zn3+2 0.688900 0.482400 0.485950 0.983681

loop_
_geom_bond_atom_site_label_1
_geom_bond_atom_site_label_2
_ccdc_geom_bond_type
C4    H4    S    
C4    N2    S    
C12   O3    S    
C9    C11   D    
H9    O4    S    
C3    H11   S    
O10   Zn2   S    
C2    O4    S    
C2    C12   D    
C4    H3    S    
O9    Zn2   S    
C7    O11   A    
O11   Zn1   S    
H7    O2    S    
C11   H1    S    
C3    H12   S    
O7    Zn1   S    
C1    C12   S    
C9    O12   S    
C6    O10   A    
H8    O3    S    
O6    Zn2   S    
N1    Zn2   S    
C4    H2    S    
C8    O2    S    
N2    Zn1   S    
C2    C5    S    
C10   C11   S    
C10   H5    S    
O8    Zn1   S    
C7    C9    S    
C3    N1    S    
O5    Zn2   S    
C8    C10   D    
C1    O1    A    
C3    H10   S    
C6    C8    S    
N1    N2    D    
H6    O12   S    
C7    O9    A    
C1    O6    A    
C6    O8    A    
O1    Zn1   S    
C5    O5    A    
C5    O7    A    
