data_mof_unit_57387.cif
_audit_creation_date              2012-12-11T15:10:45-0500
_audit_creation_method            fapswitch 2.2
_symmetry_space_group_name_H-M    P1
_symmetry_Int_Tables_number       1
_space_group_crystal_system       triclinic
_cell_length_a                    21.201416
_cell_length_b                    7.237252
_cell_length_c                    18.242046
_cell_angle_alpha                 90.001099
_cell_angle_beta                  93.296597
_cell_angle_gamma                 90.002246
_cell_volume                      2794.42757053

loop_
_atom_site_label
_atom_site_type_symbol
_atom_type_description
_atom_site_fract_x
_atom_site_fract_y
_atom_site_fract_z
_atom_type_partial_charge
O1    O     O_R   0.448880 0.506250 0.415280 -0.527253
O2    O     O_R   0.551120 0.006250 0.584720 -0.527252
O3    O     O_R   0.434830 0.174000 0.557310 -0.521486
O4    O     O_R   0.565170 0.674000 0.442690 -0.521486
C1    C     C_R   0.416999 0.344592 0.579671 0.697944
C2    C     C_R   0.583000 0.844594 0.420329 0.697944
O5    O     O_R   0.441680 0.176440 0.414130 -0.530926
O6    O     O_R   0.558320 0.676440 0.585870 -0.530917
O7    O     O_R   0.558020 0.007570 0.440520 -0.520056
O8    O     O_R   0.441980 0.507570 0.559480 -0.520063
C3    C     C_R   0.428237 0.344793 0.388240 0.697308
C4    C     C_R   0.571763 0.844803 0.611759 0.697325
O9    O     O_3   0.538160 0.339670 0.508820 -0.366071
O10   O     O_3   0.461840 0.839670 0.491180 -0.366081
V1    V     V_3+5 0.492920 0.064260 0.498360 1.442763
V2    V     V_3+5 0.507080 0.564260 0.501640 1.442762
C5    C     C_R   0.876404 0.930376 0.688411 -0.158523
C6    C     C_R   0.123620 0.431013 0.311590 -0.158524
H1    H     H_    0.964555 0.932191 0.751560 0.115121
H2    H     H_    0.035460 0.432828 0.248458 0.115120
H3    H     H_    0.797408 0.942295 0.570933 0.121061
H4    H     H_    0.202640 0.443251 0.429043 0.121067
H5    H     H_    0.899484 0.933728 0.636925 0.120293
H6    H     H_    0.100550 0.434674 0.363078 0.120296
C7    C     C_R   0.885741 0.938623 0.821085 -0.074547
C8    C     C_R   0.114264 0.438681 0.178911 -0.074571
C9    C     C_R   0.582310 0.799426 0.745246 -0.193490
C10   C     C_R   0.417659 0.298988 0.254780 -0.193430
C11   C     C_R   0.617848 0.775401 0.811004 0.335307
C12   C     C_R   0.382103 0.274769 0.189046 0.335300
C13   C     C_R   0.682778 0.807416 0.814654 -0.128377
C14   C     C_R   0.317183 0.306951 0.185389 -0.128385
C15   C     C_R   0.713644 0.874242 0.753489 0.038914
C16   C     C_R   0.286351 0.374145 0.246515 0.038929
C17   C     C_R   0.677622 0.883943 0.684618 0.064263
C18   C     C_R   0.322387 0.384062 0.315372 0.064274
C19   C     C_R   0.780359 0.911682 0.756719 0.046738
C20   C     C_R   0.219647 0.411739 0.243274 0.046726
C21   C     C_R   0.810407 0.922992 0.689111 0.110681
C22   C     C_R   0.189615 0.423440 0.310880 0.110679
C23   C     C_R   0.774549 0.927816 0.622276 -0.183432
C24   C     C_R   0.225485 0.428474 0.377705 -0.183459
C25   C     C_R   0.709076 0.915630 0.620210 -0.164622
C26   C     C_R   0.290953 0.416121 0.379764 -0.164666
C27   C     C_R   0.819024 0.939140 0.823227 0.174706
C28   C     C_R   0.180981 0.438994 0.176755 0.174709
C29   C     C_R   0.913580 0.930665 0.753682 -0.222386
C30   C     C_R   0.086434 0.431119 0.246326 -0.222413
C31   C     C_R   0.611371 0.849731 0.681315 -0.134022
C32   C     C_R   0.388627 0.349668 0.318685 -0.134039
H7    H     H_    0.532099 0.770162 0.743209 0.147150
H8    H     H_    0.467858 0.269562 0.256826 0.147155
H9    H     H_    0.708764 0.766477 0.864419 0.194446
H10   H     H_    0.291174 0.265850 0.135659 0.194435
H11   H     H_    0.683525 0.921963 0.567138 0.102401
H12   H     H_    0.316516 0.422625 0.432827 0.102470
C33   C     C_1   0.864539 0.938902 0.132093 -0.160422
C34   C     C_1   0.135461 0.438908 0.867906 -0.160376
C35   C     C_1   0.821689 0.924862 0.175855 0.028676
C36   C     C_1   0.178311 0.424868 0.824145 0.028705
C37   C     C_1   0.771145 0.905763 0.228005 0.023515
C38   C     C_1   0.228855 0.405765 0.771995 0.023523
C39   C     C_1   0.728598 0.889146 0.272030 0.021087
C40   C     C_1   0.271402 0.389145 0.727970 0.021088
C41   C     C_1   0.678069 0.870035 0.324201 0.018052
C42   C     C_1   0.321930 0.370030 0.675799 0.018048
C43   C     C_1   0.635245 0.855980 0.367994 -0.190654
C44   C     C_1   0.364755 0.355974 0.632006 -0.190662
O11   O     O_R   0.058070 0.289240 0.940580 -0.524903
O12   O     O_R   0.941930 0.789240 0.059420 -0.524918
O13   O     O_R   0.058330 0.616740 0.085880 -0.522607
O14   O     O_R   0.941670 0.116740 0.914120 -0.522570
C45   C     C_R   0.072149 0.448496 0.111515 0.744620
C46   C     C_R   0.927850 0.948487 0.888486 0.744595
O15   O     O_R   0.065180 0.619040 0.942700 -0.518266
O16   O     O_R   0.934820 0.119040 0.057300 -0.518248
O17   O     O_R   0.948870 0.787780 0.915270 -0.535141
O18   O     O_R   0.051130 0.287780 0.084730 -0.535126
C47   C     C_R   0.083186 0.450310 0.920201 0.729609
C48   C     C_R   0.916814 0.950307 0.079799 0.729559
O19   O     O_3   0.961870 0.453310 0.991210 -0.365395
O20   O     O_3   0.038130 0.953310 0.008790 -0.365409
V3    V     V_3+5 0.007070 0.728770 0.001630 1.487978
V4    V     V_3+5 0.992930 0.228770 0.998370 1.488047
Br1   Br    Br    0.785371 0.023684 0.913821 -0.529683
Br2   Br    Br    0.214645 0.523059 0.086099 -0.529636
Br3   Br    Br    0.577965 0.688090 0.895704 -0.390442
Br4   Br    Br    0.421939 0.186919 0.104400 -0.390455

loop_
_geom_bond_atom_site_label_1
_geom_bond_atom_site_label_2
_ccdc_geom_bond_type
C42   C44   T    
C39   C41   S    
C19   C27   A    
C9    C11   A    
O1    C3    A    
O2    C4    A    
O16   V4    S    
C2    O7    A    
C4    C31   S    
O3    V1    S    
C21   C23   A    
O5    C3    A    
C5    H5    S    
C6    H6    S    
H1    C29   S    
C33   C35   T    
O17   V3    S    
C34   C36   T    
C8    C45   S    
C36   C38   S    
C7    C46   S    
C5    C21   A    
C37   C39   T    
C6    C22   A    
C38   C40   T    
C10   C32   A    
C41   C43   T    
C46   O17   A    
C17   C31   A    
C45   O18   A    
C13   C15   A    
C12   C14   A    
C17   C25   A    
C7    C29   A    
C8    C30   A    
O5    V1    S    
O6    V2    S    
C23   C25   A    
C33   C48   S    
C24   C26   A    
C1    C44   S    
C14   H10   S    
C9    H7    S    
O13   V3    S    
C35   C37   S    
C20   C28   A    
O12   C48   A    
C5    C29   A    
O14   C46   A    
O13   C45   A    
C15   C19   A    
C14   C16   A    
O4    V2    S    
C27   Br1   S    
O12   V3    S    
C26   H12   S    
O6    C4    A    
O1    V2    S    
O14   V4    S    
C13   H9    S    
O2    V1    S    
H2    C30   S    
C34   C47   S    
H3    C23   S    
C25   H11   S    
C2    C43   S    
O11   C47   A    
O4    C2    A    
C12   Br4   S    
C7    C27   A    
O19   V4    S    
C18   C32   A    
C16   C20   A    
O16   C48   A    
O3    C1    A    
C6    C30   A    
C10   C12   A    
O7    V1    S    
C1    O8    A    
C19   C21   A    
O11   V4    S    
O8    V2    S    
C20   C22   A    
C10   H8    S    
O15   V3    S    
H4    C24   S    
C22   C24   A    
C15   C17   A    
C16   C18   A    
C11   Br3   S    
C18   C26   A    
C8    C28   A    
O18   V4    S    
C11   C13   A    
O20   V3    S    
O9    V2    S    
C3    C32   S    
O10   V1    S    
O15   C47   A    
C9    C31   A    
C40   C42   S    
C28   Br2   S    
