data_mof_unit_37868.cif
_audit_creation_date              2012-12-11T15:16:40-0500
_audit_creation_method            fapswitch 2.2
_symmetry_space_group_name_H-M    P1
_symmetry_Int_Tables_number       1
_space_group_crystal_system       triclinic
_cell_length_a                    25.137349
_cell_length_b                    7.228693
_cell_length_c                    21.919969
_cell_angle_alpha                 90.00286
_cell_angle_beta                  110.261418
_cell_angle_gamma                 90.001203
_cell_volume                      3736.61772558

loop_
_atom_site_label
_atom_site_type_symbol
_atom_type_description
_atom_site_fract_x
_atom_site_fract_y
_atom_site_fract_z
_atom_type_partial_charge
O1    O     O_R   0.554350 0.505270 0.581390 -0.530093
O2    O     O_R   0.445650 0.005270 0.418610 -0.530096
O3    O     O_R   0.553380 0.177580 0.454800 -0.535615
O4    O     O_R   0.446620 0.677580 0.545200 -0.535612
C1    C     C_R   0.566739 0.344207 0.439260 0.685038
C2    C     C_R   0.433260 0.844209 0.560739 0.685041
O5    O     O_R   0.560970 0.175640 0.583140 -0.533821
O6    O     O_R   0.439030 0.675640 0.416860 -0.533822
O7    O     O_R   0.453290 0.004120 0.547860 -0.538745
O8    O     O_R   0.546710 0.504120 0.452140 -0.538738
C3    C     C_R   0.576098 0.343928 0.607550 0.674588
C4    C     C_R   0.423901 0.843916 0.392450 0.674574
O9    O     O_3   0.464660 0.338800 0.488280 -0.371524
O10   O     O_3   0.535340 0.838800 0.511720 -0.371517
V1    V     V_3+5 0.506560 0.064420 0.502170 1.409210
V2    V     V_3+5 0.493440 0.564420 0.497830 1.409226
C5    C     C_R   0.148219 0.977197 0.289109 -0.155343
C6    C     C_R   0.851804 0.476716 0.710880 -0.155333
H1    H     H_    0.062934 0.005254 0.222698 0.108668
H2    H     H_    0.937091 0.504753 0.777291 0.108657
H3    H     H_    0.233653 0.971445 0.401504 0.130250
H4    H     H_    0.766378 0.470761 0.598479 0.130254
H5    H     H_    0.135810 0.004294 0.330947 0.119033
H6    H     H_    0.864223 0.503589 0.669036 0.119034
C7    C     C_R   0.120816 0.942090 0.172464 -0.035163
C8    C     C_R   0.879186 0.442027 0.827536 -0.035141
C9    C     C_R   0.396723 0.816255 0.273750 -0.158374
C10   C     C_R   0.603260 0.316592 0.726256 -0.158392
C11   C     C_R   0.357372 0.814536 0.210922 -0.114233
C12   C     C_R   0.642606 0.314999 0.789088 -0.114226
C13   C     C_R   0.300034 0.845118 0.199790 -0.156766
C14   C     C_R   0.699950 0.345454 0.800218 -0.156765
C15   C     C_R   0.280280 0.878850 0.251859 0.076599
C16   C     C_R   0.719716 0.378922 0.748143 0.076594
C17   C     C_R   0.321193 0.881921 0.316526 0.069168
C18   C     C_R   0.678810 0.381845 0.683471 0.069173
C19   C     C_R   0.221397 0.909418 0.241896 0.073483
C20   C     C_R   0.778605 0.409372 0.758104 0.073488
C21   C     C_R   0.205239 0.943918 0.296914 0.135455
C22   C     C_R   0.794776 0.443587 0.703079 0.135449
C23   C     C_R   0.245965 0.945738 0.359503 -0.195801
C24   C     C_R   0.754056 0.445267 0.640485 -0.195799
C25   C     C_R   0.302902 0.914884 0.369259 -0.193633
C26   C     C_R   0.697113 0.414542 0.630732 -0.193608
C27   C     C_R   0.177778 0.907802 0.179484 -0.211987
C28   C     C_R   0.822218 0.407901 0.820521 -0.211977
C29   C     C_R   0.106557 0.977426 0.227497 -0.163026
C30   C     C_R   0.893460 0.477066 0.772495 -0.163040
C31   C     C_R   0.379625 0.850185 0.326972 -0.078714
C32   C     C_R   0.620371 0.350248 0.673028 -0.078695
H7    H     H_    0.186557 0.882533 0.135455 0.095129
H8    H     H_    0.813428 0.382847 0.864555 0.095111
H9    H     H_    0.440977 0.790633 0.280971 0.105003
H10   H     H_    0.559001 0.291092 0.719037 0.104995
H11   H     H_    0.272278 0.841280 0.149784 0.111105
H12   H     H_    0.727701 0.341732 0.850226 0.111107
H13   H     H_    0.371437 0.788480 0.170280 0.125395
H14   H     H_    0.628532 0.289151 0.829735 0.125396
H15   H     H_    0.332618 0.917447 0.418718 0.110727
H16   H     H_    0.667401 0.416990 0.581270 0.110676
C33   C     C_R   0.116228 0.768736 0.875739 -0.160822
C34   C     C_R   0.883772 0.268742 0.124259 -0.160822
H17   H     H_    0.097480 0.641376 0.884720 0.123148
H18   H     H_    0.902519 0.141382 0.115277 0.123150
C35   C     C_R   0.151809 0.760685 0.838788 -0.138433
C36   C     C_R   0.848191 0.260692 0.161211 -0.138434
H19   H     H_    0.159448 0.627425 0.820800 0.135419
H20   H     H_    0.840553 0.127432 0.179197 0.135419
C37   C     C_R   0.177135 0.921882 0.825308 0.020938
C38   C     C_R   0.822865 0.421887 0.174693 0.020939
C39   C     C_R   0.166016 0.091449 0.850058 -0.136910
C40   C     C_R   0.833985 0.591453 0.149945 -0.136907
H21   H     H_    0.184647 0.218522 0.840645 0.138053
H22   H     H_    0.815354 0.718526 0.159360 0.138054
C41   C     C_R   0.130182 0.099730 0.886805 -0.161220
C42   C     C_R   0.869819 0.599734 0.113197 -0.161221
H23   H     H_    0.122471 0.233117 0.904641 0.123415
H24   H     H_    0.877530 0.733120 0.095363 0.123414
C43   C     C_R   0.104667 0.938451 0.900131 -0.046659
C44   C     C_R   0.895333 0.438456 0.099869 -0.046659
N1    N     N_R   0.244008 0.063245 0.777686 -0.282209
N2    N     N_R   0.755992 0.563250 0.222317 -0.282203
N3    N     N_R   0.277359 0.054012 0.741818 -0.282436
N4    N     N_R   0.722642 0.554014 0.258185 -0.282433
C45   C     C_R   0.282544 0.893839 0.711803 0.523979
C46   C     C_R   0.717457 0.393840 0.288198 0.523965
N5    N     N_R   0.252993 0.743494 0.719479 -0.283673
N6    N     N_R   0.747008 0.243495 0.280520 -0.283669
N7    N     N_R   0.219825 0.752559 0.755449 -0.285402
N8    N     N_R   0.780176 0.252561 0.244550 -0.285399
C47   C     C_R   0.214515 0.912568 0.785367 0.513681
C48   C     C_R   0.785486 0.412573 0.214634 0.513668
C49   C     C_R   0.318748 0.724037 0.634014 -0.129750
C50   C     C_R   0.681249 0.224035 0.365979 -0.129752
H25   H     H_    0.289864 0.612297 0.633465 0.143378
H26   H     H_    0.710131 0.112295 0.366524 0.143379
C51   C     C_R   0.354137 0.707678 0.596556 0.142690
C52   C     C_R   0.645860 0.207674 0.403438 0.142674
C53   C     C_R   0.392791 0.853041 0.597432 -0.059528
C54   C     C_R   0.607209 0.353038 0.402567 -0.059524
C55   C     C_R   0.392676 0.012221 0.634587 -0.196725
C56   C     C_R   0.607326 0.512217 0.365418 -0.196715
H27   H     H_    0.421210 0.126061 0.636451 0.129411
H28   H     H_    0.578795 0.626058 0.363558 0.129408
C57   C     C_R   0.356754 0.026718 0.670940 -0.143029
C58   C     C_R   0.643249 0.526716 0.329065 -0.143032
H29   H     H_    0.358566 0.150955 0.699195 0.147168
H30   H     H_    0.641439 0.650953 0.300815 0.147168
C59   C     C_R   0.319802 0.881988 0.671733 -0.020837
C60   C     C_R   0.680199 0.381987 0.328267 -0.020831
O11   O     O_R   0.953220 0.285790 0.047790 -0.537676
O12   O     O_R   0.046780 0.785790 0.952210 -0.537679
O13   O     O_R   0.939020 0.617570 0.916840 -0.533990
O14   O     O_R   0.060980 0.117570 0.083160 -0.533995
C61   C     C_R   0.923957 0.448684 0.892429 0.682408
C62   C     C_R   0.076044 0.948697 0.107571 0.682405
O15   O     O_R   0.946600 0.615450 0.045180 -0.541270
O16   O     O_R   0.053400 0.115450 0.954820 -0.541269
O17   O     O_R   0.054370 0.786770 0.081410 -0.531085
O18   O     O_R   0.945630 0.286770 0.918590 -0.531087
C63   C     C_R   0.934275 0.447104 0.061671 0.676425
C64   C     C_R   0.065725 0.947102 0.938329 0.676432
O19   O     O_3   0.035300 0.454160 0.011680 -0.373099
O20   O     O_3   0.964700 0.954160 0.988320 -0.373095
V3    V     V_3+5 0.993450 0.728620 0.997830 1.411446
V4    V     V_3+5 0.006550 0.228620 0.002170 1.411451
C65   C     C_3   0.348202 0.536143 0.555415 -0.740337
H31   H     H_    0.340853 0.575287 0.504140 0.204953
H32   H     H_    0.386849 0.449405 0.574749 0.217019
H33   H     H_    0.311751 0.449369 0.555500 0.195544
C66   C     C_3   0.651790 0.036138 0.444571 -0.740323
H34   H     H_    0.659143 0.075284 0.495848 0.204948
H35   H     H_    0.613140 0.949402 0.425234 0.217017
H36   H     H_    0.688239 0.949361 0.444479 0.195548

loop_
_geom_bond_atom_site_label_1
_geom_bond_atom_site_label_2
_ccdc_geom_bond_type
C36   H20   S    
C49   C51   A    
C9    C11   A    
O1    C3    A    
C40   C42   A    
C66   H36   S    
O2    C4    A    
C2    O7    A    
C4    C31   S    
O3    V1    S    
C21   C23   A    
H4    C24   S    
O5    C3    A    
C57   H29   S    
C5    H5    S    
C6    H6    S    
C34   C44   A    
C46   C60   S    
C42   H24   S    
C45   C59   S    
C5    C21   A    
O14   V4    S    
C46   N6    A    
O11   C63   A    
C50   C52   A    
C28   H8    S    
C33   C43   A    
N2    C48   A    
C33   H17   S    
O16   C64   A    
C37   C39   A    
O15   C63   A    
C8    C61   S    
C34   H18   S    
C51   C53   A    
C10   C32   A    
C35   H19   S    
C52   C66   S    
C17   C31   A    
C13   C15   A    
N7    C47   A    
C17   C25   A    
C7    C29   A    
C16   C18   A    
C8    C30   A    
O5    V1    S    
C55   H27   S    
C11   C13   A    
C23   C25   A    
C24   C26   A    
N1    N3    A    
C44   C63   S    
C45   N5    A    
C55   C57   A    
C49   H25   S    
C43   C64   S    
C39   C41   A    
C34   C36   A    
C9    C31   A    
C12   C14   A    
C42   C44   A    
C40   H22   S    
C7    C62   S    
C39   H21   S    
C10   H10   S    
O19   V4    S    
C66   H35   S    
C50   C60   A    
C15   C19   A    
C14   C16   A    
O4    V2    S    
C50   H26   S    
C65   H32   S    
O12   C64   A    
N8    C48   A    
C1    C54   S    
O6    C4    A    
O11   V4    S    
C54   C56   A    
H1    C29   S    
O1    V2    S    
C56   H28   S    
O2    V1    S    
C41   H23   S    
O12   V3    S    
H2    C30   S    
H3    C23   S    
O17   V3    S    
O4    C2    A    
N3    C45   A    
N6    N8    A    
N2    N4    A    
N5    N7    A    
C18   C26   A    
C19   C27   A    
C66   H34   S    
C7    C27   A    
C18   C32   A    
O15   V3    S    
C58   C60   A    
C51   C65   S    
C57   C59   A    
C53   C55   A    
C16   C20   A    
C38   C48   S    
C5    C29   A    
C11   H13   S    
O3    C1    A    
C6    C30   A    
O14   C62   A    
C9    H9    S    
C25   H15   S    
C52   C54   A    
C62   O17   A    
C2    C53   S    
C10   C12   A    
O7    V1    S    
C65   H33   S    
C1    O8    A    
C19   C21   A    
C3    C32   S    
O8    V2    S    
C20   C22   A    
C36   C38   A    
C58   H30   S    
C26   H16   S    
C35   C37   A    
C12   H14   S    
O13   V3    S    
C22   C24   A    
C15   C17   A    
C56   C58   A    
O18   V4    S    
C20   C28   A    
C8    C28   A    
N1    C47   A    
C33   C35   A    
C6    C22   A    
O6    V2    S    
C61   O18   A    
O9    V2    S    
C27   H7    S    
O10   V1    S    
N4    C46   A    
C38   C40   A    
O16   V4    S    
C13   H11   S    
C37   C47   S    
C41   C43   A    
C14   H12   S    
C65   H31   S    
C49   C59   A    
O20   V3    S    
O13   C61   A    
