data_mof_unit_46235.cif
_audit_creation_date              2012-12-10T17:45:20-0500
_audit_creation_method            fapswitch 2.2
_symmetry_space_group_name_H-M    P1
_symmetry_Int_Tables_number       1
_space_group_crystal_system       triclinic
_cell_length_a                    17.846801
_cell_length_b                    17.865462
_cell_length_c                    17.944002
_cell_angle_alpha                 115.584637
_cell_angle_beta                  92.439201
_cell_angle_gamma                 69.80025
_cell_volume                      4804.3976704

loop_
_atom_site_label
_atom_site_type_symbol
_atom_type_description
_atom_site_fract_x
_atom_site_fract_y
_atom_site_fract_z
_atom_type_partial_charge
C1    C     C_R   0.464207 0.462784 0.287827 0.794842
C2    C     C_R   0.915216 0.596007 0.579384 -0.190997
C3    C     C_R   0.955609 0.645095 0.636726 0.318514
C4    C     C_R   0.535870 0.535791 0.712040 0.814676
C5    C     C_R   0.038555 0.622965 0.616846 0.009928
C6    C     C_R   0.077769 0.556534 0.535718 0.053394
C7    C     C_R   0.083466 0.665783 0.675522 -0.086485
C8    C     C_R   0.165156 0.643345 0.655305 -0.214163
C9    C     C_R   0.160566 0.535438 0.517176 -0.200799
C10   C     C_R   0.551947 0.549481 0.797221 -0.035647
C11   C     C_R   0.452300 0.446482 0.202544 0.013206
C12   C     C_R   0.822381 0.387819 0.333580 -0.350893
C13   C     C_R   0.614302 0.610144 0.920417 -0.153208
C14   C     C_R   0.600238 0.597852 0.839762 -0.146952
C15   C     C_R   0.518683 0.512911 0.835949 -0.241000
C16   C     C_R   0.464067 0.730245 0.554562 0.892177
C17   C     C_R   0.534085 0.521807 0.916417 0.090407
C18   C     C_R   0.581371 0.573052 0.959138 0.140889
C19   C     C_R   0.502996 0.482478 0.955905 0.073681
C20   C     C_R   0.514841 0.500765 0.040265 0.071338
C21   C     C_R   0.562481 0.552266 0.080265 -0.194895
C22   C     C_R   0.595428 0.586978 0.040091 -0.154481
C23   C     C_R   0.846322 0.460696 0.477142 0.355478
C24   C     C_R   0.461953 0.424003 0.913249 -0.205288
C25   C     C_R   0.430496 0.387634 0.952564 -0.206911
C26   C     C_R   0.438237 0.408034 0.035800 0.159364
C27   C     C_R   0.479923 0.465370 0.081142 0.096786
C28   C     C_R   0.536264 0.268844 0.445244 0.871251
C29   C     C_R   0.405146 0.370540 0.073923 -0.163844
C30   C     C_R   0.412832 0.389109 0.156849 -0.188285
C31   C     C_R   0.484756 0.484972 0.165849 -0.228788
C32   C     C_R   0.554506 0.173278 0.421863 -0.133566
C33   C     C_R   0.451237 0.823484 0.579206 -0.103663
C34   C     C_R   0.914705 0.469057 0.448760 -0.077821
C35   C     C_R   0.628951 0.014852 0.335720 0.370869
C36   C     C_R   0.609234 0.104671 0.351666 0.367667
C37   C     C_R   0.519448 0.151355 0.473874 -0.285089
C38   C     C_R   0.535579 0.062370 0.457125 -0.003144
C39   C     C_R   0.583064 0.993732 0.381385 -0.184582
C40   C     C_R   0.288463 0.554922 0.554337 0.773067
C41   C     C_R   0.504960 0.040493 0.513854 0.063719
C42   C     C_R   0.512077 0.951050 0.489394 -0.017919
C43   C     C_R   0.560694 0.883465 0.413859 0.332761
C44   C     C_R   0.585437 0.906155 0.355671 0.340585
C45   C     C_R   0.944192 0.420531 0.362597 0.065618
C46   C     C_R   0.474472 0.103964 0.597287 -0.192415
C47   C     C_R   0.452515 0.080238 0.654689 -0.125034
C48   C     C_R   0.453950 0.994182 0.630076 0.052598
C49   C     C_R   0.475656 0.931339 0.544796 -0.069330
C50   C     C_R   0.435374 0.969605 0.689770 0.477916
C51   C     C_R   0.439416 0.882066 0.663850 -0.391391
C52   C     C_R   0.712728 0.445835 0.446293 0.924131
C53   C     C_R   0.460769 0.850925 0.519307 0.457036
C54   C     C_R   0.795819 0.429299 0.419014 -0.182742
C55   C     C_R   0.203321 0.578484 0.576245 0.022836
C56   C     C_R   0.954927 0.523757 0.502933 0.072601
C57   C     C_R   0.898230 0.378965 0.304919 0.465595
C58   C     C_R   0.033761 0.511304 0.476659 0.084517
C59   C     C_R   0.064563 0.456412 0.391701 -0.220861
C60   C     C_R   0.019189 0.414719 0.335396 -0.112524
H1    H     H_    0.043813 0.376913 0.270216 0.203376
H2    H     H_    0.577329 0.565520 0.142333 0.148164
H3    H     H_    0.454614 0.402590 0.848325 0.149197
H4    H     H_    0.194513 0.483214 0.458425 0.118758
H5    H     H_    0.373903 0.326199 0.039292 0.154703
H6    H     H_    0.431617 0.859932 0.709529 0.164291
H7    H     H_    0.434465 0.130139 0.718970 0.195824
H8    H     H_    0.476561 0.205308 0.525909 0.186919
H9    H     H_    0.473357 0.171163 0.622301 0.147612
H10   H     H_    0.198638 0.676777 0.701322 0.144809
H11   H     H_    0.784039 0.362032 0.288954 0.189594
H12   H     H_    0.056650 0.716281 0.737689 0.221649
H13   H     H_    0.121512 0.448870 0.365631 0.148118
H14   H     H_    0.851211 0.616306 0.593596 0.225173
H15   H     H_    0.552007 0.727917 0.240395 0.362456
H16   H     H_    0.433925 0.839586 0.410206 0.360014
H17   H     H_    0.841947 0.946248 0.266841 0.394879
H18   H     H_    0.663300 0.075646 0.245600 0.379925
H19   H     H_    0.635809 0.760476 0.356646 0.364548
H20   H     H_    0.406281 0.002129 0.806017 0.347823
H21   H     H_    0.934665 0.649546 0.797255 0.360917
H22   H     H_    0.887080 0.308858 0.189443 0.350819
H23   H     H_    0.631943 0.625605 0.073013 0.203290
H24   H     H_    0.914335 0.458663 0.672400 0.386766
H25   H     H_    0.513281 0.529650 0.205395 0.133736
H26   H     H_    0.388217 0.358706 0.185369 0.139055
H27   H     H_    0.399761 0.342924 0.917256 0.157510
H28   H     H_    0.651022 0.648756 0.952636 0.182270
H29   H     H_    0.626634 0.626754 0.811028 0.199849
H30   H     H_    0.479603 0.479196 0.802259 0.163873
O1    O     O_3   0.500000 0.500000 0.500000 -0.516000
O2    O     O_R   0.309700 0.585900 0.509470 -0.635561
O3    O     O_R   0.674980 0.398780 0.398780 -0.639971
O4    O     O_R   0.340340 0.501790 0.578230 -0.636401
O5    O     O_R   0.674980 0.513530 0.513520 -0.587095
O6    O     O_2   0.571113 0.884612 0.197604 -0.227801
O7    O     O_2   0.673268 0.762452 0.215810 -0.263815
O8    O     O_3   0.522837 0.784473 0.237162 -0.538498
O9    O     O_3   0.451297 0.800364 0.438289 -0.704731
O10   O     O_2   0.757449 0.867034 0.311644 -0.252816
O11   O     O_2   0.722271 0.895043 0.189631 -0.218863
O12   O     O_R   0.524320 0.685780 0.578230 -0.640263
O13   O     O_3   0.790372 0.992038 0.300440 -0.516334
O14   O     O_3   0.644955 0.126978 0.301512 -0.682935
O15   O     O_3   0.589345 0.795807 0.401055 -0.723523
O16   O     O_3   0.417598 0.030331 0.773008 -0.761438
O17   O     O_2   0.908053 0.817760 0.745315 -0.239931
O18   O     O_2   0.812521 0.744307 0.735601 -0.238910
O19   O     O_3   0.937480 0.708495 0.811295 -0.514488
O20   O     O_3   0.926673 0.333826 0.220936 -0.753729
O21   O     O_2   0.775987 0.547432 0.637085 -0.286044
O22   O     O_2   0.811178 0.386110 0.566449 -0.279464
O23   O     O_R   0.567430 0.291230 0.398780 -0.570079
O24   O     O_3   0.926732 0.445710 0.613841 -0.547490
O25   O     O_R   0.417260 0.532000 0.348010 -0.620252
O26   O     O_R   0.490990 0.490990 0.674980 -0.649590
O27   O     O_R   0.524330 0.409580 0.302030 -0.637210
O28   O     O_R   0.567420 0.567430 0.674980 -0.618827
O29   O     O_R   0.417260 0.693460 0.509470 -0.605452
O30   O     O_R   0.490990 0.329540 0.513520 -0.659413
S1    S     S_3+6 0.590783 0.833418 0.248327 0.062604
S2    S     S_3+6 0.726081 0.937603 0.281805 0.086516
S3    S     S_3+6 0.900178 0.732271 0.733195 0.062058
S4    S     S_3+6 0.837538 0.460867 0.576223 0.035032
Zn1   Zn    Zn3+2 0.565540 0.565550 0.565540 1.054345
Zn2   Zn    Zn3+2 0.412570 0.576510 0.467300 1.006361
Zn3   Zn    Zn3+2 0.456340 0.456340 0.565550 0.969359
Zn4   Zn    Zn3+2 0.565550 0.401610 0.401610 1.040009

loop_
_geom_bond_atom_site_label_1
_geom_bond_atom_site_label_2
_ccdc_geom_bond_type
O8    S1    S    
C45   C60   A    
C34   C56   A    
C31   H25   S    
O1    Zn2   S    
C9    H4    S    
C41   C42   A    
C6    C58   A    
C35   C36   A    
C1    C11   S    
O17   S3    D    
O12   Zn1   S    
C6    C9    A    
O30   Zn3   S    
C7    C8    A    
O23   Zn4   S    
O4    Zn3   S    
C53   O9    S    
H16   O9    S    
C45   C57   A    
C26   C27   A    
C29   C30   A    
O25   Zn2   S    
O1    Zn3   S    
C13   C18   A    
C32   C36   A    
O22   S4    D    
C10   C15   A    
C38   C39   A    
C37   H8    S    
H20   O16   S    
C44   S1    S    
C25   H27   S    
H19   O15   S    
C52   O5    A    
C43   O15   S    
C46   H9    S    
O7    S1    D    
C47   C48   A    
C11   C30   A    
C3    S3    S    
O26   Zn3   S    
C41   C46   A    
C9    C55   A    
O28   Zn1   S    
C30   H26   S    
C59   H13   S    
C2    H14   S    
O24   S4    S    
C23   C34   A    
C48   C50   A    
C11   C31   A    
C59   C60   A    
C13   C14   A    
C4    O28   A    
C8    C55   A    
C47   H7    S    
C52   C54   S    
C50   C51   A    
C33   C53   A    
O1    Zn4   S    
H18   O14   S    
C28   C32   S    
C24   C25   A    
C38   C41   A    
C28   O30   A    
C16   O29   A    
C7    H12   S    
C5    C7    A    
O19   S3    S    
C58   C59   A    
C27   C31   A    
H15   O8    S    
C60   H1    S    
C51   H6    S    
C35   C39   A    
C43   C44   A    
C14   H29   S    
C37   C38   A    
C16   C33   S    
O5    Zn1   S    
C57   O20   S    
C40   C55   S    
C17   C18   A    
C52   O3    A    
C34   C45   A    
C1    O27   A    
C32   C37   A    
C40   O2    A    
C21   H2    S    
C39   C44   A    
C29   H5    S    
C12   C57   A    
O6    S1    D    
C16   O12   A    
C48   C49   A    
C12   H11   S    
H21   O19   S    
C24   H3    S    
C10   C14   A    
H17   O13   S    
C42   C43   A    
O18   S3    D    
C4    C10   S    
H22   O20   S    
C23   C54   A    
C15   C17   A    
C46   C47   A    
H24   O24   S    
O1    Zn1   S    
O21   S4    D    
C18   C22   A    
C4    O26   A    
C35   S2    S    
C40   O4    A    
C3    C5    A    
O2    Zn2   S    
C23   S4    S    
C20   C27   A    
C33   C51   A    
C8    H10   S    
O11   S2    D    
C36   O14   S    
C22   H23   S    
C19   C20   A    
C2    C3    A    
C25   C26   A    
O3    Zn4   S    
C2    C56   A    
C15   H30   S    
C5    C6    A    
C49   C53   A    
C13   H28   S    
C17   C19   A    
C56   C58   A    
C19   C24   A    
O10   S2    D    
O27   Zn4   S    
C28   O23   A    
C42   C49   A    
O29   Zn2   S    
C20   C21   A    
C26   C29   A    
C50   O16   S    
C1    O25   A    
C21   C22   A    
O13   S2    S    
C12   C54   A    
