data_mof_unit_46364.cif
_audit_creation_date              2012-12-11T15:29:51-0500
_audit_creation_method            fapswitch 2.2
_symmetry_space_group_name_H-M    P1
_symmetry_Int_Tables_number       1
_space_group_crystal_system       triclinic
_cell_length_a                    8.264552
_cell_length_b                    15.025112
_cell_length_c                    19.045217
_cell_angle_alpha                 96.271236
_cell_angle_beta                  95.106942
_cell_angle_gamma                 97.641163
_cell_volume                      2317.02578946

loop_
_atom_site_label
_atom_site_type_symbol
_atom_type_description
_atom_site_fract_x
_atom_site_fract_y
_atom_site_fract_z
_atom_type_partial_charge
Ba1   Ba    Ba6+2 0.161760 0.544680 0.467770 1.645605
Ba2   Ba    Ba6+2 0.648420 0.455310 0.532170 1.649929
C1    C     C_3   0.348992 0.754561 0.205345 -0.325694
C2    C     C_R   0.102130 0.075956 0.541264 -0.131615
C3    C     C_R   0.951866 0.891613 0.535561 -0.129504
C4    C     C_3   0.945589 0.797446 0.310586 0.459446
C5    C     C_R   0.097739 0.925882 0.579560 0.373745
C6    C     C_R   0.182425 0.011366 0.574067 0.317252
C7    C     C_R   0.883995 0.798096 0.526558 0.063087
C8    C     C_R   0.727745 0.771479 0.490686 -0.312031
C9    C     C_R   0.921086 0.204255 0.481802 0.074005
C10   C     C_R   0.856170 0.110176 0.471574 0.012580
C11   C     C_R   0.942782 0.046900 0.504360 -0.036643
C12   C     C_3   0.373832 0.731941 0.281027 0.323677
C13   C     C_R   0.707206 0.077011 0.429482 -0.053617
C14   C     C_R   0.638121 0.986180 0.424139 -0.140148
C15   C     C_R   0.713514 0.924165 0.461210 -0.025112
C16   C     C_3   0.029854 0.889603 0.295723 -0.350685
C17   C     C_R   0.870204 0.953944 0.499694 -0.046486
C18   C     C_R   0.638441 0.832992 0.460532 -0.001590
C19   C     C_R   0.074463 0.231502 0.521029 -0.269682
C20   C     C_R   0.608425 0.539575 0.299025 -0.334220
C21   C     C_R   0.457426 0.487515 0.274113 0.034087
C22   C     C_R   0.405733 0.472087 0.200257 0.332004
C23   C     C_3   0.569604 0.731569 0.654434 0.375228
C24   C     C_R   0.511412 0.509331 0.152057 -0.044343
C25   C     C_R   0.665853 0.557992 0.178926 -0.120906
C26   C     C_R   0.714861 0.571691 0.251715 0.055613
C27   C     C_R   0.466620 0.573132 0.036057 0.412845
C28   C     C_3   0.707680 0.321375 0.310099 0.401724
C29   C     C_R   0.409527 0.560632 0.963182 -0.136122
C30   C     C_R   0.358483 0.473669 0.926948 0.008333
C31   C     C_R   0.366471 0.398561 0.963974 -0.127026
C32   C     C_R   0.422284 0.409979 0.036393 -0.145730
C33   C     C_R   0.466459 0.497117 0.073697 0.016835
C34   C     C_3   0.603008 0.831648 0.683979 -0.088439
C35   C     C_R   0.142908 0.418717 0.823509 -0.097484
C36   C     C_R   0.088724 0.415154 0.750968 -0.031757
C37   C     C_R   0.348786 0.497931 0.731331 0.059543
C38   C     C_R   0.403079 0.503143 0.803428 -0.118759
C39   C     C_R   0.301940 0.462386 0.850020 0.011744
C40   C     C_3   0.604484 0.264187 0.246437 -0.311259
C41   C     C_R   0.195316 0.450569 0.704888 -0.259121
C42   C     C_3   0.046125 0.641427 0.681066 0.315424
C43   C     C_3   0.082432 0.661220 0.761461 -0.411059
C44   C     C_3   0.247078 0.272225 0.376681 0.301562
C45   C     C_3   0.888954 0.208688 0.726299 0.472560
C46   C     C_3   0.212108 0.170155 0.355852 -0.399162
C47   C     C_3   0.231289 0.151294 0.890948 0.117764
C48   C     C_3   0.106300 0.914304 0.697098 0.201010
C49   C     C_3   0.445964 0.986116 0.572383 0.250172
C50   C     C_3   0.636073 0.708619 0.043053 0.142118
C51   C     C_3   0.146928 0.450390 0.136650 0.226085
C52   C     C_3   0.856295 0.137294 0.776733 -0.322053
C53   C     C_3   0.324167 0.205697 0.714948 0.470517
C54   C     C_3   0.371384 0.181509 0.790192 0.577995
C55   C     C_R   0.169923 0.169196 0.547266 0.004514
H1    H     H_    0.262790 0.689898 0.292905 0.125073
H2    H     H_    0.133459 0.297187 0.391436 0.018679
H3    H     H_    0.342900 0.286934 0.422673 0.061367
H4    H     H_    0.309167 0.691239 0.168740 0.117991
H5    H     H_    0.113969 0.153486 0.310745 0.132831
H6    H     H_    0.171755 0.135469 0.400935 0.055865
H7    H     H_    0.324900 0.144226 0.340072 0.107530
H8    H     H_    0.475946 0.691740 0.284677 -0.005397
H9    H     H_    0.465736 0.789287 0.190295 0.142487
H10   H     H_    0.689129 0.707453 0.647338 -0.004504
H11   H     H_    0.494722 0.724210 0.602081 -0.004190
H12   H     H_    0.520893 0.209400 0.264711 0.109283
H13   H     H_    0.680148 0.869531 0.648961 -0.017543
H14   H     H_    0.484380 0.858657 0.684886 0.137163
H15   H     H_    0.253203 0.799284 0.200167 0.128616
H16   H     H_    0.999725 0.944441 0.334311 0.066191
H17   H     H_    0.018865 0.238765 0.739430 0.003040
H18   H     H_    0.733029 0.097816 0.762403 0.097910
H19   H     H_    0.948033 0.089688 0.773438 0.069050
H20   H     H_    0.865045 0.170400 0.832269 0.114619
H21   H     H_    0.211423 0.159310 0.692106 -0.066117
H22   H     H_    0.298379 0.276727 0.719132 -0.079274
H23   H     H_    0.530184 0.306593 0.216475 0.096879
H24   H     H_    0.989793 0.789019 0.366170 0.055222
H25   H     H_    0.521288 0.966106 0.392491 0.109894
H26   H     H_    0.640223 0.120785 0.400541 0.094520
H27   H     H_    0.674041 0.701142 0.486483 0.073198
H28   H     H_    0.125045 0.302442 0.527389 0.053959
H29   H     H_    0.521761 0.541337 0.823608 0.078476
H30   H     H_    0.400814 0.618864 0.934957 0.070375
H31   H     H_    0.330149 0.331182 0.936741 0.119419
H32   H     H_    0.426373 0.350811 0.063929 0.109280
H33   H     H_    0.059770 0.391661 0.859341 0.071075
H34   H     H_    0.684909 0.232842 0.210172 0.098659
H35   H     H_    0.750867 0.582563 0.142893 0.085831
H36   H     H_    0.152849 0.448950 0.649275 0.050978
H37   H     H_    0.648653 0.549595 0.355341 0.082537
H38   H     H_    0.164802 0.892058 0.301382 0.145778
H39   H     H_    0.989245 0.902334 0.240994 0.116464
H40   H     H_    0.624002 0.352560 0.344300 0.039129
H41   H     H_    0.794067 0.816405 0.756235 0.176916
H42   H     H_    0.715693 0.913440 0.772110 0.161624
H43   H     H_    0.920219 0.108969 0.648379 0.108355
H44   H     H_    0.737923 0.145816 0.638919 0.230376
H45   H     H_    0.151487 0.616113 0.658031 0.007831
H46   H     H_    0.350515 0.160117 0.924530 0.025297
H47   H     H_    0.185280 0.078399 0.874619 0.061996
H48   H     H_    0.141374 0.178592 0.924228 0.059336
H49   H     H_    0.560399 0.224156 0.871139 0.145734
H50   H     H_    0.499880 0.307364 0.827753 0.182193
H51   H     H_    0.461567 0.068757 0.742477 0.206916
H52   H     H_    0.466313 0.073330 0.830566 0.139992
H53   H     H_    0.970537 0.903309 0.694835 -0.003701
H54   H     H_    0.150904 0.987584 0.710981 0.058041
H55   H     H_    0.156441 0.878598 0.740260 0.081208
H56   H     H_    0.936276 0.589359 0.668444 0.074279
H57   H     H_    0.422261 0.912357 0.575465 0.057459
H58   H     H_    0.573369 0.010480 0.596224 0.032550
H59   H     H_    0.436227 0.998806 0.516099 0.041998
H60   H     H_    0.588239 0.736471 0.994974 0.041969
H61   H     H_    0.735136 0.667616 0.030599 0.015790
H62   H     H_    0.692253 0.766828 0.082480 0.078406
H63   H     H_    0.737344 0.858074 0.321599 0.167762
H64   H     H_    0.720621 0.749905 0.335811 0.103847
H65   H     H_    0.174395 0.525311 0.138239 0.030006
H66   H     H_    0.025890 0.433675 0.156519 0.079512
H67   H     H_    0.198734 0.708620 0.775524 0.136462
H68   H     H_    0.132282 0.418964 0.080662 0.024848
H69   H     H_    0.908951 0.362759 0.260091 0.207882
H70   H     H_    0.873773 0.435149 0.329445 0.209351
H71   H     H_    0.093765 0.598269 0.785407 0.065737
H72   H     H_    0.980886 0.692239 0.784194 0.113092
N1    N     N_3   0.684368 0.843919 0.756394 -0.472464
N2    N     N_3   0.863274 0.167072 0.652468 -0.500219
N3    N     N_3   0.523129 0.240380 0.820843 -0.447803
N4    N     N_3   0.395844 0.085411 0.785129 -0.512749
N5    N     N_3   0.767755 0.795288 0.302500 -0.486501
N6    N     N_3   0.817387 0.392002 0.284832 -0.528392
O1    O     O_2   0.165020 0.721890 0.541560 -0.426425
O2    O     O_2   0.767042 0.445096 0.748375 -0.481380
O3    O     O_3   0.782597 0.273525 0.736791 -0.542929
O4    O     O_3   0.893030 0.608480 0.539180 -0.509334
O5    O     O_3   0.426670 0.454500 0.415370 -0.501484
O6    O     O_2   0.638230 0.542350 0.670940 -0.463646
O7    O     O_3   0.484406 0.683904 0.702415 -0.633579
O8    O     O_2   0.509363 0.178456 0.539065 -0.472310
O9    O     O_3   0.451410 0.196223 0.671656 -0.558504
O10   O     O_3   0.389120 0.667500 0.413900 -0.492513
O11   O     O_2   0.291793 0.825851 0.452064 -0.511049
O12   O     O_3   0.299768 0.312266 0.318233 -0.616577
O13   O     O_3   0.018335 0.721886 0.654925 -0.606883
O14   O     O_3   0.406359 0.812098 0.328365 -0.626632
O15   O     O_2   0.172060 0.457600 0.329040 -0.448270
O16   O     O_3   0.964390 0.622060 0.377370 -0.491300
O17   O     O_2   0.045399 0.563095 0.252698 -0.512954
O18   O     O_3   0.239674 0.198842 0.830951 -0.691485
O19   O     O_3   0.157987 0.879314 0.632236 -0.617834
O20   O     O_3   0.337620 0.033176 0.609798 -0.646585
O21   O     O_3   0.507459 0.659224 0.072861 -0.662721
O22   O     O_3   0.264594 0.411013 0.176904 -0.647246
O23   O     O_3   0.988872 0.729648 0.261591 -0.604125
O24   O     O_2   0.645270 0.278050 0.458420 -0.479914
O25   O     O_3   0.917270 0.391510 0.460760 -0.496436
O26   O     O_3   0.421180 0.332490 0.586040 -0.469699
O27   O     O_3   0.800512 0.265155 0.345398 -0.649198
O28   O     O_3   0.383630 0.545490 0.584580 -0.477537
O29   O     O_3   0.845910 0.377930 0.622570 -0.455837
P1    P     P_3+3 0.990700 0.707490 0.561920 1.035078
P2    P     P_3+3 0.340130 0.430100 0.338870 1.020147
P3    P     P_3+3 0.925882 0.621771 0.285811 0.924852
P4    P     P_3+3 0.819590 0.292500 0.438020 0.966230
P5    P     P_3+3 0.872947 0.377754 0.715162 0.993044
P6    P     P_3+3 0.430488 0.785379 0.415729 0.908511
P7    P     P_3+3 0.461479 0.567915 0.673899 0.954987
P8    P     P_3+3 0.384437 0.216397 0.585564 1.017504

loop_
_geom_bond_atom_site_label_1
_geom_bond_atom_site_label_2
_ccdc_geom_bond_type
C18   P6    S    
C53   C54   S    
C40   H23   S    
C16   H38   S    
C44   H2    S    
C16   H39   S    
Ba1   O10   S    
C23   O7    S    
C23   H10   S    
C48   H53   S    
C2    C6    A    
C47   H47   S    
C54   N4    S    
H43   N2    S    
C5    C6    A    
H50   N3    S    
H49   N3    S    
C28   H40   S    
C49   O20   S    
C24   C25   A    
C35   H33   S    
Ba2   O4    S    
C47   O18   S    
C31   H31   S    
H70   N6    S    
O8    P8    D    
C32   C33   A    
C51   H65   S    
C46   H7    S    
O1    P1    D    
C43   H71   S    
C13   C14   A    
O15   P2    D    
O6    P7    D    
C15   C18   A    
O24   P4    D    
C45   O3    S    
Ba1   Ba2   S    
C38   H29   S    
C2    C11   A    
O4    P1    S    
C6    O20   S    
C37   P7    S    
C8    H27   S    
C26   P3    S    
C41   H36   S    
O26   P8    S    
C29   C30   A    
C8    C18   A    
Ba2   O24   S    
C2    C55   A    
C21   C22   A    
H64   N5    S    
Ba1   O1    S    
O28   P7    S    
C7    C8    A    
O2    P5    D    
Ba1   O4    S    
C34   H14   S    
C52   H20   S    
C50   H60   S    
C4    H24   S    
C20   C26   A    
O3    P5    S    
O13   P1    S    
C20   H37   S    
O29   P5    S    
C23   H11   S    
C4    C16   S    
Ba2   O26   S    
C48   H55   S    
C4    O23   S    
C34   H13   S    
O23   P3    S    
C19   H28   S    
C1    H4    S    
C43   H67   S    
O5    P2    S    
C12   H1    S    
C44   C46   S    
C49   H57   S    
C29   H30   S    
C11   C17   A    
H52   N4    S    
O14   P6    S    
C25   H35   S    
C51   H66   S    
Ba2   O29   S    
C37   C38   A    
C3    C5    A    
C53   H21   S    
C42   H45   S    
C22   O22   S    
C14   C15   A    
C46   H6    S    
C13   H26   S    
C9    C19   A    
C40   H12   S    
C49   H58   S    
C45   N2    S    
C3    C7    A    
C35   C36   A    
O12   P2    S    
C34   N1    S    
C21   P2    S    
C53   H22   S    
C47   H46   S    
C46   H5    S    
C44   O12   S    
C10   C13   A    
Ba1   P1    S    
C30   C39   S    
H41   N1    S    
C14   H25   S    
C31   C32   A    
Ba1   O15   S    
C1    C12   S    
C54   N3    S    
Ba1   O5    S    
C51   H68   S    
C45   C52   S    
C52   H19   S    
H44   N2    S    
Ba2   O25   S    
C38   C39   A    
H69   N6    S    
C16   H16   S    
C27   O21   S    
C9    P4    S    
O27   P4    S    
C1    H9    S    
C28   O27   S    
C15   C17   A    
Ba2   P4    S    
O17   P3    D    
C42   C43   S    
C36   P5    S    
C27   C33   A    
O10   P6    S    
C53   O9    S    
H42   N1    S    
C44   H3    S    
Ba1   O25   S    
C47   H48   S    
C45   H17   S    
C22   C24   A    
C54   O18   S    
Ba2   O28   S    
C42   H56   S    
C37   C41   A    
C9    C10   A    
C3    C17   A    
C50   O21   S    
C19   C55   A    
O9    P8    S    
C51   O22   S    
C49   H59   S    
Ba2   O5    S    
C30   C31   A    
C55   P8    S    
O11   P6    D    
C1    H15   S    
C32   H32   S    
H51   N4    S    
C4    N5    S    
C5    O19   S    
Ba1   P2    S    
C48   O19   S    
O16   P3    S    
C43   H72   S    
C12   O14   S    
C7    P1    S    
C48   H54   S    
C42   O13   S    
C12   H8    S    
Ba1   O16   S    
H63   N5    S    
O25   P4    S    
C35   C39   A    
C23   C34   S    
C52   H18   S    
C50   H62   S    
C24   C33   S    
C36   C41   A    
C10   C11   A    
Ba1   O28   S    
C27   C29   A    
C28   N6    S    
C25   C26   A    
Ba2   O6    S    
C20   C21   A    
C28   C40   S    
C40   H34   S    
O7    P7    S    
C50   H61   S    
