data_mof_unit_26773.cif
_audit_creation_date              2012-10-26T18:43:28-0400
_audit_creation_method            fapswitch 2.2
_symmetry_space_group_name_H-M    P1
_symmetry_Int_Tables_number       1
_space_group_crystal_system       triclinic
_cell_length_a                    10.739709
_cell_length_b                    10.899331
_cell_length_c                    9.560596
_cell_angle_alpha                 91.675761
_cell_angle_beta                  90.617801
_cell_angle_gamma                 91.354612
_cell_volume                      1118.25674372

loop_
_atom_site_label
_atom_site_type_symbol
_atom_type_description
_atom_site_fract_x
_atom_site_fract_y
_atom_site_fract_z
_atom_type_partial_charge
Br1   Br    Br    0.415803 0.873737 0.893094 -0.583994
Br2   Br    Br    0.294205 0.324447 0.147887 -0.558222
Br3   Br    Br    0.859050 0.234147 0.537270 -0.571953
C1    C     C_R   0.495735 0.262962 0.498109 0.589262
C2    C     C_R   0.501889 0.945771 0.622668 0.057012
C3    C     C_3   0.538310 0.954901 0.775719 0.117816
C4    C     C_R   0.259770 0.500431 0.499887 0.552916
C5    C     C_3   0.517316 0.093671 0.768580 -0.210158
C6    C     C_R   0.602502 0.539690 0.076035 0.139595
C7    C     C_R   0.410076 0.437543 0.069227 0.253824
C8    C     C_R   0.407733 0.442245 0.921110 0.035137
C9    C     C_R   0.604531 0.534808 0.928968 0.139928
C10   C     C_3   0.671980 0.654134 0.924874 -0.257134
C11   C     C_3   0.664938 0.662909 0.083444 -0.261610
C12   C     C_3   0.877854 0.500672 0.502545 0.055477
C13   C     C_R   0.500930 0.737873 0.501479 0.536011
C14   C     C_R   0.740029 0.501610 0.500885 0.569976
C15   C     C_3   0.073213 0.515972 0.653303 -0.230235
C16   C     C_3   0.930738 0.519934 0.653693 -0.220580
C17   C     C_3   0.073304 0.608733 0.415285 -0.246101
C18   C     C_3   0.067740 0.378124 0.437325 -0.200544
C19   C     C_3   0.121580 0.500855 0.501035 0.010477
C20   C     C_R   0.674280 0.933008 0.812326 0.040838
C21   C     C_R   0.716916 0.961013 0.949640 -0.091160
C22   C     C_R   0.841334 0.944129 0.987237 -0.109564
C23   C     C_3   0.929681 0.606936 0.413473 -0.271675
C24   C     C_R   0.925157 0.900396 0.888051 -0.090261
C25   C     C_R   0.884759 0.873615 0.751037 -0.102556
C26   C     C_R   0.760196 0.889339 0.712981 -0.074644
C27   C     C_3   0.923829 0.376901 0.439063 0.026573
C28   C     C_R   0.487206 0.068516 0.618877 -0.003154
C29   C     C_R   0.486197 0.130755 0.495082 0.025012
C30   C     C_R   0.478388 0.060427 0.369370 -0.128681
C31   C     C_R   0.480430 0.931624 0.372662 -0.154907
C32   C     C_R   0.495474 0.871333 0.501145 -0.009608
Cu1   Cu    Cu3+1 0.499990 0.499980 0.640670 0.975892
Cu2   Cu    Cu3+1 0.500010 0.500020 0.359330 1.006783
H1    H     H_    0.112397 0.602084 0.703690 0.144823
H2    H     H_    0.333467 0.395589 0.861843 0.140544
H3    H     H_    0.768316 0.644763 0.886008 0.119270
H4    H     H_    0.614451 0.719246 0.869870 0.209663
H5    H     H_    0.757868 0.661912 0.134942 0.116100
H6    H     H_    0.602720 0.736185 0.122158 0.169946
H7    H     H_    0.893512 0.448689 0.724101 0.181900
H8    H     H_    0.902137 0.610505 0.697036 0.103857
H9    H     H_    0.109151 0.697615 0.461971 0.131458
H10   H     H_    0.895634 0.696660 0.454173 0.110619
H11   H     H_    0.097714 0.366611 0.327398 0.170422
H12   H     H_    0.888621 0.365632 0.329343 0.149261
H13   H     H_    0.104810 0.299867 0.495789 0.170324
H14   H     H_    0.653417 0.995673 0.027835 0.139330
H15   H     H_    0.872773 0.965171 0.093367 0.130413
H16   H     H_    0.021525 0.887553 0.917251 0.147325
H17   H     H_    0.950116 0.840406 0.674150 0.114660
H18   H     H_    0.732355 0.867559 0.606099 0.106990
H19   H     H_    0.107498 0.601912 0.305896 0.155796
H20   H     H_    0.896403 0.594824 0.303427 0.123621
H21   H     H_    0.473058 0.104100 0.269252 0.177141
H22   H     H_    0.473620 0.880220 0.274150 0.164203
H23   H     H_    0.435049 0.126302 0.827240 0.176408
H24   H     H_    0.602638 0.152960 0.782710 0.161907
H25   H     H_    0.103664 0.437957 0.717043 0.152398
N1    N     N_R   0.500800 0.500930 0.147930 -0.217355
N2    N     N_R   0.500800 0.500890 0.852020 -0.246236
O1    O     O_R   0.500000 0.319640 0.618810 -0.508938
O2    O     O_R   0.500010 0.319680 0.381230 -0.464984
O3    O     O_R   0.317690 0.499960 0.618790 -0.517280
O4    O     O_R   0.317700 0.500000 0.381210 -0.461834
O5    O     O_R   0.499990 0.680320 0.618770 -0.476639
O6    O     O_R   0.500000 0.680360 0.381190 -0.517816
O7    O     O_R   0.682300 0.500000 0.618790 -0.499432
O8    O     O_R   0.682310 0.500040 0.381210 -0.513650

loop_
_geom_bond_atom_site_label_1
_geom_bond_atom_site_label_2
_ccdc_geom_bond_type
C24   H16   S    
Br3   C27   S    
C12   C16   S    
C6    C11   S    
C16   H8    S    
C30   H21   S    
C15   C19   S    
C10   C11   S    
C22   C24   A    
C4    C19   S    
C15   C16   S    
C18   C27   S    
C28   C29   A    
Cu1   O7    S    
C17   H19   S    
C5    H24   S    
C11   H5    S    
C18   H11   S    
C29   C30   A    
C21   H14   S    
C10   H4    S    
C30   C31   A    
C15   H1    S    
Cu1   O3    S    
Cu1   N2    S    
Cu2   O6    S    
C21   C22   A    
C1    O2    A    
C9    C10   S    
C25   C26   A    
C20   C26   A    
C1    O1    A    
C17   C23   S    
C23   H10   S    
C14   O8    A    
C2    C3    S    
C3    C20   S    
C2    C32   A    
C18   C19   S    
Cu1   Cu2   S    
C6    C9    A    
C27   H12   S    
C17   C19   S    
C14   O7    A    
C18   H13   S    
C12   C23   S    
C13   C32   S    
C5    H23   S    
C31   H22   S    
C9    N2    A    
C23   H20   S    
C22   H15   S    
C7    C8    A    
C20   C21   A    
C4    O3    A    
C1    C29   S    
Br2   C7    S    
Cu2   O4    S    
C8    H2    S    
C13   O6    A    
C16   H7    S    
C12   C27   S    
C31   C32   A    
Cu2   O8    S    
C24   C25   A    
C12   C14   S    
Cu1   O5    S    
C25   H17   S    
Cu1   O1    S    
C15   H25   S    
C10   H3    S    
C3    C5    S    
C26   H18   S    
Cu2   O2    S    
Cu2   N1    S    
C4    O4    A    
C6    N1    A    
C5    C28   S    
C8    N2    A    
C7    N1    A    
C17   H9    S    
C13   O5    A    
Br1   C3    S    
C11   H6    S    
C2    C28   A    
