data_mof_unit_30413.cif
_audit_creation_date              2012-12-10T17:32:18-0500
_audit_creation_method            fapswitch 2.2
_symmetry_space_group_name_H-M    P1
_symmetry_Int_Tables_number       1
_space_group_crystal_system       triclinic
_cell_length_a                    12.336532
_cell_length_b                    13.155912
_cell_length_c                    15.066577
_cell_angle_alpha                 77.76588
_cell_angle_beta                  101.548465
_cell_angle_gamma                 116.599458
_cell_volume                      2121.23805516

loop_
_atom_site_label
_atom_site_type_symbol
_atom_type_description
_atom_site_fract_x
_atom_site_fract_y
_atom_site_fract_z
_atom_type_partial_charge
C1    C     C_R   0.855024 0.286401 0.508327 0.853129
C2    C     C_R   0.907916 0.517462 0.074791 0.002926
C3    C     C_R   0.184179 0.467231 0.082268 -0.190015
C4    C     C_R   0.183544 0.466625 0.989787 -0.196285
C5    C     C_R   0.091585 0.482711 0.925173 0.137869
C6    C     C_R   0.999143 0.499538 0.953411 -0.010332
C7    C     C_R   0.906040 0.515678 0.888753 -0.024316
C8    C     C_R   0.814469 0.532237 0.917790 0.613515
C9    C     C_R   0.815712 0.533204 0.010348 -0.265540
C10   C     C_R   0.090727 0.482507 0.832698 -0.226882
C11   C     C_R   0.998839 0.499005 0.768144 -0.097015
C12   C     C_R   0.999483 0.499537 0.671215 0.805931
C13   C     C_R   0.906658 0.515155 0.796368 -0.154496
C14   C     C_R   0.277597 0.018920 0.375054 -0.152690
C15   C     C_R   0.227628 0.835010 0.469631 -0.048388
C16   C     C_R   0.814535 0.088168 0.577695 -0.188056
C17   C     C_R   0.734040 0.975735 0.602929 -0.125106
C18   C     C_R   0.610854 0.937778 0.570124 -0.120659
C19   C     C_R   0.566216 0.010501 0.506301 0.045896
C20   C     C_R   0.651851 0.120778 0.471434 0.001205
C21   C     C_R   0.439833 0.976545 0.474634 0.085428
C22   C     C_R   0.401908 0.050586 0.406487 0.089407
C23   C     C_R   0.145024 0.713525 0.487293 0.793745
C24   C     C_R   0.488557 0.151511 0.365486 -0.252706
C25   C     C_R   0.612284 0.183442 0.393563 0.365202
C26   C     C_R   0.349685 0.870126 0.507113 -0.188280
C27   C     C_R   0.190735 0.911165 0.406108 -0.183080
C28   C     C_R   0.774009 0.162977 0.515069 -0.070157
C29   C     C_R   0.349623 0.331745 0.646486 -0.209998
C30   C     C_R   0.760616 0.645071 0.375941 -0.002853
C31   C     C_R   0.665800 0.678600 0.348720 -0.298266
C32   C     C_R   0.562199 0.626179 0.394334 0.617682
C33   C     C_R   0.551663 0.537050 0.469111 -0.136973
C34   C     C_R   0.000914 0.501066 0.328734 0.863751
C35   C     C_R   0.652993 0.506644 0.494648 0.143406
C36   C     C_R   0.447278 0.477187 0.520165 -0.093986
C37   C     C_R   0.448671 0.391029 0.595013 0.039766
C38   C     C_R   0.548698 0.364206 0.618255 0.552340
C39   C     C_R   0.647721 0.420524 0.569115 -0.234221
C40   C     C_R   0.340460 0.497411 0.501231 0.092930
C41   C     C_R   0.248981 0.356957 0.624400 0.038722
C42   C     C_R   0.909475 0.518377 0.167270 -0.140981
C43   C     C_R   0.001312 0.501527 0.231767 -0.060729
C44   C     C_R   0.092875 0.484621 0.203391 -0.221464
C45   C     C_R   0.092905 0.484008 0.111039 0.129242
C46   C     C_R   0.999963 0.500313 0.046434 0.060888
Cu1   Cu    Cu3+1 0.098270 0.475420 0.521130 0.958997
Cu2   Cu    Cu3+1 0.901730 0.524580 0.478870 0.972123
H1    H     H_    0.838568 0.531580 0.188905 0.175879
H2    H     H_    0.460216 0.202527 0.307443 0.178543
H3    H     H_    0.248256 0.075306 0.323103 0.138889
H4    H     H_    0.371664 0.810225 0.559346 0.142840
H5    H     H_    0.907905 0.117911 0.610433 0.152021
H6    H     H_    0.553965 0.850423 0.595379 0.135073
H7    H     H_    0.766351 0.918914 0.651582 0.155261
H8    H     H_    0.172513 0.311658 0.663915 0.127010
H9    H     H_    0.349697 0.266103 0.703704 0.200066
H10   H     H_    0.164214 0.471971 0.253005 0.168129
H11   H     H_    0.328084 0.558783 0.445910 0.213232
H12   H     H_    0.840565 0.686914 0.340031 0.144279
H13   H     H_    0.672914 0.746371 0.291878 0.180425
H14   H     H_    0.719118 0.393516 0.592619 0.219807
H15   H     H_    0.255982 0.454643 0.131254 0.154434
H16   H     H_    0.254932 0.453632 0.968770 0.154231
H17   H     H_    0.162066 0.469885 0.811134 0.160835
H18   H     H_    0.835481 0.527421 0.746385 0.209750
H19   H     H_    0.744510 0.546221 0.031643 0.177358
H20   H     H_    0.096247 0.885063 0.376561 0.147808
N1    N     N_R   0.246280 0.438190 0.553160 -0.202054
N2    N     N_R   0.754320 0.561190 0.447410 -0.173937
O1    O     O_R   0.972510 0.318130 0.526570 -0.590135
O2    O     O_R   0.806530 0.359650 0.490890 -0.564398
O3    O     O_R   0.082980 0.479210 0.647590 -0.587677
O4    O     O_R   0.917000 0.520730 0.611900 -0.605047
O5    O     O_R   0.193470 0.640350 0.509110 -0.582469
O6    O     O_R   0.027490 0.681870 0.473430 -0.591476
O7    O     O_R   0.083000 0.479270 0.388100 -0.593198
O8    O     O_R   0.917020 0.520790 0.352410 -0.561176
Cl1   Cl    Cl    0.711066 0.285058 0.315541 -0.635279
F1    F     F_    0.551271 0.282097 0.689606 -0.659042
F2    F     F_    0.476073 0.666513 0.363714 -0.699012
F3    F     F_    0.723948 0.547621 0.856812 -0.661594

loop_
_geom_bond_atom_site_label_1
_geom_bond_atom_site_label_2
_ccdc_geom_bond_type
C16   C28   A    
C21   C26   A    
C12   O4    A    
C31   H13   S    
C19   C20   A    
C23   O6    A    
C7    C8    A    
C45   C46   A    
C2    C46   A    
C32   F2    S    
C1    O1    A    
C8    F3    S    
C36   C37   A    
C19   C21   A    
C34   O7    A    
C30   C31   A    
C20   C25   A    
C33   C36   A    
C18   C19   A    
Cu2   O8    S    
Cu2   O6    S    
C16   H5    S    
Cu1   N1    S    
C27   H20   S    
C31   C32   A    
C35   N2    A    
C44   H10   S    
C8    C9    A    
C30   H12   S    
C1    C28   S    
C14   C27   A    
C17   H7    S    
C15   C23   S    
C40   H11   S    
C12   O3    A    
Cu2   O2    S    
C30   N2    A    
C13   H18   S    
C24   H2    S    
C38   C39   A    
C1    O2    A    
C40   N1    A    
Cu2   O4    S    
C36   C40   A    
C24   C25   A    
Cu1   O3    S    
C23   O5    A    
C16   C17   A    
C15   C26   A    
C20   C28   A    
C3    C45   A    
C35   C39   A    
C43   C44   A    
C9    H19   S    
C41   H8    S    
C37   C38   A    
C26   H4    S    
C15   C27   A    
Cu1   Cu2   S    
C17   C18   A    
Cu1   O1    S    
C29   H9    S    
C22   C24   A    
C42   C43   A    
Cu1   O7    S    
C3    C4    A    
C44   C45   A    
C41   N1    A    
C10   H17   S    
C39   H14   S    
C6    C46   A    
C29   C41   A    
C25   Cl1   S    
C34   C43   S    
Cu2   N2    S    
C4    C5    A    
C11   C12   S    
C6    C7    A    
C3    H15   S    
C4    H16   S    
C32   C33   A    
C14   C22   A    
Cu1   O5    S    
C5    C10   A    
C34   O8    A    
C11   C13   A    
C5    C6    A    
C38   F1    S    
C2    C42   A    
C33   C35   A    
C10   C11   A    
C18   H6    S    
C42   H1    S    
C7    C13   A    
C14   H3    S    
C29   C37   A    
C21   C22   A    
C2    C9    A    
