data_mof_unit_54796.cif
_audit_creation_date              2012-12-10T20:35:46-0500
_audit_creation_method            fapswitch 2.2
_symmetry_space_group_name_H-M    P1
_symmetry_Int_Tables_number       1
_space_group_crystal_system       triclinic
_cell_length_a                    15.728935
_cell_length_b                    10.737715
_cell_length_c                    9.861592
_cell_angle_alpha                 90.215111
_cell_angle_beta                  89.937797
_cell_angle_gamma                 90.234996
_cell_volume                      1665.52539418

loop_
_atom_site_label
_atom_site_type_symbol
_atom_type_description
_atom_site_fract_x
_atom_site_fract_y
_atom_site_fract_z
_atom_type_partial_charge
C1    C     C_R   0.498678 0.260557 0.499758 0.874268
C2    C     C_3   0.950637 0.408277 0.610250 -0.399354
C3    C     C_3   0.917397 0.498809 0.500798 0.373731
C4    C     C_3   0.951052 0.631574 0.531860 -0.401183
C5    C     C_3   0.049195 0.631977 0.531333 -0.397407
C6    C     C_1   0.825973 0.498723 0.500582 -0.134909
C7    C     C_1   0.173954 0.499526 0.500747 -0.132358
C8    C     C_1   0.249312 0.499711 0.500426 -0.197339
C9    C     C_R   0.506417 0.063098 0.616950 0.112737
C10   C     C_R   0.494813 0.129492 0.498639 -0.124726
C11   C     C_R   0.480758 0.064212 0.376727 -0.229724
C12   C     C_R   0.338249 0.499914 0.500140 0.903481
C13   C     C_R   0.481450 0.934870 0.376912 -0.230921
C14   C     C_R   0.496299 0.870898 0.498983 -0.101986
C15   C     C_R   0.507350 0.938767 0.617097 0.079334
C16   C     C_3   0.528432 0.929587 0.764239 -0.449421
C17   C     C_3   0.526686 0.073343 0.764869 -0.143323
C18   C     C_R   0.453522 0.413669 0.070892 0.199381
C19   C     C_R   0.552914 0.576098 0.072525 -0.259163
C20   C     C_R   0.554690 0.574370 0.927467 0.555357
C21   C     C_R   0.453346 0.413933 0.928507 0.093541
C22   C     C_3   0.359481 0.395833 0.922660 -0.484759
C23   C     C_R   0.499626 0.739604 0.500048 0.884917
C24   C     C_3   0.359559 0.395586 0.076707 -0.489482
C25   C     C_R   0.661734 0.499730 0.499953 0.914772
C26   C     C_3   0.048789 0.409105 0.610863 -0.397695
C27   C     C_3   0.049066 0.456572 0.360544 -0.399203
C28   C     C_3   0.950936 0.456778 0.360313 -0.397053
C29   C     C_1   0.750637 0.499086 0.500160 -0.197917
C30   C     C_3   0.082508 0.499291 0.500893 0.371564
H1    H     H_    0.927312 0.312189 0.589152 0.166323
H2    H     H_    0.072124 0.438438 0.712690 0.165236
H3    H     H_    0.926477 0.436009 0.712108 0.164635
H4    H     H_    0.927328 0.698335 0.454652 0.164123
H5    H     H_    0.470195 0.112183 0.281792 0.169756
H6    H     H_    0.471187 0.885904 0.282041 0.173251
H7    H     H_    0.475970 0.886579 0.823670 0.192067
H8    H     H_    0.592075 0.888372 0.781552 0.238405
H9    H     H_    0.472326 0.111293 0.824100 0.150470
H10   H     H_    0.592588 0.640784 0.128339 0.165114
H11   H     H_    0.072651 0.313182 0.591501 0.164067
H12   H     H_    0.325909 0.477207 0.878853 0.217860
H13   H     H_    0.341882 0.304232 0.877688 0.194230
H14   H     H_    0.325982 0.476803 0.121638 0.217254
H15   H     H_    0.341887 0.303873 0.120639 0.191609
H16   H     H_    0.073112 0.519890 0.279854 0.164537
H17   H     H_    0.072431 0.361208 0.336743 0.164805
H18   H     H_    0.926936 0.361659 0.335694 0.164866
H19   H     H_    0.927614 0.520708 0.280004 0.163430
H20   H     H_    0.073048 0.664785 0.631601 0.163993
H21   H     H_    0.072829 0.698395 0.453341 0.164356
H22   H     H_    0.927515 0.663508 0.632633 0.161064
N1    N     N_R   0.499430 0.499140 0.142800 -0.124942
N2    N     N_R   0.499430 0.499180 0.857150 -0.149319
O1    O     O_R   0.500010 0.316790 0.614690 -0.627642
O2    O     O_R   0.500000 0.316760 0.385350 -0.622360
O3    O     O_R   0.377150 0.500020 0.614720 -0.621253
O4    O     O_R   0.377140 0.499990 0.385380 -0.616588
O5    O     O_R   0.500000 0.683240 0.614650 -0.575326
O6    O     O_R   0.499990 0.683210 0.385310 -0.631575
O7    O     O_R   0.622860 0.500010 0.614620 -0.585568
O8    O     O_R   0.622850 0.499980 0.385280 -0.618793
Zn1   Zn    Zn3+2 0.500010 0.500020 0.653130 0.971145
Zn2   Zn    Zn3+2 0.499990 0.499980 0.346870 0.937810
C31   C     C_3   0.612059 0.137551 0.800705 -0.352919
C32   C     C_3   0.684863 0.115476 0.698934 -0.298186
C33   C     C_3   0.765819 0.182519 0.743895 -0.935086
H23   H     H_    0.755215 0.284714 0.748335 0.266093
H24   H     H_    0.786084 0.149082 0.845230 0.260612
H25   H     H_    0.817432 0.163278 0.670014 0.245634
H26   H     H_    0.698435 0.014429 0.689604 0.215338
H27   H     H_    0.667050 0.151350 0.597432 0.217913
H28   H     H_    0.600694 0.239368 0.809050 0.215178
H29   H     H_    0.631901 0.105046 0.902731 0.194667
O9    O     O_3   0.606302 0.655157 0.855699 -0.590618
C34   C     C_3   0.692382 0.630835 0.885249 -0.350214
H30   H     H_    0.732418 0.679236 0.809036 0.188887
H31   H     H_    0.707390 0.529621 0.878314 0.161331
H32   H     H_    0.710095 0.668418 0.986476 0.149175

loop_
_geom_bond_atom_site_label_1
_geom_bond_atom_site_label_2
_ccdc_geom_bond_type
C26   H2    S    
C18   C21   A    
C19   C20   A    
C34   H32   S    
C3    C6    S    
C7    C8    T    
C23   O5    A    
C4    H22   S    
C18   C24   S    
C24   H15   S    
C3    C28   S    
C1    O2    A    
C34   H31   S    
C21   N2    A    
N1    Zn2   S    
N2    Zn1   S    
C15   C16   S    
C31   H28   S    
C17   H9    S    
O7    Zn1   S    
O8    Zn2   S    
C18   N1    A    
C32   H27   S    
C22   H13   S    
C16   C17   S    
O1    Zn1   S    
O2    Zn2   S    
C9    C10   A    
C16   H7    S    
C12   O4    A    
C19   N1    A    
C32   C33   S    
C7    C30   S    
C13   C14   A    
C27   C30   S    
C25   C29   S    
O3    Zn1   S    
O4    Zn2   S    
C23   O6    A    
C4    H4    S    
C33   H23   S    
C34   H30   S    
C13   H6    S    
C20   N2    A    
C19   H10   S    
C31   H29   S    
C20   O9    S    
C2    H1    S    
C33   H24   S    
C14   C23   S    
O9    C34   S    
C28   H19   S    
C32   H26   S    
C8    C12   S    
C2    C26   S    
C25   O7    A    
C12   O3    A    
C2    H3    S    
C9    C17   S    
C26   C30   S    
C24   H14   S    
C22   C24   S    
C5    H20   S    
C3    C4    S    
C27   H16   S    
C5    C30   S    
C27   H17   S    
C28   H18   S    
C17   C31   S    
C1    C10   S    
C4    C5    S    
O5    Zn1   S    
O6    Zn2   S    
C33   H25   S    
C11   H5    S    
C2    C3    S    
C1    O1    A    
C11   C13   A    
C22   H12   S    
C25   O8    A    
C9    C15   A    
C10   C11   A    
C6    C29   T    
C31   C32   S    
C27   C28   S    
C14   C15   A    
C5    H21   S    
C21   C22   S    
C26   H11   S    
C16   H8    S    
