data_mof_unit_48275.cif
_audit_creation_date              2012-12-10T20:43:20-0500
_audit_creation_method            fapswitch 2.2
_symmetry_space_group_name_H-M    P1
_symmetry_Int_Tables_number       1
_space_group_crystal_system       triclinic
_cell_length_a                    15.815296
_cell_length_b                    10.716605
_cell_length_c                    9.910658
_cell_angle_alpha                 90.631938
_cell_angle_beta                  90.908204
_cell_angle_gamma                 88.926205
_cell_volume                      1679.11783226

loop_
_atom_site_label
_atom_site_type_symbol
_atom_type_description
_atom_site_fract_x
_atom_site_fract_y
_atom_site_fract_z
_atom_type_partial_charge
C1    C     C_R   0.501325 0.260259 0.499533 0.882928
C2    C     C_R   0.041419 0.597366 0.439055 0.147872
C3    C     C_1   0.823948 0.498714 0.503888 -0.050508
C4    C     C_1   0.176425 0.496614 0.495690 -0.060039
C5    C     C_1   0.251269 0.498153 0.496916 -0.200562
C6    C     C_1   0.749007 0.499250 0.503204 -0.190753
C7    C     C_R   0.497039 0.066339 0.620646 0.075332
C8    C     C_R   0.510263 0.128468 0.500632 -0.144825
C9    C     C_R   0.536632 0.062464 0.385498 -0.203927
C10   C     C_R   0.537320 0.933247 0.386649 -0.208552
C11   C     C_R   0.512011 0.871593 0.503131 -0.134299
C12   C     C_R   0.339546 0.499827 0.499031 0.902014
C13   C     C_R   0.499184 0.938697 0.622546 0.092503
C14   C     C_3   0.427513 0.934206 0.719790 -0.122898
C15   C     C_3   0.423071 0.076482 0.712923 0.090041
C16   C     C_R   0.436079 0.555720 0.070449 0.165352
C17   C     C_R   0.565109 0.447195 0.074672 -0.112800
C18   C     C_R   0.565053 0.443918 0.931408 0.244249
C19   C     C_R   0.436120 0.556838 0.928341 0.072485
C20   C     C_3   0.343836 0.526613 0.921376 -0.035588
C21   C     C_3   0.345159 0.522830 0.075036 -0.481289
C22   C     C_R   0.501717 0.739935 0.500733 0.874021
C23   C     C_R   0.660533 0.499826 0.501008 0.898694
C24   C     C_R   0.953566 0.597434 0.443939 -0.233553
C25   C     C_R   0.912844 0.498227 0.502635 0.103214
C26   C     C_R   0.957724 0.397463 0.557280 -0.233554
C27   C     C_R   0.045688 0.394459 0.553869 0.145694
C28   C     C_R   0.087137 0.495467 0.494974 0.102057
H1    H     H_    0.616003 0.402523 0.131549 0.150392
H2    H     H_    0.332370 0.434308 0.872538 0.214854
H3    H     H_    0.306860 0.597190 0.125612 0.198314
H4    H     H_    0.335804 0.427590 0.114982 0.213535
H5    H     H_    0.916716 0.674166 0.401238 0.145618
H6    H     H_    0.924035 0.321092 0.601428 0.142777
H7    H     H_    0.552412 0.109919 0.293522 0.182485
H8    H     H_    0.553212 0.882477 0.295082 0.172048
H9    H     H_    0.370249 0.891176 0.673563 0.097366
H10   H     H_    0.365131 0.111325 0.659226 0.105066
N1    N     N_R   0.499440 0.499140 0.142800 -0.115869
N2    N     N_R   0.499440 0.499180 0.857150 -0.119011
O1    O     O_R   0.500010 0.316790 0.614690 -0.602201
O2    O     O_R   0.500000 0.316760 0.385350 -0.614365
O3    O     O_R   0.378030 0.499990 0.614640 -0.620768
O4    O     O_R   0.378020 0.499950 0.385300 -0.611504
O5    O     O_R   0.500000 0.683240 0.614650 -0.621133
O6    O     O_R   0.499990 0.683210 0.385310 -0.618992
O7    O     O_R   0.621980 0.500050 0.614700 -0.624913
O8    O     O_R   0.621970 0.500010 0.385360 -0.621184
Zn1   Zn    Zn3+2 0.500010 0.500020 0.653130 0.945220
Zn2   Zn    Zn3+2 0.499990 0.499980 0.346870 0.948419
C29   C     C_3   0.084578 0.706322 0.374487 -0.402950
C30   C     C_3   0.114946 0.671986 0.233153 -0.865002
H11   H     H_    0.161155 0.592839 0.236657 0.262626
H12   H     H_    0.060424 0.645707 0.167452 0.260694
H13   H     H_    0.146168 0.753336 0.188312 0.248196
H14   H     H_    0.040377 0.787908 0.366208 0.199782
H15   H     H_    0.138783 0.737097 0.438507 0.204039
Br1   Br    Br    0.446399 0.171614 0.877857 -0.604935
C31   C     C_3   0.635012 0.367362 0.867750 -0.336461
C32   C     C_3   0.718670 0.436544 0.872628 -0.892511
H16   H     H_    0.766860 0.383247 0.814157 0.252179
H17   H     H_    0.711034 0.531215 0.829215 0.280518
H18   H     H_    0.741835 0.446028 0.978560 0.246150
H19   H     H_    0.643596 0.278476 0.923673 0.189003
H20   H     H_    0.618965 0.337481 0.764376 0.263674
C33   C     C_3   0.287941 0.633860 0.864794 -0.379669
C34   C     C_3   0.195087 0.597811 0.859382 -0.869896
H21   H     H_    0.186648 0.513610 0.794801 0.258822
H22   H     H_    0.172374 0.578252 0.962266 0.267480
H23   H     H_    0.156368 0.675582 0.816233 0.247814
H24   H     H_    0.294461 0.719872 0.927657 0.197180
H25   H     H_    0.307804 0.657149 0.761463 0.225002
C35   C     C_3   0.093437 0.283583 0.613545 -0.407549
C36   C     C_3   0.124872 0.194439 0.503242 -0.851207
H26   H     H_    0.070625 0.159653 0.441973 0.258148
H27   H     H_    0.169511 0.241559 0.436094 0.264019
H28   H     H_    0.158320 0.113442 0.550144 0.240971
H29   H     H_    0.147710 0.315578 0.676558 0.207085
H30   H     H_    0.052019 0.230875 0.681402 0.200880
C37   C     C_3   0.451122 0.876249 0.857813 -0.289539
C38   C     C_3   0.544811 0.880097 0.900146 -0.777656
H31   H     H_    0.583487 0.820694 0.831324 0.251034
H32   H     H_    0.568910 0.976490 0.899476 0.281791
H33   H     H_    0.552607 0.842831 0.003809 0.222870
H34   H     H_    0.411267 0.918446 0.938142 0.224870
H35   H     H_    0.434193 0.777605 0.850561 0.193086

loop_
_geom_bond_atom_site_label_1
_geom_bond_atom_site_label_2
_ccdc_geom_bond_type
C16   C21   S    
C1    C8    S    
C17   H1    S    
C35   C36   S    
C19   C20   S    
C3    C6    T    
C38   H31   S    
C7    C8    A    
O7    Zn1   S    
C20   H2    S    
C21   H3    S    
C26   C27   A    
C36   H27   S    
C32   H18   S    
C20   C33   S    
C12   O3    A    
N2    Zn1   S    
C32   H17   S    
C29   H14   S    
C17   N1    A    
C18   N2    A    
C37   H35   S    
C2    C29   S    
C38   H32   S    
C26   H6    S    
C33   H25   S    
C8    C9    A    
C36   H28   S    
C35   H29   S    
C29   H15   S    
C14   C37   S    
C9    C10   A    
C30   H13   S    
O8    Zn2   S    
C33   C34   S    
C31   C32   S    
C13   C14   S    
O1    Zn1   S    
C4    C28   S    
C30   H12   S    
C35   H30   S    
C21   H4    S    
C23   O7    A    
C36   H26   S    
C29   C30   S    
C3    C25   S    
C24   C25   A    
C5    C12   S    
C10   C11   A    
O3    Zn1   S    
C25   C26   A    
C34   H21   S    
C32   H16   S    
C34   H22   S    
C15   H10   S    
C37   H34   S    
C18   C31   S    
C33   H24   S    
O5    Zn1   S    
N1    Zn2   S    
C17   C18   A    
C31   H19   S    
C4    C5    T    
O2    Zn2   S    
C1    O1    A    
C22   O6    A    
C2    C24   A    
C15   Br1   S    
C38   H33   S    
C30   H11   S    
O4    Zn2   S    
C23   O8    A    
C37   C38   S    
C2    C28   A    
O6    Zn2   S    
C11   C22   S    
C24   H5    S    
C34   H23   S    
C12   O4    A    
C31   H20   S    
C14   H9    S    
C11   C13   A    
C16   C19   A    
C6    C23   S    
C7    C15   S    
C19   N2    A    
C16   N1    A    
C1    O2    A    
C7    C13   A    
C22   O5    A    
C20   C21   S    
C27   C28   A    
C9    H7    S    
C14   C15   S    
C10   H8    S    
C27   C35   S    
