data_mof_unit_27815.cif
_audit_creation_date              2012-10-26T18:43:28-0400
_audit_creation_method            fapswitch 2.2
_symmetry_space_group_name_H-M    P1
_symmetry_Int_Tables_number       1
_space_group_crystal_system       triclinic
_cell_length_a                    10.746847
_cell_length_b                    10.821926
_cell_length_c                    9.553511
_cell_angle_alpha                 90.181403
_cell_angle_beta                  89.754634
_cell_angle_gamma                 90.159497
_cell_volume                      1111.06843187

loop_
_atom_site_label
_atom_site_type_symbol
_atom_type_description
_atom_site_fract_x
_atom_site_fract_y
_atom_site_fract_z
_atom_type_partial_charge
C1    C     C_R   0.497041 0.262301 0.499674 0.582444
C2    C     C_R   0.493712 0.936861 0.625545 -0.046548
C3    C     C_3   0.589762 0.931311 0.737894 -0.186696
C4    C     C_R   0.259944 0.499420 0.500067 0.573964
C5    C     C_3   0.589058 0.071594 0.737209 0.290824
C6    C     C_R   0.557448 0.592951 0.073881 0.144294
C7    C     C_R   0.432041 0.416247 0.074417 0.047096
C8    C     C_R   0.431820 0.416397 0.925578 0.058378
C9    C     C_R   0.559234 0.591734 0.926423 0.116974
C10   C     C_3   0.694899 0.621975 0.922894 0.251745
C11   C     C_3   0.691510 0.626189 0.081057 0.279404
C12   C     C_3   0.878469 0.499118 0.498783 0.013782
C13   C     C_R   0.497871 0.737570 0.500170 0.575060
C14   C     C_R   0.740235 0.499506 0.499606 0.606228
C15   C     C_3   0.071289 0.385020 0.580823 0.229680
C16   C     C_3   0.927457 0.384558 0.578759 -0.217877
C17   C     C_3   0.072475 0.618198 0.570207 -0.267624
C18   C     C_3   0.072730 0.493687 0.347179 -0.153435
C19   C     C_3   0.122117 0.498776 0.499674 -0.039834
C20   C     C_3   0.928671 0.617861 0.571466 0.169264
C21   C     C_3   0.930373 0.494842 0.346459 0.248662
C22   C     C_R   0.492999 0.064053 0.624911 0.023017
C23   C     C_R   0.484243 0.129003 0.499333 -0.005078
C24   C     C_R   0.457806 0.062908 0.375336 0.398077
C25   C     C_R   0.458583 0.934088 0.376424 -0.064013
C26   C     C_R   0.485321 0.870473 0.500628 -0.049304
Cu1   Cu    Cu3+1 0.499990 0.499980 0.640670 1.043062
Cu2   Cu    Cu3+1 0.500010 0.500020 0.359330 1.082925
F1    F     F_    0.884598 0.722569 0.504740 -0.619380
F2    F     F_    0.437324 0.121371 0.252094 -0.573567
F3    F     F_    0.540466 0.120717 0.859659 -0.564071
F4    F     F_    0.116117 0.276402 0.522157 -0.596471
F5    F     F_    0.766104 0.523725 0.876178 -0.646153
F6    F     F_    0.708793 0.744251 0.133715 -0.615953
F7    F     F_    0.886913 0.391097 0.275904 -0.603445
H1    H     H_    0.103251 0.388947 0.691436 0.149179
H2    H     H_    0.716916 0.711471 0.871809 0.135715
H3    H     H_    0.749072 0.554291 0.130896 0.202877
H4    H     H_    0.892581 0.298326 0.528494 0.221077
H5    H     H_    0.891917 0.384824 0.688288 0.157089
H6    H     H_    0.107021 0.625049 0.679651 0.116028
H7    H     H_    0.895791 0.621434 0.681790 0.198799
H8    H     H_    0.107856 0.574592 0.286808 0.102215
H9    H     H_    0.107331 0.409036 0.293252 0.233412
H10   H     H_    0.899704 0.578462 0.289175 0.194180
H11   H     H_    0.107880 0.700709 0.513074 0.190666
H12   H     H_    0.378391 0.347303 0.869848 0.167999
H13   H     H_    0.443663 0.884833 0.279008 0.188172
H14   H     H_    0.552314 0.890506 0.836140 0.190129
H15   H     H_    0.679094 0.891175 0.700389 0.133815
H16   H     H_    0.678037 0.114851 0.702865 0.131736
H17   H     H_    0.378746 0.347085 0.130139 0.190967
N1    N     N_R   0.500800 0.500930 0.147930 -0.271638
N2    N     N_R   0.500800 0.500890 0.852020 -0.224237
O1    O     O_R   0.500000 0.319640 0.618810 -0.490287
O2    O     O_R   0.500010 0.319680 0.381230 -0.430664
O3    O     O_R   0.317690 0.499960 0.618790 -0.524061
O4    O     O_R   0.317700 0.500000 0.381210 -0.523532
O5    O     O_R   0.499990 0.680320 0.618770 -0.517179
O6    O     O_R   0.500000 0.680360 0.381190 -0.486143
O7    O     O_R   0.682300 0.500000 0.618790 -0.461090
O8    O     O_R   0.682310 0.500040 0.381210 -0.460652

loop_
_geom_bond_atom_site_label_1
_geom_bond_atom_site_label_2
_ccdc_geom_bond_type
C4    O3    A    
C2    C22   A    
C11   H3    S    
C20   H7    S    
C23   C24   A    
C13   O5    A    
C18   H9    S    
C18   C21   S    
Cu1   O7    S    
C9    C10   S    
C21   H10   S    
C6    C11   S    
Cu2   N1    S    
C12   C20   S    
C6    C9    A    
C2    C3    S    
C3    H14   S    
C8    H12   S    
C15   F4    S    
C2    C26   A    
C13   O6    A    
Cu1   O5    S    
C18   H8    S    
C24   C25   A    
C15   C19   S    
C14   O7    A    
C25   H13   S    
C16   H5    S    
C10   H2    S    
C21   F7    S    
C5    C22   S    
C17   C19   S    
C1    O2    A    
C12   C14   S    
C7    H17   S    
C1    C23   S    
C10   F5    S    
Cu2   O4    S    
C20   F1    S    
Cu2   O6    S    
C1    O1    A    
Cu1   O1    S    
C13   C26   S    
Cu1   N2    S    
C24   F2    S    
C10   C11   S    
C7    N1    A    
C6    N1    A    
C4    O4    A    
C15   C16   S    
C14   O8    A    
C15   H1    S    
C7    C8    A    
C17   C20   S    
C17   H11   S    
C18   C19   S    
Cu1   O3    S    
C8    N2    A    
Cu1   Cu2   S    
C22   C23   A    
C5    H16   S    
C9    N2    A    
C16   H4    S    
C17   H6    S    
C3    C5    S    
C25   C26   A    
C4    C19   S    
C12   C21   S    
C3    H15   S    
C11   F6    S    
Cu2   O2    S    
C12   C16   S    
C5    F3    S    
Cu2   O8    S    
