data_mof_unit_31327.cif
_audit_creation_date              2012-10-26T21:13:36-0400
_audit_creation_method            fapswitch 2.2
_symmetry_space_group_name_H-M    P1
_symmetry_Int_Tables_number       1
_space_group_crystal_system       triclinic
_cell_length_a                    9.05666
_cell_length_b                    10.802377
_cell_length_c                    9.572061
_cell_angle_alpha                 89.548138
_cell_angle_beta                  90.147392
_cell_angle_gamma                 89.672545
_cell_volume                      936.420181475

loop_
_atom_site_label
_atom_site_type_symbol
_atom_type_description
_atom_site_fract_x
_atom_site_fract_y
_atom_site_fract_z
_atom_type_partial_charge
C1    C     C_R   0.507265 0.262643 0.500330 0.581132
C2    C     C_R   0.628650 0.514089 0.926105 0.166617
C3    C     C_3   0.735262 0.618387 0.913009 0.144187
C4    C     C_R   0.220782 0.500368 0.499875 0.563146
C5    C     C_3   0.729480 0.625845 0.073352 0.158638
C6    C     C_R   0.501599 0.737286 0.499882 0.545809
C7    C     C_R   0.779197 0.501467 0.500135 0.544642
C8    C     C_1   0.065602 0.501208 0.499835 -0.066683
C9    C     C_1   0.934391 0.501645 0.500170 -0.058420
C10   C     C_R   0.456151 0.063437 0.610844 0.012500
C11   C     C_R   0.523301 0.129307 0.502755 0.035173
C12   C     C_R   0.603529 0.932238 0.405912 -0.162094
C13   C     C_R   0.609431 0.062409 0.403747 -0.032234
C14   C     C_3   0.710035 0.123886 0.297809 -0.276418
C15   C     C_3   0.844718 0.179918 0.368794 -0.420036
C16   C     C_3   0.552674 0.792088 0.058183 -0.128381
C17   C     C_3   0.169143 0.882465 0.593688 -0.229474
C18   C     C_3   0.167732 0.908684 0.435683 -0.392310
C19   C     C_3   0.099397 0.194092 0.696433 -0.118641
C20   C     C_3   0.966348 0.674320 0.837265 -0.147476
C21   C     C_R   0.513225 0.869963 0.501658 -0.013954
C22   C     C_R   0.447961 0.937334 0.607936 -0.025219
C23   C     C_3   0.300371 0.935434 0.678774 -0.076449
C24   C     C_3   0.312966 0.077514 0.687185 0.176072
C25   C     C_R   0.627728 0.516749 0.073163 0.133417
C26   C     C_R   0.376151 0.471872 0.074175 -0.033628
C27   C     C_R   0.375959 0.472454 0.925805 -0.045453
Cu1   Cu    Cu3+1 0.499990 0.499980 0.640670 0.945142
Cu2   Cu    Cu3+1 0.500010 0.500020 0.359330 0.960348
H1    H     H_    0.688732 0.696091 0.849464 0.122209
H2    H     H_    0.911107 0.105989 0.420782 0.161515
H3    H     H_    0.750762 0.055216 0.220764 0.135920
H4    H     H_    0.650076 0.194784 0.235256 0.176653
H5    H     H_    0.474337 0.725485 0.011523 0.118508
H6    H     H_    0.598664 0.854680 0.976907 0.093723
H7    H     H_    0.487679 0.850619 0.130451 0.140748
H8    H     H_    0.195278 0.005915 0.410052 0.206277
H9    H     H_    0.246142 0.846781 0.381002 0.142702
H10   H     H_    0.055886 0.889307 0.393648 0.120334
H11   H     H_    0.168574 0.780408 0.608711 0.124853
H12   H     H_    0.836564 0.601117 0.123714 0.142315
H13   H     H_    0.064814 0.918204 0.639305 0.139433
H14   H     H_    0.147726 0.266282 0.764627 0.129651
H15   H     H_    0.046145 0.120696 0.760768 0.096049
H16   H     H_    0.012346 0.239151 0.631987 0.142048
H17   H     H_    0.979959 0.734387 0.930329 0.108281
H18   H     H_    0.924096 0.729384 0.746823 0.113293
H19   H     H_    0.077051 0.637995 0.809114 0.146067
H20   H     H_    0.669186 0.879640 0.333244 0.183135
H21   H     H_    0.308571 0.891813 0.784224 0.066376
H22   H     H_    0.333289 0.112414 0.795074 0.078383
H23   H     H_    0.275045 0.450406 0.128573 0.129997
H24   H     H_    0.274557 0.451900 0.871447 0.130269
H25   H     H_    0.914632 0.227086 0.289767 0.142144
H26   H     H_    0.810685 0.248372 0.448120 0.151044
N1    N     N_R   0.500920 0.500930 0.147930 -0.227761
N2    N     N_R   0.500930 0.500890 0.852020 -0.264937
O1    O     O_R   0.500000 0.319640 0.618810 -0.492576
O2    O     O_3   0.207484 0.144264 0.607055 -0.567353
O3    O     O_3   0.872940 0.573426 0.865725 -0.580910
O4    O     O_R   0.500020 0.319680 0.381230 -0.508601
O5    O     O_R   0.288380 0.499980 0.618770 -0.509136
O6    O     O_R   0.288400 0.500020 0.381190 -0.506589
O7    O     O_R   0.499980 0.680320 0.618770 -0.519399
O8    O     O_R   0.500000 0.680360 0.381190 -0.460821
O9    O     O_R   0.711600 0.499980 0.618810 -0.461740
O10   O     O_R   0.711620 0.500020 0.381230 -0.502739
O11   O     O_3   0.668443 0.734531 0.134775 -0.579318

loop_
_geom_bond_atom_site_label_1
_geom_bond_atom_site_label_2
_ccdc_geom_bond_type
C3    H1    S    
Cu1   O9    S    
C23   C24   S    
C19   H16   S    
C15   H2    S    
C16   H5    S    
C16   O11   S    
Cu2   N1    S    
Cu1   O1    S    
C20   O3    S    
C1    C11   S    
C25   N1    A    
C4    C8    S    
C19   H15   S    
C18   H10   S    
C19   O2    S    
C3    O3    S    
C24   H22   S    
C27   H24   S    
C17   C18   S    
C18   H9    S    
C2    N2    A    
Cu2   O4    S    
C20   H19   S    
Cu1   N2    S    
C10   C22   A    
C7    O9    A    
C11   C13   A    
C4    O6    A    
C26   C27   A    
C17   C23   S    
C1    O1    A    
C14   H4    S    
C5    O11   S    
Cu2   O8    S    
Cu1   O7    S    
Cu2   O6    S    
C18   H8    S    
C19   H14   S    
C2    C3    S    
C2    C25   A    
C26   H23   S    
C24   O2    S    
C16   H6    S    
C14   C15   S    
C5    C25   S    
C12   H20   S    
C10   C11   A    
C26   N1    A    
C7    O10   A    
C20   H18   S    
C15   H25   S    
C4    O5    A    
C17   H13   S    
C1    O4    A    
C12   C13   A    
C27   N2    A    
C6    O7    A    
C7    C9    S    
C5    H12   S    
C22   C23   S    
Cu1   Cu2   S    
C23   H21   S    
Cu2   O10   S    
C13   C14   S    
C10   C24   S    
C21   C22   A    
C6    C21   S    
C14   H3    S    
C12   C21   A    
C17   H11   S    
C6    O8    A    
C16   H7    S    
Cu1   O5    S    
C8    C9    T    
C3    C5    S    
C20   H17   S    
C15   H26   S    
