data_mof_unit_13390.cif
_audit_creation_date              2012-12-10T17:18:14-0500
_audit_creation_method            fapswitch 2.2
_symmetry_space_group_name_H-M    P1
_symmetry_Int_Tables_number       1
_space_group_crystal_system       triclinic
_cell_length_a                    10.187712
_cell_length_b                    10.499515
_cell_length_c                    14.873021
_cell_angle_alpha                 89.96125
_cell_angle_beta                  81.647616
_cell_angle_gamma                 94.185562
_cell_volume                      1569.73329921

loop_
_atom_site_label
_atom_site_type_symbol
_atom_type_description
_atom_site_fract_x
_atom_site_fract_y
_atom_site_fract_z
_atom_type_partial_charge
C1    C     C_R   0.554152 0.734229 0.488918 0.961781
C2    C     C_2   0.074431 0.490417 0.491218 0.359023
C3    C     C_R   0.500559 0.499632 0.672790 0.847138
C4    C     C_R   0.499273 0.500342 0.327293 0.885093
C5    C     C_R   0.464489 0.386992 0.191127 -0.195570
C6    C     C_R   0.523067 0.614931 0.810379 -0.210410
C7    C     C_R   0.496383 0.500632 0.232414 -0.041095
C8    C     C_R   0.500705 0.499804 0.768106 -0.025523
C9    C     C_R   0.518699 0.615468 0.185401 -0.213474
C10   C     C_R   0.467407 0.386679 0.816295 -0.233906
C11   C     C_R   0.508917 0.619072 0.093170 0.009921
C12   C     C_R   0.445639 0.265793 0.500509 0.960054
C13   C     C_R   0.454898 0.386568 0.910663 0.010808
C14   C     C_R   0.481436 0.502517 0.048795 -0.033693
C15   C     C_R   0.482815 0.503050 0.954975 -0.030737
C16   C     C_R   0.456546 0.385016 0.098374 0.038062
C17   C     C_R   0.514933 0.619415 0.904700 0.041555
C18   C     C_R   0.530428 0.736102 0.044411 0.383404
C19   C     C_R   0.418662 0.271844 0.960873 0.379197
C20   C     C_3   0.565835 0.863668 0.898181 -0.328523
C21   C     C_3   0.712280 0.883626 0.857153 -0.827991
C22   C     C_3   0.393518 0.142551 0.106060 -0.344510
C23   C     C_R   0.537003 0.736624 0.949557 0.094184
C24   C     C_3   0.252133 0.132174 0.157772 -0.849243
C25   C     C_R   0.424558 0.269313 0.054481 0.108445
C26   C     C_2   0.580237 0.869161 0.466730 -0.414720
C27   C     C_2   0.418764 0.130884 0.483948 -0.407084
C28   C     C_2   0.492261 0.930336 0.426598 0.341515
C29   C     C_2   0.505069 0.069634 0.425184 0.342737
C30   C     C_2   0.926188 0.511619 0.507240 0.346017
H1    H     H_    0.446475 0.301656 0.233125 0.156426
H2    H     H_    0.318329 0.182597 0.876200 0.332344
H3    H     H_    0.775746 0.886174 0.911968 0.279004
H4    H     H_    0.741696 0.805957 0.809539 0.256305
H5    H     H_    0.729850 0.975976 0.819354 0.249659
H6    H     H_    0.500686 0.870771 0.845013 0.189940
H7    H     H_    0.541895 0.945429 0.943273 0.268720
H8    H     H_    0.236798 0.210431 0.207414 0.264807
H9    H     H_    0.179120 0.136311 0.109356 0.277437
H10   H     H_    0.233514 0.039575 0.195229 0.246887
H11   H     H_    0.402857 0.060316 0.059414 0.266513
H12   H     H_    0.546766 0.699400 0.767876 0.137168
H13   H     H_    0.467187 0.128769 0.152667 0.203163
H14   H     H_    0.660643 0.072349 0.332901 0.330381
H15   H     H_    0.334398 0.927505 0.367655 0.324679
H16   H     H_    0.063183 0.327821 0.431423 0.298543
H17   H     H_    0.940129 0.675496 0.565190 0.300927
H18   H     H_    0.545369 0.700492 0.221914 0.160736
H19   H     H_    0.452981 0.299649 0.778730 0.139972
H20   H     H_    0.332076 0.079758 0.522646 0.120897
H21   H     H_    0.667839 0.920356 0.486803 0.126453
H22   H     H_    0.121364 0.608228 0.589691 0.126467
H23   H     H_    0.877729 0.388867 0.411914 0.141022
H24   H     H_    0.483166 0.851571 0.143005 0.329814
N1    N     N_2   0.842700 0.448880 0.462930 -0.184955
N2    N     N_2   0.157300 0.551120 0.537070 -0.181817
O1    O     O_R   0.431060 0.692470 0.507460 -0.554390
O2    O     O_3   0.377711 0.160590 0.920115 -0.801882
O3    O     O_3   0.610120 0.135299 0.370711 -0.750412
O4    O     O_3   0.385839 0.864611 0.394727 -0.749790
O5    O     O_3   0.125699 0.404853 0.427595 -0.724567
O6    O     O_3   0.875637 0.599918 0.569000 -0.726028
O7    O     O_R   0.568940 0.307530 0.492540 -0.555051
O8    O     O_R   0.651120 0.659650 0.483670 -0.581052
O9    O     O_R   0.348880 0.340350 0.516330 -0.588528
O10   O     O_R   0.389960 0.516440 0.644050 -0.628754
O11   O     O_R   0.610040 0.483560 0.355950 -0.607833
O12   O     O_R   0.610030 0.483620 0.620260 -0.558151
O13   O     O_R   0.389970 0.516380 0.379740 -0.539867
O14   O     O_3   0.549967 0.850952 0.087524 -0.795459
Zn1   Zn    Zn3+2 0.353060 0.521920 0.515880 1.021255
Zn2   Zn    Zn3+2 0.646940 0.478080 0.484120 1.026567

loop_
_geom_bond_atom_site_label_1
_geom_bond_atom_site_label_2
_ccdc_geom_bond_type
C19   O2    S    
C18   O14   S    
C4    O11   A    
C24   H8    S    
C27   H20   S    
C11   C18   A    
C21   H5    S    
C1    O1    A    
C27   C29   D    
C5    C7    A    
C30   N1    D    
C26   C28   D    
O10   Zn1   S    
H24   O14   S    
C20   C23   S    
H2    O2    S    
C2    C30   S    
N2    Zn1   S    
H17   O6    S    
H23   N1    S    
C10   C13   A    
H15   O4    S    
C2    N2    D    
C26   H21   S    
O1    Zn1   S    
C20   H7    S    
C9    C11   A    
C17   C23   A    
C28   O4    S    
H22   N2    S    
C4    C7    S    
H16   O5    S    
C8    C10   A    
C4    O13   A    
C24   H10   S    
C3    O12   A    
C3    C8    S    
C22   C24   S    
C13   C15   A    
C30   O6    S    
C6    H12   S    
C1    C26   S    
C19   C25   A    
C11   C14   A    
C14   C16   A    
O7    Zn2   S    
C22   H11   S    
C21   H3    S    
C13   C19   A    
H14   O3    S    
C18   C23   A    
C3    O10   A    
C1    O8    A    
C7    C9    A    
C24   H9    S    
C20   C21   S    
C9    H18   S    
O13   Zn1   S    
O11   Zn2   S    
C12   O9    A    
C16   C25   A    
C15   C17   A    
C6    C17   A    
C29   O3    S    
C14   C15   A    
C28   C29   S    
C5    C16   A    
C6    C8    A    
C21   H4    S    
C12   C27   S    
C12   O7    A    
C10   H19   S    
C22   C25   S    
C22   H13   S    
N1    Zn2   S    
O8    Zn2   S    
O9    Zn1   S    
O12   Zn2   S    
C5    H1    S    
C2    O5    S    
C20   H6    S    
