data_mof_unit_14073.cif
_audit_creation_date              2012-12-11T14:08:40-0500
_audit_creation_method            fapswitch 2.2
_symmetry_space_group_name_H-M    P1
_symmetry_Int_Tables_number       1
_space_group_crystal_system       triclinic
_cell_length_a                    28.089811
_cell_length_b                    7.188918
_cell_length_c                    17.165199
_cell_angle_alpha                 90.000061
_cell_angle_beta                  101.783479
_cell_angle_gamma                 90.000065
_cell_volume                      3393.21354694

loop_
_atom_site_label
_atom_site_type_symbol
_atom_type_description
_atom_site_fract_x
_atom_site_fract_y
_atom_site_fract_z
_atom_type_partial_charge
O1    O     O_R   0.000700 0.436510 0.857920 -0.542110
O2    O     O_R   0.999300 0.563490 0.142080 -0.547723
O3    O     O_R   0.999300 0.936510 0.642080 -0.542110
O4    O     O_R   0.000700 0.063490 0.357920 -0.547723
O5    O     O_R   0.930080 0.766380 0.721890 -0.540861
O6    O     O_R   0.069920 0.233620 0.278110 -0.543678
O7    O     O_R   0.069920 0.266380 0.778110 -0.540862
O8    O     O_R   0.930080 0.733620 0.221890 -0.543678
C1    C     C_R   0.910945 0.598110 0.706994 0.844743
C2    C     C_R   0.089367 0.402253 0.289591 0.830739
C3    C     C_R   0.089055 0.098110 0.793006 0.844739
C4    C     C_R   0.910633 0.902253 0.210409 0.830735
O9    O     O_R   0.996180 0.766230 0.862310 -0.519981
O10   O     O_R   0.003820 0.233770 0.137690 -0.517121
O11   O     O_R   0.003820 0.266230 0.637690 -0.519981
O12   O     O_R   0.996180 0.733770 0.362310 -0.517120
O13   O     O_R   0.065870 0.936460 0.783500 -0.533194
O14   O     O_R   0.934130 0.063540 0.216500 -0.529778
O15   O     O_R   0.934130 0.436460 0.716500 -0.533194
O16   O     O_R   0.065870 0.563540 0.283500 -0.529776
C5    C     C_R   0.998509 0.596496 0.894511 0.806168
C6    C     C_R   0.001273 0.403484 0.105413 0.819710
C7    C     C_R   0.001491 0.096496 0.605489 0.806167
C8    C     C_R   0.998727 0.903484 0.394587 0.819709
O17   O     O_3   0.022790 0.603020 0.723980 -0.383128
O18   O     O_3   0.977210 0.396980 0.276020 -0.386383
O19   O     O_3   0.977210 0.103020 0.776020 -0.383128
O20   O     O_3   0.022790 0.896980 0.223980 -0.386383
V1    V     V_3+5 0.995770 0.877900 0.754830 1.562588
V2    V     V_3+5 0.004230 0.122100 0.245170 1.542538
V3    V     V_3+5 0.004230 0.377900 0.745170 1.562588
V4    V     V_3+5 0.995770 0.622100 0.254830 1.542539
C9    C     C_2   0.001746 0.082757 0.519538 -0.288199
C10   C     C_2   0.998520 0.917229 0.480559 -0.260502
C11   C     C_2   0.998254 0.582757 0.980462 -0.288196
C12   C     C_2   0.001480 0.417229 0.019440 -0.260501
H1    H     H_    0.004446 0.211735 0.487756 0.172941
H2    H     H_    0.995800 0.788260 0.512332 0.182913
H3    H     H_    0.995554 0.711735 0.012244 0.172940
H4    H     H_    0.004200 0.288260 0.987667 0.182911
C13   C     C_R   0.676598 0.790387 0.088664 0.660930
C14   C     C_R   0.318176 0.188482 0.974594 0.666079
C15   C     C_R   0.323402 0.290387 0.411339 0.660929
C16   C     C_R   0.681824 0.688479 0.525406 0.666078
O21   O     O_2   0.702345 0.647940 0.067536 -0.478075
O22   O     O_2   0.293180 0.340130 0.988766 -0.469892
O23   O     O_2   0.297655 0.147940 0.432466 -0.478074
O24   O     O_2   0.706820 0.840129 0.511236 -0.469892
N1    N     N_R   0.701186 0.930562 0.133735 -0.556024
N2    N     N_R   0.294152 0.052727 0.925899 -0.556923
N3    N     N_R   0.298814 0.430562 0.366268 -0.556024
N4    N     N_R   0.705849 0.552722 0.574100 -0.556924
C17   C     C_R   0.677120 0.077620 0.158009 0.664364
C18   C     C_R   0.317608 0.896055 0.909112 0.652919
C19   C     C_R   0.322879 0.577620 0.341994 0.664364
C20   C     C_R   0.682392 0.396047 0.590885 0.652921
C21   C     C_R   0.777576 0.828614 0.222793 0.149055
C22   C     C_R   0.226733 0.148084 0.815856 0.135915
C23   C     C_R   0.222424 0.328618 0.277208 0.149053
C24   C     C_R   0.773267 0.648073 0.684145 0.135914
C25   C     C_R   0.828996 0.824167 0.242308 -0.126434
C26   C     C_R   0.176306 0.155192 0.781896 -0.122864
C27   C     C_R   0.171004 0.324171 0.257692 -0.126434
C28   C     C_R   0.823694 0.655183 0.718105 -0.122863
C29   C     C_R   0.831601 0.003263 0.121298 -0.075968
C30   C     C_R   0.159085 0.021373 0.905107 -0.080249
C31   C     C_R   0.168399 0.503258 0.378704 -0.075968
C32   C     C_R   0.840915 0.521378 0.594891 -0.080252
C33   C     C_R   0.780649 0.011670 0.105330 -0.178865
C34   C     C_R   0.209175 0.010702 0.935885 -0.168676
C35   C     C_R   0.219351 0.511665 0.394673 -0.178864
C36   C     C_R   0.790826 0.510707 0.564113 -0.168674
C37   C     C_R   0.753620 0.924385 0.154692 0.341896
C38   C     C_R   0.242909 0.072863 0.892368 0.346514
C39   C     C_R   0.246379 0.424384 0.345310 0.341896
C40   C     C_R   0.757091 0.572859 0.607631 0.346514
C41   C     C_R   0.599637 0.947199 0.089810 -0.071826
C42   C     C_R   0.393868 0.013241 0.987741 -0.071799
C43   C     C_R   0.400363 0.447199 0.410192 -0.071826
C44   C     C_R   0.606132 0.513236 0.512258 -0.071799
C45   C     C_R   0.625102 0.794986 0.064983 -0.098165
C46   C     C_R   0.368633 0.170987 0.008191 -0.098385
C47   C     C_R   0.374898 0.294986 0.435019 -0.098165
C48   C     C_R   0.631367 0.670983 0.491809 -0.098385
C49   C     C_R   0.598071 0.655783 0.016906 0.216608
C50   C     C_R   0.394941 0.303386 0.061179 0.218218
C51   C     C_R   0.401929 0.155784 0.483097 0.216607
C52   C     C_R   0.605060 0.803382 0.438820 0.218215
C53   C     C_R   0.626148 0.088416 0.136872 -0.012356
C54   C     C_R   0.367676 0.874201 0.938912 -0.012977
C55   C     C_R   0.373852 0.588416 0.363131 -0.012356
C56   C     C_R   0.632324 0.374193 0.561085 -0.012977
C57   C     C_R   0.856542 0.910682 0.191028 -0.115438
C58   C     C_R   0.142084 0.090233 0.826583 -0.111047
C59   C     C_R   0.143458 0.410683 0.308973 -0.115437
C60   C     C_R   0.857916 0.590232 0.673417 -0.111046
H5    H     H_    0.761351 0.082364 0.052428 0.151568
H6    H     H_    0.222455 0.955489 0.995130 0.151897
H7    H     H_    0.238649 0.582355 0.447576 0.151567
H8    H     H_    0.777546 0.455499 0.504866 0.151896
C61   C     C_R   0.469665 0.833498 0.994753 0.060788
C62   C     C_R   0.523117 0.117222 0.090444 0.058451
C63   C     C_R   0.530335 0.333493 0.505246 0.060788
C64   C     C_R   0.476883 0.617221 0.409557 0.058451
C65   C     C_R   0.471500 0.132984 0.065091 -0.004339
C66   C     C_R   0.521286 0.818680 0.019333 -0.004102
C67   C     C_R   0.528501 0.632981 0.434909 -0.004339
C68   C     C_R   0.478714 0.318678 0.480668 -0.004103
C69   C     C_R   0.445187 0.993274 0.016031 0.079530
C70   C     C_R   0.547816 0.960607 0.066707 0.078652
C71   C     C_R   0.554813 0.493270 0.483969 0.079529
C72   C     C_R   0.452184 0.460605 0.433294 0.078651
C73   C     C_R   0.441366 0.693739 0.948883 -0.168284
C74   C     C_R   0.551332 0.255025 0.137764 -0.174673
C75   C     C_R   0.558635 0.193729 0.551112 -0.168286
C76   C     C_R   0.448668 0.755025 0.362239 -0.174673
C77   C     C_R   0.391731 0.714837 0.921096 -0.080589
C78   C     C_R   0.601503 0.239912 0.160740 -0.080128
C79   C     C_R   0.608269 0.214827 0.578899 -0.080586
C80   C     C_R   0.398497 0.739913 0.339263 -0.080127
O25   O     O_2   0.292499 0.762154 0.862988 -0.489115
O26   O     O_2   0.702539 0.213464 0.202390 -0.484861
O27   O     O_2   0.707502 0.262145 0.637007 -0.489114
O28   O     O_2   0.297461 0.713465 0.297613 -0.484861
C81   C     C_R   0.547589 0.668491 0.995804 -0.204638
C82   C     C_R   0.445031 0.283762 0.087842 -0.217920
C83   C     C_R   0.452411 0.168492 0.504199 -0.204638
C84   C     C_R   0.554969 0.783759 0.412158 -0.217921
H9    H     H_    0.372142 0.603899 0.885501 0.183976
H10   H     H_    0.621106 0.350542 0.196517 0.184898
H11   H     H_    0.627859 0.103886 0.614492 0.183976
H12   H     H_    0.378894 0.850544 0.303487 0.184898
H13   H     H_    0.456067 0.564164 0.933219 0.130147
H14   H     H_    0.536173 0.379331 0.157659 0.128068
H15   H     H_    0.543933 0.064150 0.566772 0.130146
H16   H     H_    0.463827 0.879332 0.342344 0.128068
H17   H     H_    0.530100 0.558143 0.958467 0.149078
H18   H     H_    0.462101 0.390298 0.127847 0.146105
H19   H     H_    0.469900 0.058148 0.541539 0.149080
H20   H     H_    0.537899 0.890294 0.372153 0.146105
C85   C     C_2   0.856420 0.087624 0.061191 0.381652
H21   H     H_    0.837141 0.188202 0.019063 0.079321
O29   O     O_2   0.897345 0.041395 0.055293 -0.533976
C86   C     C_2   0.126458 0.963392 0.959020 0.375471
H22   H     H_    0.140955 0.880120 0.011264 0.069687
O30   O     O_2   0.084051 0.012828 0.948314 -0.536293
C87   C     C_2   0.143580 0.587614 0.438813 0.381652
H23   H     H_    0.162859 0.688185 0.480944 0.079321
O31   O     O_2   0.102653 0.541390 0.444707 -0.533977
C88   C     C_2   0.873543 0.463406 0.540978 0.375474
H24   H     H_    0.859046 0.380142 0.488731 0.069686
O32   O     O_2   0.915950 0.512838 0.551686 -0.536293
I1    I     I_    0.627239 0.419834 0.966697 -0.289014
I2    I     I_    0.364742 0.536614 0.111537 -0.306330
I3    I     I_    0.372760 0.919838 0.533307 -0.289013
I4    I     I_    0.635259 0.036606 0.388461 -0.306331
C89   C     C_2   0.160317 0.227948 0.699506 0.405191
H25   H     H_    0.181362 0.334047 0.676979 0.103647
O33   O     O_2   0.124133 0.167341 0.654942 -0.539931
C90   C     C_2   0.853040 0.732565 0.317654 0.407614
H26   H     H_    0.838149 0.605608 0.337050 0.081809
O34   O     O_2   0.888736 0.801489 0.360375 -0.541495
C91   C     C_2   0.839683 0.727932 0.800497 0.405188
H27   H     H_    0.818637 0.834024 0.823025 0.103650
O35   O     O_2   0.875868 0.667326 0.845059 -0.539932
C92   C     C_2   0.146960 0.232574 0.182345 0.407613
H28   H     H_    0.161851 0.105620 0.162947 0.081812
O36   O     O_2   0.111264 0.301499 0.139625 -0.541496
I5    I     I_    0.280231 0.241236 0.752100 -0.289521
I6    I     I_    0.734564 0.699936 0.297297 -0.278553
I7    I     I_    0.719768 0.741211 0.747903 -0.289521
I8    I     I_    0.265436 0.199945 0.202703 -0.278551

loop_
_geom_bond_atom_site_label_1
_geom_bond_atom_site_label_2
_ccdc_geom_bond_type
O17   V3    S    
C31   C59   A    
N1    C17   A    
C22   C26   A    
C89   H25   S    
C50   C82   A    
O13   V1    S    
O3    C7    A    
C87   H23   S    
C14   C46   A    
C44   C48   A    
N1    C37   S    
O15   V3    S    
C51   C83   A    
C42   C54   A    
O1    C5    A    
C66   C81   A    
C41   C53   A    
C32   C60   A    
C43   C72   A    
C62   C74   A    
C52   I4    S    
C63   C71   A    
C91   O35   D    
C56   C79   A    
N3    C39   S    
C67   C84   A    
C18   C54   A    
C17   O26   S    
C85   O29   D    
C36   H8    S    
C11   H3    S    
O4    C8    A    
C25   C57   A    
C31   C35   A    
C30   C86   S    
C61   C69   A    
C27   C59   A    
O1    V3    S    
C15   C47   A    
O19   V1    S    
C62   C65   A    
O2    V4    S    
C14   O22   S    
C21   C37   A    
O3    V1    S    
C34   C38   A    
C19   C55   A    
C64   C76   A    
C49   C81   A    
C1    O15   A    
C27   C92   S    
C82   H18   S    
C91   H27   S    
C2    O16   A    
C7    C9    S    
O2    C6    A    
C79   H11   S    
C33   C37   A    
C63   C68   A    
O14   V2    S    
C77   H9    S    
C43   C55   A    
C36   C40   A    
C30   C58   A    
C68   C72   A    
C16   N4    A    
O11   C7    A    
O12   C8    A    
C73   H13   S    
C92   O36   D    
C41   C70   A    
C83   H19   S    
O10   V2    S    
C28   C91   S    
C13   N1    A    
C45   C49   A    
O5    V1    S    
O7    V3    S    
N4    C20   A    
O8    V4    S    
C20   O27   S    
C12   H4    S    
C22   I5    S    
C28   C60   A    
C86   O30   D    
C25   C90   S    
C55   C80   A    
C64   C72   A    
O18   V4    S    
C10   H2    S    
C81   H17   S    
C46   C50   A    
C35   H7    S    
C24   C40   A    
C8    C10   S    
C76   C80   A    
C32   C36   A    
C11   C12   D    
C90   O34   D    
C44   C56   A    
O7    C3    A    
C54   C77   A    
O5    C1    A    
C63   C75   A    
C78   H10   S    
C29   C85   S    
C42   C46   A    
C41   C45   A    
O8    C4    A    
C13   C45   A    
C9    C10   D    
C74   H14   S    
C26   C89   S    
O9    C5    A    
C49   I1    S    
O11   V3    S    
C1    C60   S    
C74   C78   A    
C14   N2    A    
C73   C77   A    
C65   C82   A    
C3    C58   S    
O6    V2    S    
C18   O25   S    
C75   C79   A    
C26   C58   A    
C17   C53   A    
C92   H28   S    
C88   O32   D    
C4    C57   S    
C62   C70   A    
C23   I8    S    
C23   C39   A    
C22   C38   A    
C21   I6    S    
O16   V4    S    
O9    V1    S    
C61   C66   A    
C65   C69   A    
C19   O28   S    
C3    O13   A    
C87   O31   D    
C80   H12   S    
C24   I7    S    
C67   C71   A    
C48   C52   A    
C86   H22   S    
N4    C40   S    
C47   C51   A    
O6    C2    A    
C89   O33   D    
C21   C25   A    
C76   H16   S    
C51   I3    S    
O12   V4    S    
C6    C12   S    
C23   C27   A    
C16   C48   A    
C24   C28   A    
C90   H26   S    
O10   C6    A    
N2    C38   S    
C5    C11   S    
C50   I2    S    
N2    C18   A    
C85   H21   S    
C35   C39   A    
C15   N3    A    
C30   C34   A    
C75   H15   S    
C2    C59   S    
C29   C33   A    
C44   C71   A    
O20   V2    S    
C29   C57   A    
C42   C69   A    
N3    C19   A    
C68   C83   A    
C84   H20   S    
C61   C73   A    
C9    H1    S    
C32   C88   S    
C43   C47   A    
C16   O24   S    
C20   C56   A    
C53   C78   A    
C66   C70   A    
C31   C87   S    
C4    O14   A    
C13   O21   S    
C88   H24   S    
C52   C84   A    
C15   O23   S    
C64   C67   A    
O4    V2    S    
C34   H6    S    
C33   H5    S    
