data_mof_unit_61447.cif
_audit_creation_date              2012-12-10T20:11:51-0500
_audit_creation_method            fapswitch 2.2
_symmetry_space_group_name_H-M    P1
_symmetry_Int_Tables_number       1
_space_group_crystal_system       triclinic
_cell_length_a                    13.643046
_cell_length_b                    18.454094
_cell_length_c                    19.337144
_cell_angle_alpha                 89.976519
_cell_angle_beta                  90.108297
_cell_angle_gamma                 82.832401
_cell_volume                      4830.45873004

loop_
_atom_site_label
_atom_site_type_symbol
_atom_type_description
_atom_site_fract_x
_atom_site_fract_y
_atom_site_fract_z
_atom_type_partial_charge
C1    C     C_R   0.500170 0.499950 0.634362 0.863361
C2    C     C_R   0.566408 0.538137 0.036035 -0.178057
C3    C     C_R   0.500503 0.499870 0.928257 0.104205
C4    C     C_R   0.499644 0.500099 0.071743 0.104208
C5    C     C_R   0.438616 0.280754 0.455613 -0.000151
C6    C     C_R   0.561388 0.719245 0.544384 -0.000151
C7    C     C_R   0.435521 0.204875 0.453929 -0.070444
C8    C     C_R   0.564483 0.795125 0.546068 -0.070446
C9    C     C_R   0.497470 0.158734 0.498667 0.057407
C10   C     C_R   0.502530 0.841265 0.501333 0.057405
C11   C     C_R   0.559284 0.191537 0.544276 -0.282728
C12   C     C_R   0.499835 0.500050 0.365638 0.863360
C13   C     C_R   0.440712 0.808464 0.455726 -0.282727
C14   C     C_R   0.559600 0.267548 0.544043 0.022056
C15   C     C_R   0.440396 0.732452 0.455959 0.022055
C16   C     C_R   0.685918 0.486874 0.499900 0.911088
C17   C     C_R   0.314082 0.513126 0.500100 0.911093
C18   C     C_R   0.488259 0.039762 0.561571 -0.171084
C19   C     C_R   0.511741 0.960238 0.438429 -0.171084
C20   C     C_R   0.489135 0.963579 0.562342 -0.153702
C21   C     C_R   0.510866 0.036421 0.437658 -0.153702
C22   C     C_R   0.501514 0.922703 0.500826 0.120686
C23   C     C_R   0.498713 0.434301 0.254414 -0.182139
C24   C     C_R   0.498487 0.077296 0.499174 0.120687
C25   C     C_1   0.210491 0.523375 0.500928 -0.152543
C26   C     C_1   0.789509 0.476625 0.499072 -0.152540
C27   C     C_2   0.019128 0.531524 0.502405 0.115691
C28   C     C_2   0.980872 0.468476 0.497594 0.115692
C29   C     C_1   0.877178 0.470273 0.498291 0.038501
C30   C     C_1   0.122822 0.529727 0.501708 0.038501
C31   C     C_R   0.500002 0.565927 0.254378 -0.183934
C32   C     C_R   0.500077 0.434061 0.745618 -0.183935
C33   C     C_R   0.499949 0.565897 0.182754 -0.171910
C34   C     C_R   0.501335 0.565691 0.745590 -0.182144
C35   C     C_R   0.500175 0.434082 0.817242 -0.171922
C36   C     C_R   0.499319 0.500129 0.146850 0.114092
C37   C     C_R   0.500811 0.499848 0.853149 0.114090
C38   C     C_R   0.498599 0.434361 0.182790 -0.170209
C39   C     C_R   0.501496 0.565621 0.817214 -0.170198
C40   C     C_1   0.365621 0.176584 0.408276 0.153764
C41   C     C_1   0.634387 0.823416 0.591718 0.153768
C42   C     C_R   0.499515 0.500095 0.290530 -0.033828
C43   C     C_R   0.500524 0.499899 0.709470 -0.033826
C44   C     C_R   0.433313 0.461944 0.035589 -0.179373
C45   C     C_R   0.566835 0.538025 0.964409 -0.179374
C46   C     C_R   0.433741 0.461830 0.963965 -0.178056
H1    H     H_    0.607873 0.158409 0.579460 0.153906
H2    H     H_    0.499759 0.382624 0.718704 0.158051
H3    H     H_    0.499469 0.617163 0.155354 0.135135
H4    H     H_    0.500682 0.382812 0.844638 0.135140
H5    H     H_    0.499076 0.383098 0.155428 0.135926
H6    H     H_    0.501022 0.616882 0.844580 0.135927
H7    H     H_    0.498420 0.382851 0.281352 0.158076
H8    H     H_    0.501599 0.617145 0.718654 0.158074
H9    H     H_    0.380603 0.433094 0.062776 0.138457
H10   H     H_    0.619541 0.566877 0.937222 0.138458
H11   H     H_    0.381325 0.432917 0.936422 0.138584
H12   H     H_    0.392121 0.841592 0.420544 0.153908
H13   H     H_    0.618821 0.567052 0.063577 0.138580
H14   H     H_    0.391238 0.316450 0.421723 0.140728
H15   H     H_    0.608768 0.683549 0.578272 0.140731
H16   H     H_    0.607642 0.292273 0.579093 0.129917
H17   H     H_    0.392351 0.707727 0.420911 0.129921
H18   H     H_    0.478209 0.069619 0.609761 0.140793
H19   H     H_    0.521791 0.930380 0.390239 0.140794
H20   H     H_    0.479104 0.936596 0.611088 0.140196
H21   H     H_    0.520898 0.063403 0.388911 0.140197
H22   H     H_    0.500317 0.617367 0.281290 0.158053
I1    I     I_    0.066628 0.364351 0.488468 -0.354585
I2    I     I_    0.933372 0.635648 0.511531 -0.354588
N1    N     N_R   0.499990 0.310560 0.500020 -0.099800
N2    N     N_R   0.500010 0.689440 0.499980 -0.099800
N3    N     N_1   0.309505 0.153948 0.371683 -0.179802
N4    N     N_1   0.690505 0.846052 0.628309 -0.179801
O1    O     O_R   0.500000 0.439160 0.601820 -0.625139
O2    O     O_R   0.500000 0.560840 0.398180 -0.625138
O3    O     O_R   0.500040 0.560790 0.601820 -0.627563
O4    O     O_R   0.499960 0.439210 0.398180 -0.627566
O5    O     O_R   0.640320 0.430440 0.499980 -0.612990
O6    O     O_R   0.359680 0.569560 0.500020 -0.612989
O7    O     O_R   0.640370 0.552060 0.499990 -0.601196
O8    O     O_R   0.359630 0.447940 0.500010 -0.601193
Zn1   Zn    Zn3+2 0.499970 0.418790 0.500000 0.960549
Zn2   Zn    Zn3+2 0.500030 0.581210 0.500000 0.960549

loop_
_geom_bond_atom_site_label_1
_geom_bond_atom_site_label_2
_ccdc_geom_bond_type
C4    C36   S    
C31   C42   A    
C1    O3    A    
C14   N1    A    
C11   H1    S    
C28   I1    S    
O6    Zn2   S    
C18   H18   S    
O2    Zn2   S    
C10   C22   S    
C6    N2    A    
C15   N2    A    
C23   C42   A    
C18   C24   A    
C6    H15   S    
C20   H20   S    
C28   C29   S    
C35   C37   A    
C11   C14   A    
C33   H3    S    
C14   H16   S    
C33   C36   A    
C40   N3    T    
C17   O8    A    
C12   C42   S    
C41   N4    T    
O4    Zn1   S    
C1    C43   S    
C45   H10   S    
C12   O4    A    
C7    C40   S    
C31   C33   A    
C39   H6    S    
C21   H21   S    
C27   C30   S    
C32   H2    S    
C44   C46   A    
C23   H7    S    
N1    Zn1   S    
C2    C45   A    
C16   C26   S    
C31   H22   S    
C37   C39   A    
C34   C39   A    
C1    O1    A    
C32   C35   A    
C19   C22   A    
C8    C41   S    
C5    C7    A    
C2    H13   S    
C6    C8    A    
C38   H5    S    
C4    C44   A    
O3    Zn2   S    
C3    C45   A    
C17   O6    A    
C2    C4    A    
C35   H4    S    
C9    C11   A    
N2    Zn2   S    
C27   I2    S    
C20   C22   A    
C34   H8    S    
C13   C15   A    
C46   H11   S    
O7    Zn2   S    
C25   C30   T    
C7    C9    A    
C5    H14   S    
C19   C21   A    
C34   C43   A    
C10   C13   A    
C9    C24   S    
C13   H12   S    
C23   C38   A    
C3    C46   A    
C16   O5    A    
C17   C25   S    
C12   O2    A    
C5    N1    A    
O5    Zn1   S    
C44   H9    S    
O1    Zn1   S    
C36   C38   A    
C16   O7    A    
C32   C43   A    
C19   H19   S    
C18   C20   A    
C3    C37   S    
C26   C29   T    
C8    C10   A    
O8    Zn1   S    
C21   C24   A    
C27   C28   D    
C15   H17   S    
