data_mof_unit_47222.cif
_audit_creation_date              2012-12-11T16:35:21-0500
_audit_creation_method            fapswitch 2.2
_symmetry_space_group_name_H-M    P1
_symmetry_Int_Tables_number       1
_space_group_crystal_system       triclinic
_cell_length_a                    6.930389
_cell_length_b                    17.677441
_cell_length_c                    19.494772
_cell_angle_alpha                 109.131357
_cell_angle_beta                  90.376005
_cell_angle_gamma                 90.574902
_cell_volume                      2256.18987798

loop_
_atom_site_label
_atom_site_type_symbol
_atom_type_description
_atom_site_fract_x
_atom_site_fract_y
_atom_site_fract_z
_atom_type_partial_charge
O1    O     O_R   0.505700 0.440210 0.561730 -0.543774
O2    O     O_R   0.169350 0.406300 0.412660 -0.537358
O3    O     O_R   0.005650 0.559790 0.438270 -0.544072
C1    C     C_R   0.338039 0.382954 0.385014 0.695378
O4    O     O_R   0.175560 0.430650 0.559600 -0.542960
O5    O     O_R   0.011900 0.584320 0.586250 -0.534036
C2    C     C_R   0.344701 0.415706 0.581312 0.682573
O6    O     O_R   0.499450 0.415680 0.413750 -0.534707
O7    O     O_3   0.341370 0.550390 0.508570 -0.366610
V1    V     V_3+5 0.063940 0.490650 0.498410 1.413351
O8    O     O_R   0.682570 0.593700 0.587340 -0.537113
C3    C     C_R   0.852552 0.616464 0.615035 0.699310
O9    O     O_R   0.676370 0.569350 0.440400 -0.542104
C4    C     C_R   0.845269 0.584543 0.418969 0.680309
V2    V     V_3+5 0.564750 0.509350 0.501590 1.416612
O10   O     O_3   0.837190 0.449610 0.491430 -0.367869
C5    C     C_R   0.043941 0.714792 0.313855 -0.147367
H1    H     H_    0.181270 0.742236 0.309088 0.101982
C6    C     C_R   0.032474 0.668947 0.360231 -0.171854
H2    H     H_    0.161707 0.661637 0.388849 0.124096
C7    C     C_R   0.856368 0.633933 0.370266 -0.054554
C8    C     C_R   0.692111 0.645646 0.332448 -0.158799
H3    H     H_    0.554532 0.618928 0.338336 0.118294
C9    C     C_R   0.704072 0.690582 0.285260 -0.144786
H4    H     H_    0.575335 0.696291 0.255708 0.098921
C10   C     C_R   0.880144 0.726073 0.275314 0.089275
C11   C     C_R   0.735266 0.820254 0.216103 -0.148926
H5    H     H_    0.603569 0.822415 0.246177 0.103566
C12   C     C_R   0.746356 0.865224 0.169008 -0.166680
H6    H     H_    0.622204 0.899714 0.163727 0.117938
C13   C     C_R   0.916128 0.866822 0.130320 -0.052521
C14   C     C_R   0.074331 0.821894 0.139690 -0.164804
H7    H     H_    0.206992 0.821409 0.110493 0.123246
C15   C     C_R   0.062401 0.775977 0.186078 -0.144656
H8    H     H_    0.185808 0.740695 0.190358 0.100692
C16   C     C_R   0.892783 0.774598 0.225225 0.089671
H9    H     H_    0.776452 0.635577 0.936635 0.115862
C17   C     C_R   0.964987 0.905856 0.745148 -0.136304
C18   C     C_R   0.985384 0.919057 0.678389 0.053479
C19   C     C_R   0.969921 0.854377 0.614054 -0.214769
C20   C     C_R   0.932231 0.777500 0.615767 -0.128663
C21   C     C_R   0.909170 0.762940 0.682338 0.072569
C22   C     C_R   0.927171 0.828228 0.748347 0.025705
C23   C     C_R   0.866597 0.684908 0.683789 -0.176654
C24   C     C_R   0.841787 0.672054 0.751240 0.065953
C25   C     C_R   0.861339 0.737196 0.817359 0.071619
C26   C     C_R   0.904809 0.815198 0.815928 -0.173353
C27   C     C_R   0.798673 0.594797 0.754280 -0.139226
C28   C     C_R   0.775113 0.582155 0.820641 -0.118735
C29   C     C_R   0.794476 0.645740 0.885213 -0.119008
C30   C     C_R   0.837308 0.722471 0.883920 -0.132363
H10   H     H_    0.977919 0.956784 0.794431 0.133758
H11   H     H_    0.985590 0.863412 0.562004 0.112859
H12   H     H_    0.919847 0.729768 0.564205 0.101582
H13   H     H_    0.782735 0.543418 0.705536 0.094989
H14   H     H_    0.741946 0.522650 0.821927 0.115364
H15   H     H_    0.851681 0.769923 0.935582 0.093982
H16   H     H_    0.059280 0.449922 0.180021 0.119055
C31   C     C_R   0.511764 0.233688 0.382991 -0.125171
C32   C     C_R   0.606698 0.164849 0.383707 -0.121429
C33   C     C_R   0.640799 0.103599 0.319088 -0.124070
C34   C     C_R   0.579985 0.110636 0.253234 -0.145564
C35   C     C_R   0.484829 0.180123 0.250572 0.068045
C36   C     C_R   0.450166 0.243174 0.316922 0.071664
C37   C     C_R   0.420681 0.186670 0.183534 -0.187742
C38   C     C_R   0.322736 0.256819 0.183159 0.073786
C39   C     C_R   0.288169 0.319898 0.249503 0.066430
C40   C     C_R   0.352240 0.313339 0.316556 -0.188729
C41   C     C_R   0.261016 0.266248 0.117077 -0.126019
C42   C     C_R   0.166061 0.335062 0.116334 -0.124577
C43   C     C_R   0.132137 0.396363 0.180938 -0.121111
C44   C     C_R   0.193136 0.389404 0.246810 -0.147300
H17   H     H_    0.485218 0.278762 0.434916 0.101667
H18   H     H_    0.652806 0.158782 0.434794 0.114971
H19   H     H_    0.713643 0.050021 0.319970 0.119385
H20   H     H_    0.608159 0.060828 0.204701 0.107823
H21   H     H_    0.287444 0.221144 0.065156 0.096134
H22   H     H_    0.119835 0.341071 0.065236 0.110384
H23   H     H_    0.165215 0.439299 0.295322 0.112396
C45   C     C_R   0.543327 0.316299 0.712574 -0.153269
H24   H     H_    0.680202 0.314750 0.739123 0.098870
C46   C     C_R   0.531612 0.360965 0.665240 -0.160615
H25   H     H_    0.660411 0.391522 0.656311 0.115949
C47   C     C_R   0.356036 0.367084 0.630830 -0.049895
C48   C     C_R   0.192473 0.326982 0.644915 -0.170663
H26   H     H_    0.055038 0.330074 0.619260 0.121021
C49   C     C_R   0.204642 0.281538 0.691746 -0.135786
H27   H     H_    0.076499 0.250131 0.699891 0.113864
C50   C     C_R   0.380262 0.275643 0.726459 0.089609
C51   C     C_R   0.237026 0.222756 0.821033 -0.079493
H28   H     H_    0.105565 0.255092 0.820424 0.093592
C52   C     C_R   0.248323 0.176702 0.867268 -0.100858
H29   H     H_    0.124724 0.174200 0.900226 0.113703
C53   C     C_R   0.417304 0.134957 0.871358 -0.068213
C54   C     C_R   0.575080 0.140617 0.828289 -0.148460
H30   H     H_    0.706879 0.108750 0.829811 0.152609
C55   C     C_R   0.562957 0.185772 0.781281 -0.133993
H31   H     H_    0.685674 0.186692 0.747484 0.125953
C56   C     C_R   0.393556 0.227504 0.776827 0.073346
O11   O     O_R   0.273230 0.084330 0.086440 -0.535614
O12   O     O_R   0.596660 0.069390 0.940470 -0.543916
O13   O     O_R   0.760270 0.915710 0.913690 -0.533697
C57   C     C_R   0.427555 0.084898 0.919414 0.685327
O14   O     O_R   0.603330 0.093680 0.087390 -0.538349
O15   O     O_R   0.766990 0.940160 0.061660 -0.543786
C58   C     C_R   0.434717 0.117038 0.115100 0.693098
O16   O     O_R   0.266510 0.059870 0.938470 -0.538995
O17   O     O_3   0.431050 0.949630 0.991510 -0.366853
V3    V     V_3+5 0.708490 0.009340 0.001580 1.418715
O18   O     O_R   0.096270 0.930570 0.059390 -0.542550
C59   C     C_R   0.927447 0.915626 0.081100 0.679253
O19   O     O_R   0.089600 0.906290 0.912460 -0.536701
C60   C     C_R   0.919471 0.883542 0.884801 0.698228
V4    V     V_3+5 0.207670 0.990600 0.998190 1.425333
O20   O     O_3   0.935250 0.050360 0.008480 -0.368177
C61   C     C_2   0.021522 0.000249 0.674776 0.336085
H32   H     H_    0.041564 0.008722 0.622577 0.046253
O21   O     O_2   0.028193 0.058652 0.729726 -0.549260

loop_
_geom_bond_atom_site_label_1
_geom_bond_atom_site_label_2
_ccdc_geom_bond_type
C27   H13   S    
C49   H27   S    
C35   C37   A    
C11   C12   A    
C20   C21   A    
C37   C58   S    
C41   H21   S    
C54   H30   S    
C1    O6    A    
O19   V4    S    
V4    O20   S    
C48   H26   S    
C33   H19   S    
C31   C36   A    
C12   H6    S    
C50   C56   S    
C5    C10   A    
C36   C40   A    
C4    C7    S    
C6    C7    A    
C9    C10   A    
C39   C44   A    
C44   H23   S    
O5    C3    A    
O14   V3    S    
H16   C43   S    
C38   C41   A    
C42   H22   S    
O12   V3    S    
V2    O10   S    
O18   V4    S    
O17   V3    S    
C15   H8    S    
O17   V4    S    
C45   C50   A    
O18   C59   A    
O8    V2    S    
C6    H2    S    
C42   C43   A    
C30   H15   S    
O7    V1    S    
C31   H17   S    
C2    C47   S    
O15   C59   A    
C31   C32   A    
O12   C57   A    
O9    C4    A    
C34   H20   S    
C41   C42   A    
C21   C23   A    
O14   C58   A    
O19   C60   A    
C55   C56   A    
C55   H31   S    
C48   C49   A    
C39   C40   A    
O11   V4    S    
C9    H4    S    
C45   C46   A    
C18   C19   A    
C1    C40   S    
C29   C30   A    
C24   C25   A    
C25   C30   A    
C17   C22   A    
C32   C33   A    
C14   C15   A    
O2    C1    A    
O16   V4    S    
C34   C35   A    
C51   C52   A    
C13   C14   A    
C52   C53   A    
C5    H1    S    
C53   C54   A    
C47   C48   A    
O3    C4    A    
O1    V2    S    
C10   C16   S    
C19   C20   A    
C53   C57   S    
C46   H25   S    
O6    V2    S    
C46   C47   A    
C49   C50   A    
C8    C9    A    
C21   C22   A    
O2    V1    S    
C51   C56   A    
C23   C24   A    
O4    C2    A    
C24   C27   A    
C26   C60   S    
O15   V3    S    
C25   C26   A    
C27   C28   A    
O1    C2    A    
C45   H24   S    
O5    V1    S    
O8    C3    A    
C54   C55   A    
C11   C16   A    
C28   H14   S    
O11   C58   A    
C14   H7    S    
O9    V2    S    
O7    V2    S    
O4    V1    S    
C3    C23   S    
O3    V1    S    
V1    O10   S    
H9    C29   S    
C51   H28   S    
C17   C18   A    
C18   C61   S    
C32   H18   S    
C52   H29   S    
C5    C6    A    
C61   O21   D    
C61   H32   S    
C38   C39   A    
C15   C16   A    
C37   C38   A    
C33   C34   A    
C20   H12   S    
V3    O20   S    
C19   H11   S    
C35   C36   A    
C43   C44   A    
C17   H10   S    
C12   C13   A    
C28   C29   A    
C11   H5    S    
O13   C60   A    
C13   C59   S    
C8    H3    S    
O13   V3    S    
C57   O16   A    
C7    C8    A    
C22   C26   A    
