data_mof_unit_46041.cif
_audit_creation_date              2012-12-11T14:06:44-0500
_audit_creation_method            fapswitch 2.2
_symmetry_space_group_name_H-M    P1
_symmetry_Int_Tables_number       1
_space_group_crystal_system       triclinic
_cell_length_a                    6.92138
_cell_length_b                    17.338323
_cell_length_c                    24.092767
_cell_angle_alpha                 104.320822
_cell_angle_beta                  90.257035
_cell_angle_gamma                 89.835191
_cell_volume                      2801.37945074

loop_
_atom_site_label
_atom_site_type_symbol
_atom_type_description
_atom_site_fract_x
_atom_site_fract_y
_atom_site_fract_z
_atom_type_partial_charge
O1    O     O_R   0.494290 0.391990 0.999150 -0.520452
O2    O     O_R   0.827170 0.534410 0.082350 -0.513059
O3    O     O_R   0.994360 0.608010 0.000850 -0.509698
C1    C     C_R   0.658316 0.549832 0.106163 0.824715
O4    O     O_R   0.824210 0.388010 0.004470 -0.528311
O5    O     O_R   0.991370 0.460560 0.922410 -0.521183
C2    C     C_R   0.654785 0.354665 0.000170 0.788749
O6    O     O_R   0.497270 0.539440 0.077590 -0.518180
O7    O     O_3   0.659770 0.523970 0.973170 -0.360721
V1    V     V_3+5 0.935840 0.495550 0.004980 1.781448
O8    O     O_R   0.320910 0.465590 0.917650 -0.519971
C3    C     C_R   0.151500 0.451062 0.893835 0.859782
O9    O     O_R   0.323870 0.611990 0.995530 -0.545673
C4    C     C_R   0.153967 0.645109 0.998544 0.821609
V2    V     V_3+5 0.435470 0.504450 0.995020 1.756437
O10   O     O_3   0.161670 0.476030 0.026830 -0.355642
C5    C     C_2   0.140991 0.730171 0.998128 -0.399832
H1    H     H_    0.275469 0.760724 0.994540 0.135130
C6    C     C_2   0.970962 0.770243 0.002259 0.461744
C7    C     C_R   0.062673 0.260281 0.625139 0.742549
N1    N     N_R   0.094217 0.339660 0.647609 -0.518261
C8    C     C_R   0.112173 0.390983 0.612774 0.783462
C9    C     C_R   0.089989 0.363617 0.552145 -0.176203
C10   C     C_R   0.065163 0.281000 0.528686 -0.051789
C11   C     C_R   0.050474 0.229253 0.565594 -0.055401
C12   C     C_R   0.090242 0.415151 0.514352 0.308563
C13   C     C_R   0.085153 0.383568 0.454172 0.331845
C14   C     C_R   0.069683 0.299855 0.430563 -0.177170
C15   C     C_R   0.053390 0.249439 0.468400 -0.048549
C16   C     C_R   0.025483 0.166698 0.446062 -0.044185
C17   C     C_R   0.010336 0.116617 0.483524 -0.050176
C18   C     C_R   0.022791 0.147439 0.542440 -0.039534
C19   C     C_R   0.064952 0.263957 0.370493 0.767174
N2    N     N_R   0.029486 0.184133 0.350140 -0.540249
C20   C     C_R   0.010921 0.135540 0.386583 0.728463
O11   O     O_2   0.043175 0.211327 0.660462 -0.456547
O12   O     O_2   0.155724 0.467522 0.637123 -0.425446
O13   O     O_2   0.096486 0.307402 0.332228 -0.430196
O14   O     O_2   0.977516 0.057118 0.365246 -0.452490
H2    H     H_    0.989135 0.053117 0.467444 0.200969
H3    H     H_    0.010720 0.106667 0.569825 0.207771
C21   C     C_R   0.154141 0.102506 0.258396 0.726867
C22   C     C_R   0.136653 0.071039 0.199316 -0.274539
H4    H     H_    0.252112 0.033750 0.177053 0.194314
C23   C     C_R   0.972822 0.086727 0.169112 -0.253629
C24   C     C_R   0.824492 0.136029 0.199859 0.218492
C25   C     C_R   0.841991 0.167058 0.259752 0.268392
C26   C     C_R   0.008169 0.150895 0.289056 0.109111
C27   C     C_R   0.960433 0.415301 0.740861 0.233959
C28   C     C_R   0.974608 0.441720 0.800730 0.530808
C29   C     C_R   0.138845 0.423644 0.830158 -0.456770
C30   C     C_R   0.288680 0.378505 0.798125 0.497662
C31   C     C_R   0.272989 0.351110 0.738416 0.626789
C32   C     C_R   0.109750 0.369488 0.709210 -0.017538
C33   C     C_R   0.530508 0.871197 0.614718 0.761912
N3    N     N_R   0.505184 0.819734 0.648867 -0.568172
C34   C     C_R   0.508053 0.739015 0.626455 0.711249
C35   C     C_R   0.540745 0.706352 0.567098 -0.163312
C36   C     C_R   0.557882 0.759329 0.530920 -0.127976
C37   C     C_R   0.553118 0.842319 0.554938 -0.181669
C38   C     C_R   0.557752 0.623214 0.542494 0.274590
C39   C     C_R   0.575921 0.594268 0.483123 0.657428
C40   C     C_R   0.585128 0.646412 0.446723 -0.192847
C41   C     C_R   0.581178 0.729446 0.470730 -0.131400
C42   C     C_R   0.600371 0.782457 0.434612 -0.168683
C43   C     C_R   0.594431 0.865810 0.459677 0.221716
C44   C     C_R   0.571988 0.894557 0.518907 0.618437
C45   C     C_R   0.599052 0.617502 0.386682 0.746538
N4    N     N_R   0.615751 0.669011 0.352199 -0.547648
C46   C     C_R   0.623754 0.749604 0.374870 0.759046
O15   O     O_2   0.535202 0.950174 0.638845 -0.413887
O16   O     O_2   0.476125 0.691195 0.661793 -0.440750
O17   O     O_2   0.593917 0.538502 0.362678 -0.411476
O18   O     O_2   0.654952 0.797041 0.339224 -0.437563
C47   C     C_R   0.469377 0.649861 0.255381 0.268777
C48   C     C_R   0.481037 0.621194 0.195656 0.543519
C49   C     C_R   0.647174 0.580098 0.169809 -0.377686
C50   C     C_R   0.800490 0.568010 0.205594 0.597826
C51   C     C_R   0.787632 0.596273 0.265220 -0.136826
H5    H     H_    0.906377 0.586036 0.291938 0.217418
C52   C     C_R   0.623797 0.638001 0.290625 0.099627
C53   C     C_R   0.640593 0.838643 0.745619 -0.094759
H6    H     H_    0.766111 0.805109 0.726494 0.197409
C54   C     C_R   0.632661 0.868129 0.805087 0.245030
C55   C     C_R   0.469505 0.912708 0.830882 -0.162638
C56   C     C_R   0.315277 0.923460 0.795091 -0.209763
H7    H     H_    0.187757 0.956223 0.813402 0.195743
C57   C     C_R   0.323658 0.892748 0.735437 0.343929
C58   C     C_R   0.488730 0.850848 0.710253 0.234121
C59   C     C_2   0.645294 0.267951 0.994110 -0.052598
C60   C     C_2   0.476014 0.230739 0.000789 0.413295
O19   O     O_R   0.618210 0.960470 0.922400 -0.520209
O20   O     O_R   0.291310 0.111960 0.995450 -0.503306
O21   O     O_R   0.124210 0.039530 0.077580 -0.540601
C61   C     C_R   0.461818 0.144753 0.997756 0.738087
O22   O     O_R   0.288310 0.965490 0.917650 -0.540162
O23   O     O_R   0.121180 0.892010 0.999220 -0.571066
C62   C     C_R   0.457351 0.947347 0.894119 0.759749
O24   O     O_R   0.621230 0.107990 0.000760 -0.540238
O25   O     O_3   0.455770 0.976060 0.026840 -0.379526
V3    V     V_3+5 0.179680 0.004440 0.995020 1.603957
O26   O     O_R   0.791670 0.888040 0.004570 -0.514029
C63   C     C_R   0.961175 0.855072 0.001704 0.687625
O27   O     O_R   0.794680 0.034510 0.082370 -0.526739
C64   C     C_R   0.963031 0.052575 0.105861 0.808701
V4    V     V_3+5 0.680070 0.995560 0.005010 1.618815
O28   O     O_3   0.953840 0.023940 0.973160 -0.344373
Br1   Br    Br    0.638236 0.231105 0.302532 -0.276882
Br2   Br    Br    0.732866 0.441199 0.703392 -0.227190
F1    F     F_    0.828629 0.486230 0.829967 -0.591532
F2    F     F_    0.448061 0.358721 0.824673 -0.588099
F3    F     F_    0.416534 0.305673 0.708766 -0.565813
Br3   Br    Br    0.571118 0.543915 0.586352 -0.216470
F4    F     F_    0.588362 0.514220 0.461372 -0.576879
Br4   Br    Br    0.608043 0.946463 0.417025 -0.258414
F5    F     F_    0.566438 0.974687 0.540937 -0.592385
Br5   Br    Br    0.238905 0.704339 0.287951 -0.357791
F6    F     F_    0.800859 0.733077 0.006861 -0.657918
F7    F     F_    0.330572 0.635050 0.163011 -0.609754
F8    F     F_    0.962007 0.527725 0.183239 -0.597414
Br6   Br    Br    0.847157 0.839942 0.847240 -0.495647
Br7   Br    Br    0.105189 0.907241 0.689847 -0.433534
Br8   Br    Br    0.883856 0.212249 0.968708 -0.410421
F9    F     F_    0.310948 0.273927 0.014567 -0.632019
Br9   Br    Br    0.076777 0.530029 0.542609 -0.326613
Br10  Br    Br    0.089204 0.458875 0.406364 -0.235025
F10   F     F_    0.314316 0.085836 0.285973 -0.596387
Br11  Br    Br    0.603318 0.166935 0.161082 -0.423866

loop_
_geom_bond_atom_site_label_1
_geom_bond_atom_site_label_2
_ccdc_geom_bond_type
V3    O28   S    
C33   N3    A    
O21   C64   A    
C59   Br8   S    
C20   O14   S    
C47   Br5   S    
C1    O6    A    
O27   V4    S    
C34   C35   A    
O19   C62   A    
C31   C32   A    
C17   H2    S    
C12   C13   A    
C15   C16   A    
C53   C58   A    
C16   C20   A    
C27   Br2   S    
C14   C15   A    
C39   F4    S    
C55   C56   A    
C16   C17   A    
C13   Br10  S    
C61   O24   A    
V4    O28   S    
V2    O10   S    
C28   F1    S    
N3    C34   A    
N2    C20   A    
C9    C12   A    
C10   C15   A    
C47   C48   A    
C55   C62   S    
O26   C63   A    
C40   C45   A    
C6    C63   S    
C17   C18   A    
O21   V3    S    
C45   N4    A    
O22   C62   A    
C46   O18   S    
C18   H3    S    
O1    V2    S    
O7    V1    S    
C33   C37   A    
C57   C58   A    
C11   C18   A    
C43   C44   A    
C36   C37   A    
O20   C61   A    
O1    C2    A    
O9    C4    A    
C4    C5    S    
N4    C46   A    
O8    V2    S    
O27   C64   A    
C23   C64   S    
C19   N2    A    
C48   C49   A    
C48   F7    S    
C43   Br4   S    
C29   C30   A    
O22   V3    S    
C10   C11   A    
C37   C44   A    
C57   Br7   S    
O20   V3    S    
C51   C52   A    
C50   C51   A    
C47   C52   A    
C30   F2    S    
C28   C29   A    
C45   O17   S    
C49   C50   A    
C8    O12   S    
C51   H5    S    
C12   Br9   S    
C50   F8    S    
C44   F5    S    
C39   C40   A    
C25   C26   A    
C9    C10   A    
C5    H1    S    
C36   C41   A    
C21   C26   A    
C54   C55   A    
C22   C23   A    
O23   C63   A    
O3    C4    A    
C21   F10   S    
C31   F3    S    
O19   V4    S    
N3    C58   S    
C14   C19   A    
C53   H6    S    
O6    V2    S    
C53   C54   A    
C60   F9    S    
O9    V2    S    
C22   H4    S    
C38   Br3   S    
N2    C26   S    
C21   C22   A    
O2    V1    S    
C3    C29   S    
C30   C31   A    
O4    C2    A    
C24   Br11  S    
C25   Br1   S    
O24   V4    S    
C24   C25   A    
C56   H7    S    
O5    V1    S    
O8    C3    A    
O25   V4    S    
C19   O13   S    
C41   C42   A    
C35   C36   A    
C1    C49   S    
O3    V1    S    
V1    O10   S    
O5    C3    A    
C2    C59   S    
C59   C60   D    
N1    C32   S    
C35   C38   A    
O2    C1    A    
O25   V3    S    
C5    C6    D    
O26   V4    S    
C56   C57   A    
C42   C43   A    
C34   O16   S    
O7    V2    S    
C38   C39   A    
C33   O15   S    
N4    C52   S    
C60   C61   S    
C40   C41   A    
C7    O11   S    
C23   C24   A    
O4    V1    S    
C7    N1    A    
C27   C28   A    
C7    C11   A    
C13   C14   A    
C6    F6    S    
C8    C9    A    
C42   C46   A    
N1    C8    A    
O23   V3    S    
C27   C32   A    
C54   Br6   S    
