data_mof_unit_63657.cif
_audit_creation_date              2013-03-05T16:24:11-0500
_audit_creation_method            fapswitch 2.2
_symmetry_space_group_name_H-M    P1
_symmetry_Int_Tables_number       1
_space_group_crystal_system       triclinic
_cell_length_a                    28.359604
_cell_length_b                    18.383606
_cell_length_c                    21.768723
_cell_angle_alpha                 90.115499
_cell_angle_beta                  139.644001
_cell_angle_gamma                 89.956194
_cell_volume                      7348.95847577

loop_
_atom_site_label
_atom_site_type_symbol
_atom_site_description
_atom_site_fract_x
_atom_site_fract_y
_atom_site_fract_z
_atom_type_partial_charge
O1    O     O_R   0.894200 0.438770 0.894190 -0.565216
O2    O     O_R   0.105800 0.561230 0.105810 -0.565232
O3    O     O_R   0.105800 0.438770 0.105810 -0.582335
O4    O     O_R   0.894200 0.561230 0.894190 -0.582328
O5    O     O_R   0.394200 0.938770 0.894190 -0.565211
O6    O     O_R   0.605800 0.061230 0.105810 -0.565247
O7    O     O_R   0.605800 0.938770 0.105810 -0.582353
O8    O     O_R   0.394200 0.061230 0.894190 -0.582376
C1    C     C_R   0.860115 0.499955 0.859891 0.825380
C2    C     C_R   0.139885 0.500045 0.140109 0.825377
C3    C     C_R   0.360115 0.999955 0.859891 0.825323
C4    C     C_R   0.639885 0.000045 0.140109 0.825337
O9    O     O_R   0.999990 0.438770 0.909810 -0.580642
O10   O     O_R   0.000010 0.561230 0.090190 -0.580654
O11   O     O_R   0.000010 0.438770 0.090190 -0.577723
O12   O     O_R   0.999990 0.561230 0.909810 -0.577712
O13   O     O_R   0.499990 0.938770 0.909810 -0.580606
O14   O     O_R   0.500010 0.061230 0.090190 -0.580638
O15   O     O_R   0.500010 0.938770 0.090190 -0.577723
O16   O     O_R   0.499990 0.061230 0.909810 -0.577694
C5    C     C_R   0.997970 0.499944 0.879231 0.799411
C6    C     C_R   0.002042 0.500057 0.120782 0.799409
C7    C     C_R   0.497990 0.999943 0.879253 0.799448
C8    C     C_R   0.502027 0.000056 0.120765 0.799432
Cu1   Cu    Cu3+1 0.000000 0.427490 0.000000 1.021719
Cu2   Cu    Cu3+1 0.000000 0.572510 0.000000 1.021739
Cu3   Cu    Cu3+1 0.500000 0.927490 0.000000 1.021620
Cu4   Cu    Cu3+1 0.500000 0.072510 0.000000 1.021606
H1    H     H_    0.082276 0.576270 0.889946 0.193789
H2    H     H_    0.917851 0.423602 0.110179 0.193872
H3    H     H_    0.582661 0.075864 0.890307 0.193357
H4    H     H_    0.417671 0.923785 0.110004 0.193725
C9    C     C_R   0.885731 0.420409 0.700393 -0.232161
C10   C     C_R   0.114168 0.579755 0.299525 -0.232137
C11   C     C_R   0.385516 0.920731 0.700221 -0.232211
C12   C     C_R   0.614301 0.079541 0.299633 -0.232178
H5    H     H_    0.878040 0.427782 0.741589 0.176358
H6    H     H_    0.121885 0.572389 0.258357 0.176433
H7    H     H_    0.377886 0.928114 0.741484 0.176226
H8    H     H_    0.621983 0.072167 0.258427 0.176343
C13   C     C_R   0.835843 0.376599 0.619056 0.386868
C14   C     C_R   0.163977 0.623650 0.380790 0.386834
C15   C     C_R   0.335491 0.877055 0.618768 0.386857
C16   C     C_R   0.664211 0.123329 0.380989 0.386863
C17   C     C_R   0.845013 0.366551 0.564945 -0.155708
C18   C     C_R   0.154784 0.633679 0.434876 -0.155788
C19   C     C_R   0.344604 0.866980 0.564598 -0.155658
C20   C     C_R   0.655050 0.133381 0.435109 -0.155678
H9    H     H_    0.808868 0.331057 0.503594 0.220602
H10   H     H_    0.190865 0.669235 0.496168 0.220516
H11   H     H_    0.308350 0.831585 0.503151 0.220643
H12   H     H_    0.691213 0.168858 0.496476 0.220627
C21   C     C_R   0.900340 0.402730 0.588448 -0.213644
C22   C     C_R   0.099517 0.597402 0.411429 -0.213650
C23   C     C_R   0.400027 0.902990 0.588176 -0.213481
C24   C     C_R   0.599707 0.097230 0.411593 -0.213601
H13   H     H_    0.905582 0.391066 0.545232 0.172209
H14   H     H_    0.094258 0.609039 0.454631 0.172112
H15   H     H_    0.405230 0.891278 0.544929 0.172436
H16   H     H_    0.594471 0.108901 0.454813 0.172275
C25   C     C_R   0.947096 0.452124 0.665535 0.054707
C26   C     C_R   0.052838 0.547943 0.334410 0.054685
C27   C     C_R   0.446944 0.952249 0.665403 0.054826
C28   C     C_R   0.552926 0.047856 0.334485 0.054713
C29   C     C_R   0.942695 0.456863 0.725855 0.041930
C30   C     C_R   0.057253 0.543214 0.274103 0.041956
C31   C     C_R   0.442574 0.957016 0.725756 0.041812
C32   C     C_R   0.557323 0.043113 0.274159 0.041917
C33   C     C_R   0.994200 0.499632 0.808888 -0.129460
C34   C     C_R   0.005813 0.500369 0.191129 -0.129542
C35   C     C_R   0.494228 0.999620 0.808923 -0.129195
C36   C     C_R   0.505795 0.000369 0.191107 -0.129421
C37   C     C_R   0.044448 0.542181 0.827092 -0.241719
C38   C     C_R   0.955626 0.457745 0.172984 -0.241689
C39   C     C_R   0.544668 0.041933 0.827311 -0.241781
C40   C     C_R   0.455522 0.957852 0.172878 -0.241742
C41   C     C_R   0.045609 0.543072 0.764477 0.324304
C42   C     C_R   0.954461 0.456850 0.235594 0.324265
C43   C     C_R   0.545836 0.042774 0.764710 0.324581
C44   C     C_R   0.454361 0.956966 0.235491 0.324338
C45   C     C_R   0.997976 0.496830 0.684179 -0.206223
C46   C     C_R   0.002023 0.503164 0.315824 -0.206175
C47   C     C_R   0.497982 0.996768 0.684193 -0.206372
C48   C     C_R   0.502024 0.003177 0.315820 -0.206252
C49   C     C_1   0.782576 0.499857 0.782021 -0.128632
C50   C     C_1   0.217424 0.500143 0.217979 -0.128710
C51   C     C_1   0.282576 0.999857 0.782021 -0.128468
C52   C     C_1   0.717424 0.000143 0.217979 -0.128591
C53   C     C_1   0.717268 0.499854 0.716653 -0.118800
C54   C     C_1   0.282732 0.500146 0.283347 -0.118927
C55   C     C_1   0.217268 0.999854 0.716653 -0.118513
C56   C     C_1   0.782732 0.000146 0.283347 -0.118712
O17   O     O_R   0.061240 0.605830 0.561270 -0.559424
O18   O     O_R   0.938760 0.394170 0.438730 -0.559425
O19   O     O_R   0.938760 0.605830 0.438730 -0.589956
O20   O     O_R   0.061240 0.394170 0.561270 -0.589962
O21   O     O_R   0.561240 0.105830 0.561270 -0.559442
O22   O     O_R   0.438760 0.894170 0.438730 -0.559409
O23   O     O_R   0.438760 0.105830 0.438730 -0.589930
O24   O     O_R   0.561240 0.894170 0.561270 -0.589914
C57   C     C_R   0.000042 0.639934 0.499925 0.856512
C58   C     C_R   0.999958 0.360066 0.500076 0.856640
C59   C     C_R   0.500042 0.139934 0.499930 0.856046
C60   C     C_R   0.499958 0.860066 0.500074 0.856524
O25   O     O_R   0.061260 0.500000 0.651450 -0.544149
O26   O     O_R   0.938740 0.500000 0.348550 -0.544228
O27   O     O_R   0.561260 0.000000 0.651450 -0.543830
O28   O     O_R   0.438740 0.000000 0.348550 -0.544080
O29   O     O_R   0.938780 0.500000 0.528960 -0.597303
O30   O     O_R   0.061220 0.500000 0.471040 -0.597253
O31   O     O_R   0.438780 1.000000 0.528960 -0.597443
O32   O     O_R   0.561220 0.000000 0.471040 -0.597306
C61   C     C_R   0.999587 0.498081 0.618605 0.834011
C62   C     C_R   0.000412 0.501914 0.381396 0.834133
C63   C     C_R   0.499587 0.998062 0.618607 0.833442
C64   C     C_R   0.500413 0.001921 0.381395 0.833957
Cu5   Cu    Cu3+1 0.072520 0.500000 0.572540 1.047617
Cu6   Cu    Cu3+1 0.927480 0.500000 0.427460 1.047530
Cu7   Cu    Cu3+1 0.572520 0.000000 0.572540 1.047959
Cu8   Cu    Cu3+1 0.427480 0.000000 0.427460 1.047583
O33   O     O_R   0.500010 0.605810 0.447830 -0.570144
O34   O     O_R   0.499990 0.394190 0.552170 -0.570222
O35   O     O_R   0.499990 0.605810 0.552170 -0.575362
O36   O     O_R   0.500010 0.394190 0.447830 -0.575300
O37   O     O_R   0.000010 0.105810 0.447830 -0.570119
O38   O     O_R   0.999990 0.894190 0.552170 -0.570162
O39   O     O_R   0.999990 0.105810 0.552170 -0.575345
O40   O     O_R   0.000010 0.894190 0.447830 -0.575256
C65   C     C_R   0.499944 0.639713 0.499997 0.829882
C66   C     C_R   0.500056 0.360287 0.500004 0.829908
C67   C     C_R   0.999944 0.139713 0.499997 0.829819
C68   C     C_R   0.000056 0.860287 0.500003 0.829876
O41   O     O_R   0.605800 0.500000 0.553630 -0.567487
O42   O     O_R   0.394200 0.500000 0.446370 -0.567592
O43   O     O_R   0.105800 0.000000 0.553630 -0.567332
O44   O     O_R   0.894200 0.000000 0.446370 -0.567484
O45   O     O_R   0.605820 0.500000 0.658030 -0.578670
O46   O     O_R   0.394180 0.500000 0.341970 -0.578618
O47   O     O_R   0.105820 0.000000 0.658030 -0.578714
O48   O     O_R   0.894180 0.000000 0.341970 -0.578622
C69   C     C_R   0.639711 0.499928 0.639507 0.830925
C70   C     C_R   0.360289 0.500072 0.360493 0.830904
C71   C     C_R   0.139711 0.999927 0.639507 0.830894
C72   C     C_R   0.860289 0.000072 0.360493 0.830860
Cu9   Cu    Cu3+1 0.500000 0.500000 0.438200 1.043288
Cu10  Cu    Cu3+1 0.500000 0.500000 0.561800 1.043071
Cu11  Cu    Cu3+1 0.000000 0.000000 0.438200 1.043615
Cu12  Cu    Cu3+1 0.000000 0.000000 0.561800 1.043338
C73   C     C_1   0.000127 0.717464 0.499960 -0.119837
C74   C     C_1   0.999873 0.282536 0.500041 -0.119763
C75   C     C_1   0.500127 0.217464 0.499964 -0.120033
C76   C     C_1   0.499873 0.782536 0.500039 -0.119803
C77   C     C_1   0.500123 0.282745 0.499968 -0.127563
C78   C     C_1   0.499877 0.717255 0.500033 -0.127518
C79   C     C_1   0.000123 0.782745 0.499967 -0.127470
C80   C     C_1   0.999877 0.217255 0.500034 -0.127481
N1    N     N_R   0.776016 0.342742 0.591433 0.133143
O49   O     O_R   0.772713 0.343728 0.647882 -0.358768
O50   O     O_R   0.722435 0.313788 0.507617 -0.342469
N2    N     N_R   0.223751 0.657610 0.408366 0.133112
O51   O     O_R   0.227070 0.656620 0.351934 -0.358706
O52   O     O_R   0.277269 0.686671 0.492127 -0.342551
N3    N     N_R   0.275600 0.843343 0.591109 0.133161
O53   O     O_R   0.272268 0.844452 0.647527 -0.358918
O54   O     O_R   0.222012 0.814366 0.507309 -0.342364
N4    N     N_R   0.724050 0.157161 0.408620 0.133144
O55   O     O_R   0.727352 0.156166 0.352169 -0.358819
O56   O     O_R   0.777640 0.186103 0.492443 -0.342441
N5    N     N_R   0.093530 0.593407 0.781682 0.140862
O57   O     O_R   0.158561 0.605058 0.867920 -0.321737
O58   O     O_R   0.068351 0.636531 0.714398 -0.348502
N6    N     N_R   0.906613 0.406443 0.218461 0.140845
O59   O     O_R   0.841649 0.394601 0.132229 -0.321782
O60   O     O_R   0.931834 0.363419 0.285843 -0.348604
N7    N     N_R   0.594054 0.092794 0.782200 0.140876
O61   O     O_R   0.659494 0.103377 0.868407 -0.321664
O62   O     O_R   0.568998 0.136512 0.715409 -0.348164
N8    N     N_R   0.406401 0.906672 0.218250 0.140870
O63   O     O_R   0.341321 0.895153 0.132018 -0.321712
O64   O     O_R   0.431564 0.863476 0.285475 -0.348470

loop_
_geom_bond_atom_site_label_1
_geom_bond_atom_site_label_2
_geom_bond_distance
_ccdc_geom_bond_type
C37   C41   1.388413 A    
O23   C59   1.287597 A    
O12   C5    1.286355 A    
C23   H15   1.079513 S    
N5    O57   1.301429 A    
O28   Cu8   1.971981 S    
N3    O53   1.301712 A    
C10   C14   1.401251 A    
C44   C48   1.414198 A    
O9    Cu1   1.974443 S    
C10   C30   1.414764 A    
Cu9   Cu10  2.690614 S    
C9    C29   1.414757 A    
N7    O62   1.301569 A    
C12   C32   1.414762 A    
O13   C7    1.286775 A    
O26   C62   1.290547 A    
O14   C8    1.286818 A    
C28   C32   1.413055 A    
O25   C61   1.290577 A    
C67   C80   1.425501 S    
N3    O54   1.301236 A    
C49   C53   1.199365 T    
O5    C3    1.287940 A    
C51   C55   1.199363 T    
O6    C4    1.287940 A    
C65   C78   1.425499 S    
H2    C38   1.084513 S    
O37   Cu11  1.955990 S    
C29   C33   1.411045 A    
O11   Cu1   1.973611 S    
H1    C37   1.084519 S    
O20   C58   1.287592 A    
O46   Cu9   1.952732 S    
O24   C60   1.287592 A    
C68   C79   1.425501 S    
O7    Cu3   1.953751 S    
O30   Cu5   1.976246 S    
O10   C6    1.286831 A    
C14   C18   1.398254 A    
O37   C67   1.295549 A    
C28   C48   1.424832 A    
Cu11  Cu12  2.690614 S    
C1    C49   1.424037 S    
O23   Cu8   1.956285 S    
O5    Cu3   1.954251 S    
O47   C71   1.295002 A    
C53   C69   1.424246 S    
O11   C6    1.286381 A    
O6    Cu4   1.954249 S    
C52   C56   1.199365 T    
C3    C51   1.424039 S    
C43   C47   1.414106 A    
C23   C27   1.415348 A    
C34   C38   1.392610 A    
O19   C57   1.287593 A    
C24   C28   1.415347 A    
C33   C37   1.392591 A    
O38   C68   1.295549 A    
C11   C15   1.401254 A    
O30   C62   1.286290 A    
C38   C42   1.388436 A    
O29   C61   1.286297 A    
O39   Cu12  1.956829 S    
O43   C71   1.296003 A    
C26   C46   1.424783 A    
C17   C21   1.393837 A    
C48   C64   1.462836 S    
C74   C80   1.200103 T    
O35   C65   1.295746 A    
C75   C77   1.200104 T    
N4    O56   1.301237 A    
N5    O58   1.301355 A    
O25   Cu5   1.971981 S    
O17   Cu5   1.956783 S    
O40   C68   1.295744 A    
O48   Cu11  1.952732 S    
O27   Cu7   1.971981 S    
N6    O60   1.301354 A    
O29   Cu6   1.976245 S    
N8    O63   1.301438 A    
C55   C71   1.424244 S    
O19   Cu6   1.956285 S    
O12   Cu2   1.973611 S    
O7    C4    1.288055 A    
O42   Cu10  1.956032 S    
C27   C31   1.413086 A    
O47   Cu12  1.952728 S    
O4    Cu2   1.953752 S    
C4    C52   1.424037 S    
O36   C66   1.295748 A    
O13   Cu3   1.974443 S    
O1    C1    1.287940 A    
C47   C63   1.462947 S    
O20   Cu5   1.956287 S    
C12   H8    1.080627 S    
O14   Cu4   1.974443 S    
C46   C62   1.462764 S    
C50   C54   1.199365 T    
O17   C57   1.287612 A    
C26   C30   1.413050 A    
C19   H11   1.082229 S    
C22   C26   1.415341 A    
Cu1   Cu2   2.665992 S    
C9    H5    1.080627 S    
C24   H16   1.079528 S    
N1    O49   1.301707 A    
C27   C47   1.424874 A    
O31   Cu8   1.976245 S    
C44   N8    1.438111 S    
O21   Cu7   1.956783 S    
C11   H7    1.080634 S    
C43   N7    1.437873 S    
O42   C70   1.296007 A    
C45   C61   1.462815 S    
C42   C46   1.414200 A    
H3    C39   1.084554 S    
N7    O61   1.301880 A    
O16   C7    1.286333 A    
C11   C31   1.414769 A    
C32   C36   1.411046 A    
C18   C22   1.393837 A    
C42   N6    1.438172 S    
C17   H9    1.082229 S    
O9    C5    1.286824 A    
C36   C40   1.392587 A    
O2    Cu2   1.954249 S    
O24   Cu7   1.956287 S    
C54   C70   1.424246 S    
O10   Cu2   1.974443 S    
O27   C63   1.290624 A    
O21   C59   1.287608 A    
C58   C74   1.425275 S    
C13   N1    1.439759 S    
C76   C78   1.200105 T    
O35   Cu10  1.956829 S    
O43   Cu11  1.956029 S    
O46   C70   1.294994 A    
N4    O55   1.301714 A    
O8    Cu4   1.953752 S    
O33   Cu9   1.955990 S    
C12   C16   1.401235 A    
N1    O50   1.301231 A    
O41   Cu9   1.956029 S    
C21   C25   1.415346 A    
O2    C2    1.287940 A    
O32   C64   1.286299 A    
O15   Cu3   1.973611 S    
N6    O59   1.301346 A    
C8    C36   1.451447 S    
C19   C23   1.393850 A    
C22   H14   1.079545 S    
C20   C24   1.393838 A    
O45   C69   1.294999 A    
C2    C50   1.424037 S    
O38   Cu12  1.955991 S    
C10   H6    1.080622 S    
C14   N2    1.439760 S    
C40   C44   1.388396 A    
O33   C65   1.295547 A    
C21   H13   1.079533 S    
H4    C40   1.084524 S    
O32   Cu7   1.976246 S    
N8    O64   1.301385 A    
Cu7   Cu8   2.663596 S    
O1    Cu1   1.954251 S    
O40   Cu11  1.956832 S    
O22   Cu8   1.956784 S    
C59   C75   1.425275 S    
O16   Cu4   1.973611 S    
O36   Cu9   1.956832 S    
C18   H10   1.082240 S    
O41   C69   1.296004 A    
C9    C13   1.401237 A    
O45   Cu10  1.952728 S    
C60   C76   1.425275 S    
O48   C72   1.294994 A    
O15   C8    1.286350 A    
C73   C79   1.200103 T    
O44   C72   1.296007 A    
O3    C2    1.288055 A    
C25   C45   1.424823 A    
Cu5   Cu6   2.663596 S    
N2    O51   1.301706 A    
C35   C39   1.392569 A    
O18   Cu6   1.956784 S    
O28   C64   1.290584 A    
C30   C34   1.411078 A    
C15   C19   1.398263 A    
O8    C3    1.288055 A    
O22   C60   1.287613 A    
C57   C73   1.425275 S    
C6    C34   1.451528 S    
C66   C77   1.425501 S    
C31   C35   1.411066 A    
O34   Cu10  1.955991 S    
C56   C72   1.424246 S    
O39   C67   1.295744 A    
C16   N4    1.439764 S    
C25   C29   1.413053 A    
C20   H12   1.082227 S    
O3    Cu1   1.953751 S    
O18   C58   1.287614 A    
C7    C35   1.451338 S    
C41   N5    1.438144 S    
C41   C45   1.414208 A    
O44   Cu12  1.956032 S    
C5    C33   1.451468 S    
Cu3   Cu4   2.665992 S    
C13   C17   1.398250 A    
O31   C63   1.286329 A    
O4    C1    1.288055 A    
C39   C43   1.388260 A    
O34   C66   1.295545 A    
O26   Cu6   1.971981 S    
C16   C20   1.398253 A    
N2    O52   1.301234 A    
C15   N3    1.439796 S    
