data_mof_unit_57220.cif
_audit_creation_date              2012-12-11T15:36:59-0500
_audit_creation_method            fapswitch 2.2
_symmetry_space_group_name_H-M    P1
_symmetry_Int_Tables_number       1
_space_group_crystal_system       triclinic
_cell_length_a                    15.047047
_cell_length_b                    15.064376
_cell_length_c                    34.831545
_cell_angle_alpha                 91.225736
_cell_angle_beta                  91.682767
_cell_angle_gamma                 60.144636
_cell_volume                      6844.41482346

loop_
_atom_site_label
_atom_site_type_symbol
_atom_type_description
_atom_site_fract_x
_atom_site_fract_y
_atom_site_fract_z
_atom_type_partial_charge
C1    C     C_R   0.610730 0.302768 0.443999 0.543406
C2    C     C_R   0.719084 0.052642 0.762144 -0.110421
C3    C     C_R   0.068908 0.778879 0.882213 -0.127054
C4    C     C_R   0.090102 0.769270 0.843335 -0.127324
C5    C     C_R   0.105223 0.681899 0.823000 0.029374
C6    C     C_R   0.104808 0.601441 0.842375 -0.125978
C7    C     C_R   0.082509 0.611397 0.881328 -0.130752
C8    C     C_R   0.197451 0.591583 0.764076 -0.122800
C9    C     C_R   0.209346 0.589044 0.724580 -0.128229
C10   C     C_R   0.140321 0.672180 0.701925 0.023213
C11   C     C_R   0.057061 0.756510 0.718860 -0.119408
C12   C     C_R   0.045633 0.759530 0.758476 -0.121222
C13   C     C_R   0.633952 0.120002 0.783759 0.024559
C14   C     C_R   0.644010 0.753229 0.161533 -0.130277
C15   C     C_R   0.116369 0.677416 0.781271 0.029281
C16   C     C_R   0.187675 0.734927 0.643577 0.023351
C17   C     C_R   0.225661 0.712667 0.606228 -0.115435
C18   C     C_R   0.197218 0.567933 0.602286 -0.135611
C19   C     C_R   0.159049 0.589187 0.639153 -0.139425
C20   C     C_R   0.158093 0.669256 0.660656 0.033707
C21   C     C_R   0.235494 0.626391 0.586278 0.004132
C22   C     C_R   0.678162 0.071694 0.904523 0.004160
C23   C     C_R   0.610480 0.048690 0.883987 -0.139454
C24   C     C_R   0.550422 0.188151 0.639088 -0.119281
C25   C     C_R   0.591843 0.070282 0.844853 -0.139043
C26   C     C_3   0.333741 0.741645 0.204527 -0.283451
C27   C     C_3   0.423888 0.643737 0.188883 -0.437796
C28   C     C_3   0.528613 0.552230 0.720446 -0.277827
C29   C     C_3   0.421187 0.633634 0.707450 -0.437862
C30   C     C_3   0.517772 0.582081 0.806399 -0.272260
C31   C     C_3   0.573438 0.473592 0.822094 -0.451239
C32   C     C_3   0.851062 0.495738 0.842481 -0.271573
C33   C     C_3   0.837966 0.404171 0.831938 -0.443421
C34   C     C_3   0.188339 0.823377 0.664855 -0.282948
C35   C     C_R   0.823304 0.622080 0.160918 -0.129297
C36   C     C_3   0.098592 0.925496 0.651600 -0.438638
C37   C     C_3   0.754155 0.197970 0.828469 -0.280729
C38   C     C_3   0.869931 0.127282 0.826076 -0.442632
C39   C     C_3   0.724894 0.848486 0.233277 -0.270514
C40   C     C_3   0.832713 0.823108 0.222564 -0.422152
C41   C     C_R   0.544869 0.224532 0.602188 -0.126255
C42   C     C_R   0.710497 0.212659 0.612395 -0.130494
C43   C     C_R   0.716386 0.175285 0.649296 -0.125736
C44   C     C_R   0.634594 0.166429 0.663338 0.030412
C45   C     C_R   0.622953 0.240997 0.589006 0.020166
C46   C     C_R   0.045861 0.738938 0.048468 0.539854
C47   C     C_R   0.733474 0.682953 0.181142 0.028911
C48   C     C_R   0.746899 0.746146 0.063852 0.543526
C49   C     C_R   0.751088 0.040552 0.050639 0.541168
C50   C     C_R   0.016294 0.722881 0.939531 0.543593
C51   C     C_R   0.717308 0.730125 0.954823 0.541359
C52   C     C_R   0.826041 0.637753 0.121775 -0.130494
C53   C     C_R   0.721752 0.023999 0.941930 0.541644
C54   C     C_R   0.738080 0.587277 0.238072 -0.140721
C55   C     C_R   0.729874 0.579604 0.277329 -0.076842
C56   C     C_R   0.716979 0.659456 0.302104 0.055882
C57   C     C_R   0.714880 0.746262 0.287367 -0.110865
C58   C     C_R   0.640888 0.114566 0.825833 0.030678
C59   C     C_R   0.724113 0.754759 0.247840 0.025803
C60   C     C_R   0.733304 0.674898 0.222979 0.033167
C61   C     C_R   0.605163 0.732828 0.358201 -0.173291
C62   C     C_R   0.593411 0.610146 0.449403 0.549238
C63   C     C_R   0.574205 0.721448 0.394152 -0.141893
C64   C     C_R   0.730466 0.558136 0.401353 -0.122548
C65   C     C_R   0.762092 0.568857 0.365048 0.247265
C66   C     C_R   0.696790 0.655117 0.342858 0.067081
C67   C     C_R   0.634667 0.632133 0.415336 -0.010963
C68   C     C_R   0.107035 0.726690 0.083893 -0.029680
C69   C     C_R   0.703070 0.145162 0.846891 0.029549
C70   C     C_R   0.165846 0.629374 0.100264 -0.061908
C71   C     C_R   0.201845 0.618321 0.138291 0.241360
C72   C     C_R   0.177412 0.707080 0.160621 0.017759
C73   C     C_R   0.126014 0.803525 0.143252 -0.162921
C74   C     C_R   0.304592 0.591164 0.442136 0.546513
C75   C     C_R   0.091908 0.813277 0.105072 -0.149390
C76   C     C_R   0.258289 0.719594 0.224007 0.014841
C77   C     C_R   0.261872 0.712693 0.264277 -0.056303
C78   C     C_R   0.195205 0.689503 0.283558 0.051713
C79   C     C_R   0.123994 0.673506 0.262274 -0.138865
C80   C     C_R   0.719777 0.124392 0.886214 -0.108487
C81   C     C_R   0.119662 0.679970 0.222409 -0.128300
C82   C     C_R   0.186416 0.702333 0.202935 0.022914
C83   C     C_R   0.215983 0.583487 0.340529 -0.169046
C84   C     C_R   0.240248 0.559963 0.379274 -0.140044
C85   C     C_R   0.236872 0.720993 0.389773 -0.121213
C86   C     C_R   0.605719 0.299844 0.553561 0.542537
C87   C     C_R   0.212118 0.745504 0.350683 0.244964
C88   C     C_R   0.205571 0.674167 0.325638 0.067899
C89   C     C_R   0.254889 0.626613 0.403967 -0.010918
C90   C     C_R   0.723339 0.099744 0.086750 0.021590
C91   C     C_R   0.546233 0.197084 0.765416 -0.126647
C92   C     C_R   0.796776 0.113957 0.107523 -0.128772
C93   C     C_R   0.780833 0.144974 0.145897 -0.124421
C94   C     C_R   0.691015 0.162934 0.163883 0.028297
C95   C     C_R   0.613623 0.158108 0.142103 -0.114421
C96   C     C_R   0.629682 0.126681 0.103818 -0.121052
C97   C     C_R   0.590525 0.246159 0.222738 -0.118537
C98   C     C_R   0.587642 0.606531 0.559030 0.541210
C99   C     C_R   0.581629 0.251487 0.262552 -0.115316
C100  C     C_R   0.664646 0.184488 0.286201 0.027121
C101  C     C_R   0.756802 0.112488 0.269290 -0.117482
C102  C     C_R   0.545249 0.209475 0.725812 -0.118155
C103  C     C_R   0.766056 0.108108 0.229554 -0.116753
C104  C     C_R   0.682901 0.174505 0.205945 0.027141
C105  C     C_R   0.738855 0.190390 0.350497 -0.115725
C106  C     C_R   0.726480 0.217034 0.389259 -0.121839
C107  C     C_R   0.552952 0.246051 0.385295 -0.128468
C108  C     C_R   0.565545 0.218929 0.346478 -0.123800
C109  C     C_R   0.657142 0.195048 0.328398 0.029189
C110  C     C_R   0.297599 0.589324 0.551623 0.544020
C111  C     C_R   0.631884 0.249620 0.406577 0.020436
C112  C     C_R   0.692405 0.689792 0.919568 0.003906
C113  C     C_R   0.632217 0.145096 0.704260 0.032517
C114  C     C_R   0.770446 0.603777 0.900893 -0.118872
C115  C     C_R   0.758210 0.580479 0.862538 0.025858
C116  C     C_R   0.663118 0.642890 0.843157 0.045237
C117  C     C_R   0.583139 0.724356 0.862904 -0.144773
C118  C     C_R   0.597267 0.747250 0.900748 -0.138687
C119  C     C_R   0.587312 0.605256 0.782627 0.038506
C120  C     C_R   0.585841 0.598888 0.741648 0.041563
C121  C     C_R   0.642060 0.633500 0.720450 0.005794
C122  C     C_R   0.738586 0.714136 0.102546 0.021110
C123  C     C_R   0.700711 0.669682 0.739373 -0.149283
C124  C     C_R   0.718611 0.065583 0.722616 -0.116792
C125  C     C_R   0.705968 0.671374 0.779048 -0.144835
C126  C     C_R   0.652182 0.637667 0.800979 0.026567
C127  C     C_R   0.705207 0.545197 0.658309 -0.165484
C128  C     C_R   0.694873 0.538545 0.618650 -0.148607
C129  C     C_R   0.558506 0.715398 0.617507 -0.064274
C130  C     C_R   0.568308 0.723369 0.657270 0.241592
C131  C     C_R   0.639038 0.635184 0.678120 0.020281
C132  C     C_R   0.618066 0.622110 0.598149 -0.028598
C133  C     C_R   0.061168 0.701704 0.901243 0.022660
C134  C     C_R   0.646554 0.769137 0.122468 -0.127021
Cr1   Cr    Cr6+3 0.426010 0.422500 0.497000 1.011866
Cr2   Cr    Cr6+3 0.651300 0.426310 0.501970 1.011366
Cr3   Cr    Cr6+3 0.422670 0.651170 0.501050 1.012118
Cr4   Cr    Cr6+3 0.905130 0.911420 0.992650 1.009108
Cr5   Cr    Cr6+3 0.911860 0.682710 0.002320 1.012074
Cr6   Cr    Cr6+3 0.682710 0.906840 0.004710 1.012199
H1    H     H_    0.577738 0.827684 0.108303 0.128681
H2    H     H_    0.064245 0.666806 0.206510 0.125618
H3    H     H_    0.697271 0.909639 0.255672 0.139736
H4    H     H_    0.211012 0.527895 0.321689 0.116818
H5    H     H_    0.253758 0.486607 0.389292 0.139654
H6    H     H_    0.105693 0.872056 0.160101 0.115633
H7    H     H_    0.246613 0.773726 0.408666 0.110988
H8    H     H_    0.869593 0.094005 0.095084 0.123731
H9    H     H_    0.571481 0.117011 0.088381 0.125270
H10   H     H_    0.502169 0.220799 0.330228 0.103899
H11   H     H_    0.510467 0.309473 0.274846 0.106320
H12   H     H_    0.525605 0.298512 0.205071 0.113928
H13   H     H_    0.500297 0.779938 0.404328 0.140681
H14   H     H_    0.840813 0.149961 0.162067 0.106615
H15   H     H_    0.821637 0.059272 0.286775 0.114335
H16   H     H_    0.837636 0.051126 0.217217 0.103749
H17   H     H_    0.810200 0.172732 0.337346 0.113844
H18   H     H_    0.788943 0.218506 0.404964 0.130735
H19   H     H_    0.543790 0.171367 0.155367 0.112388
H20   H     H_    0.479341 0.270242 0.397925 0.126038
H21   H     H_    0.844253 0.559137 0.915251 0.123839
H22   H     H_    0.535980 0.814503 0.914248 0.129708
H23   H     H_    0.729786 0.512846 0.288251 0.142789
H24   H     H_    0.892378 0.566277 0.175825 0.118001
H25   H     H_    0.742902 0.696723 0.723196 0.127193
H26   H     H_    0.752271 0.699966 0.792948 0.118568
H27   H     H_    0.760974 0.478083 0.673925 0.115084
H28   H     H_    0.742269 0.465681 0.604544 0.138880
H29   H     H_    0.511621 0.775018 0.848069 0.104477
H30   H     H_    0.499726 0.781149 0.602099 0.152718
H31   H     H_    0.053426 0.849177 0.896829 0.126351
H32   H     H_    0.745032 0.526069 0.219219 0.113499
H33   H     H_    0.076728 0.550926 0.895253 0.123075
H34   H     H_    0.135759 0.539120 0.651883 0.113404
H35   H     H_    0.778660 0.489717 0.417809 0.113335
H36   H     H_    0.273541 0.522988 0.711693 0.102503
H37   H     H_    0.252576 0.527734 0.781288 0.100835
H38   H     H_    0.091906 0.831284 0.828849 0.101739
H39   H     H_    0.002087 0.820065 0.701550 0.106734
H40   H     H_    0.981512 0.825636 0.771365 0.098028
H41   H     H_    0.253933 0.759040 0.593834 0.130200
H42   H     H_    0.116519 0.533354 0.826959 0.102409
H43   H     H_    0.573448 0.798606 0.176846 0.103335
H44   H     H_    0.202485 0.501793 0.587298 0.133523
H45   H     H_    0.577967 0.007416 0.897415 0.131094
H46   H     H_    0.179262 0.561628 0.084151 0.151493
H47   H     H_    0.770285 0.144512 0.902160 0.124903
H48   H     H_    0.781942 0.159269 0.667666 0.100396
H49   H     H_    0.478276 0.272163 0.712267 0.100252
H50   H     H_    0.480394 0.249820 0.781925 0.103040
H51   H     H_    0.543942 0.046893 0.828882 0.115482
H52   H     H_    0.786083 0.014789 0.706483 0.098921
H53   H     H_    0.786862 0.992055 0.776106 0.104069
H54   H     H_    0.487169 0.180579 0.649243 0.113523
H55   H     H_    0.705779 0.807277 0.306794 0.104437
H56   H     H_    0.476682 0.244850 0.584779 0.128450
H57   H     H_    0.046033 0.889337 0.093305 0.136320
H58   H     H_    0.771788 0.224507 0.603037 0.123865
H59   H     H_    0.554384 0.799493 0.341296 0.113763
H60   H     H_    0.203603 0.878066 0.357521 0.316010
H61   H     H_    0.463080 0.587821 0.212395 0.150966
H62   H     H_    0.397493 0.608748 0.166218 0.170785
H63   H     H_    0.479822 0.661855 0.176205 0.143786
H64   H     H_    0.295278 0.797308 0.180942 0.148627
H65   H     H_    0.364357 0.777560 0.225225 0.139168
H66   H     H_    0.286024 0.521944 0.178265 0.326221
H67   H     H_    0.890460 0.439855 0.369347 0.316721
H68   H     H_    0.319139 0.722048 0.280605 0.139812
H69   H     H_    0.518074 0.813051 0.702352 0.332613
H70   H     H_    0.373853 0.676351 0.732364 0.147319
H71   H     H_    0.424770 0.688542 0.687859 0.182726
H72   H     H_    0.383420 0.596273 0.691630 0.145449
H73   H     H_    0.571610 0.507873 0.694980 0.150812
H74   H     H_    0.523486 0.494903 0.738269 0.139212
H75   H     H_    0.614730 0.417440 0.798890 0.139367
H76   H     H_    0.628131 0.467046 0.845379 0.159442
H77   H     H_    0.517111 0.455383 0.834333 0.141125
H78   H     H_    0.485161 0.636874 0.830611 0.142823
H79   H     H_    0.072111 0.655291 0.276538 0.116908
H80   H     H_    0.449419 0.593306 0.789585 0.142403
H81   H     H_    0.815844 0.377481 0.857525 0.146819
H82   H     H_    0.779678 0.424105 0.808588 0.163416
H83   H     H_    0.911643 0.340532 0.821431 0.131510
H84   H     H_    0.867931 0.525009 0.816368 0.146644
H85   H     H_    0.920700 0.467537 0.861305 0.128424
H86   H     H_    0.104371 0.936757 0.620554 0.153584
H87   H     H_    0.024669 0.928318 0.656541 0.146746
H88   H     H_    0.099722 0.988941 0.668013 0.138665
H89   H     H_    0.185551 0.817413 0.696399 0.153215
H90   H     H_    0.897965 0.594085 0.107145 0.135896
H91   H     H_    0.261107 0.822654 0.659391 0.154499
H92   H     H_    0.905442 0.105599 0.855241 0.146754
H93   H     H_    0.887628 0.056839 0.809510 0.148226
H94   H     H_    0.904212 0.167379 0.811365 0.132497
H95   H     H_    0.722681 0.225388 0.799179 0.153100
H96   H     H_    0.738571 0.266708 0.845814 0.130278
H97   H     H_    0.884745 0.795648 0.248194 0.154530
H98   H     H_    0.863520 0.763658 0.199715 0.161109
H99   H     H_    0.830680 0.892702 0.211660 0.142807
H100  H     H_    0.671793 0.881533 0.208225 0.150299
O1    O     O_R   0.324990 0.503440 0.453910 -0.517221
O2    O     O_R   0.675430 0.831160 0.051290 -0.517923
O3    O     O_R   0.698870 0.998880 0.039560 -0.500464
O4    O     O_R   0.522030 0.339050 0.458320 -0.502612
O5    O     O_R   0.811290 0.006780 0.950620 -0.519738
O6    O     O_R   0.980960 0.812920 0.953200 -0.502683
O7    O     O_R   0.001480 0.656720 0.955830 -0.520817
O8    O     O_R   0.809240 0.683250 0.968050 -0.503128
O9    O     O_R   0.652500 0.818540 0.967340 -0.519310
O10   O     O_R   0.677620 0.987170 0.961730 -0.500105
O11   O     O_3   0.833240 0.833660 0.999890 -0.235011
O12   O     O_R   0.639980 0.519500 0.542640 -0.498649
O13   O     O_R   0.676180 0.324490 0.458320 -0.519311
O14   O     O_R   0.643570 0.521510 0.464260 -0.501529
O15   O     O_R   0.504630 0.675350 0.460920 -0.516718
O16   O     O_R   0.339850 0.642450 0.459830 -0.501212
O17   O     O_R   0.321120 0.501280 0.538470 -0.518688
O18   O     O_R   0.518440 0.337050 0.536710 -0.502368
O19   O     O_R   0.672300 0.322330 0.542880 -0.520508
O20   O     O_3   0.195887 0.837292 0.336306 -0.718691
O21   O     O_3   0.255271 0.520425 0.152919 -0.718613
O22   O     O_3   0.854452 0.495238 0.350276 -0.709318
O23   O     O_R   0.500750 0.673190 0.545480 -0.521053
O24   O     O_3   0.503399 0.816417 0.674408 -0.724029
O25   O     O_R   0.336260 0.640450 0.538210 -0.503282
O26   O     O_3   0.499990 0.499990 0.500010 -0.235370
O27   O     O_R   0.834210 0.019400 0.034570 -0.522133
O28   O     O_R   0.002210 0.824620 0.031030 -0.498055
O29   O     O_R   0.024400 0.669340 0.039790 -0.518858
O30   O     O_R   0.830490 0.694950 0.045870 -0.501275

loop_
_geom_bond_atom_site_label_1
_geom_bond_atom_site_label_2
_ccdc_geom_bond_type
C71   O21   S    
C98   O12   A    
C55   C56   A    
C51   C112  S    
C37   C69   S    
C92   H8    S    
C27   H62   S    
C6    C7    A    
C95   C96   A    
C49   C90   S    
C87   C88   A    
Cr5   O7    S    
C61   H59   S    
C38   H93   S    
C112  C114  A    
C14   H43   S    
C29   H70   S    
C68   C70   A    
C54   C60   A    
C84   H5    S    
C108  C109  A    
C68   C75   A    
C84   C89   A    
Cr5   O29   S    
C26   C27   S    
C40   H97   S    
C51   O8    A    
C62   C67   S    
C6    H42   S    
C35   C52   A    
C27   H63   S    
C5    C6    A    
C74   C89   S    
Cr2   O14   S    
C28   C29   S    
C7    C133  A    
C41   H56   S    
C34   H89   S    
C48   C122  S    
C83   H4    S    
C79   H79   S    
C56   C66   S    
C123  C125  A    
C31   H75   S    
Cr4   O27   S    
C101  H15   S    
C115  C116  A    
C18   C21   A    
C128  C132  A    
C102  H49   S    
C116  C117  A    
C9    H36   S    
Cr2   O26   S    
C18   C19   A    
C61   C63   A    
C2    C13   A    
C122  C134  A    
C86   O18   A    
C40   H98   S    
C16   C34   S    
C47   C60   S    
C74   O1    A    
C52   C122  A    
C8    H37   S    
C97   H12   S    
C105  H17   S    
C65   O22   S    
C42   C43   A    
C10   C20   S    
C8    C9    A    
Cr1   O26   S    
C26   C76   S    
C107  C108  A    
C127  C128  A    
H60   O20   S    
C70   C71   A    
C18   H44   S    
C37   H96   S    
C17   C21   A    
C9    C10   A    
Cr6   O2    S    
C4    H38   S    
C30   H78   S    
C129  C132  A    
C33   H82   S    
C2    H53   S    
C75   H57   S    
C83   C88   A    
C94   C104  S    
C100  C109  S    
C36   H88   S    
C127  H27   S    
C116  C126  S    
C13   C91   A    
C24   C41   A    
C73   C75   A    
Cr6   O11   S    
Cr3   O25   S    
C121  C131  S    
C74   O16   A    
Cr5   O8    S    
C61   C66   A    
C39   H100  S    
C49   O3    A    
C1    O13   A    
C29   H71   S    
C22   C53   S    
C127  C131  A    
C106  C111  A    
C85   C87   A    
C28   H74   S    
C62   O15   A    
C91   H50   S    
C63   C67   A    
Cr1   O17   S    
C121  C123  A    
C49   O27   A    
Cr3   O16   S    
C64   C67   A    
C54   H32   S    
C129  H30   S    
C42   H58   S    
Cr6   O10   S    
C76   C77   A    
C63   H13   S    
C110  O17   A    
C48   O2    A    
Cr4   O11   S    
C28   C120  S    
C77   H68   S    
C76   C82   A    
C39   C40   S    
C79   C81   A    
C85   C89   A    
C78   C79   A    
C72   C73   A    
C114  H21   S    
C38   H92   S    
C13   C58   S    
C14   C134  A    
C77   C78   A    
C99   H11   S    
C81   C82   A    
C32   C33   S    
C3    C133  A    
C42   C45   A    
Cr1   O4    S    
C21   C110  S    
C26   H64   S    
C43   C44   A    
C46   C68   S    
C37   C38   S    
Cr4   O6    S    
C1    O4    A    
C117  H29   S    
Cr3   O26   S    
Cr2   O13   S    
C90   C92   A    
C83   C84   A    
C12   C15   A    
C24   H54   S    
C16   C20   A    
C39   C59   S    
Cr2   O19   S    
C93   C94   A    
C64   H35   S    
C90   C96   A    
C34   H91   S    
Cr3   O15   S    
C52   H90   S    
C108  H10   S    
C33   H83   S    
C46   O28   A    
C81   H2    S    
C12   H40   S    
C57   H55   S    
C44   C113  S    
C46   O29   A    
C25   H51   S    
C125  C126  A    
C24   C44   A    
C95   H19   S    
C26   H65   S    
C11   H39   S    
C25   C58   A    
C98   O23   A    
C91   C102  A    
C98   C132  S    
C50   O7    A    
C16   C17   A    
Cr3   O23   S    
Cr5   O30   S    
C124  H52   S    
C120  C121  A    
H66   O21   S    
C29   H72   S    
C23   H45   S    
C129  C130  A    
C78   C88   S    
C28   H73   S    
C56   C57   A    
H67   O22   S    
C105  C109  A    
C54   C55   A    
C118  H22   S    
Cr1   O18   S    
C36   H86   S    
C27   H61   S    
C30   H80   S    
C107  C111  A    
C8    C15   A    
Cr5   O11   S    
Cr6   O9    S    
C85   H7    S    
C37   H95   S    
C39   H3    S    
C4    C5    A    
C50   C133  S    
C93   H14   S    
C87   O20   S    
C38   H94   S    
C119  C120  A    
C58   C69   A    
C114  C115  A    
C14   C47   A    
C31   H76   S    
C2    C124  A    
C40   H99   S    
C105  C106  A    
C35   H24   S    
C99   C100  A    
C73   H6    S    
Cr6   O3    S    
C97   C99   A    
C64   C65   A    
Cr1   O1    S    
C19   C20   A    
C45   C86   S    
C19   H34   S    
C55   H23   S    
C71   C72   A    
C102  C113  A    
C106  H18   S    
C117  C118  A    
C1    C111  S    
C134  H1    S    
C112  C118  A    
H69   O24   S    
C3    H31   S    
C30   C31   S    
C113  C124  A    
Cr4   O28   S    
C43   H48   S    
C32   H84   S    
C72   C82   S    
C96   H9    S    
C7    H33   S    
C92   C93   A    
C80   H47   S    
C125  H26   S    
C36   H87   S    
C34   C36   S    
C53   O10   A    
C23   C25   A    
C32   C115  S    
C94   C95   A    
C51   O9    A    
C53   O5    A    
C86   O19   A    
C5    C15   S    
C97   C104  A    
C57   C59   A    
C10   C11   A    
C70   H46   S    
C22   C80   A    
C123  H25   S    
C119  C126  A    
C17   H41   S    
C103  H16   S    
C59   C60   A    
Cr4   O5    S    
C32   H85   S    
C62   O14   A    
C101  C103  A    
C65   C66   A    
C30   C119  S    
C130  C131  A    
C103  C104  A    
C128  H28   S    
C107  H20   S    
C41   C45   A    
C22   C23   A    
Cr2   O12   S    
C69   C80   A    
C100  C101  A    
C35   C47   A    
C50   O6    A    
C48   O30   A    
C110  O25   A    
C130  O24   S    
C3    C4    A    
C11   C12   A    
C31   H77   S    
C33   H81   S    
