data_mof_unit_25990.cif
_audit_creation_date              2012-12-11T14:21:21-0500
_audit_creation_method            fapswitch 2.2
_symmetry_space_group_name_H-M    P1
_symmetry_Int_Tables_number       1
_space_group_crystal_system       triclinic
_cell_length_a                    11.54114
_cell_length_b                    11.483789
_cell_length_c                    19.502458
_cell_angle_alpha                 90.627454
_cell_angle_beta                  90.145618
_cell_angle_gamma                 59.958901
_cell_volume                      2237.40878929

loop_
_atom_site_label
_atom_site_type_symbol
_atom_type_description
_atom_site_fract_x
_atom_site_fract_y
_atom_site_fract_z
_atom_type_partial_charge
C1    C     C_R   0.640630 0.117979 0.599079 0.543415
C2    C     C_1   0.652852 0.150561 0.668501 0.002417
C3    C     C_R   0.659856 0.676939 0.191968 -0.009793
C4    C     C_R   0.613761 0.743372 0.597893 0.539215
C5    C     C_R   0.534988 0.720966 0.223467 0.027312
C6    C     C_R   0.534508 0.693294 0.292950 0.035616
C7    C     C_R   0.764054 0.648803 0.302908 -0.147278
C8    C     C_R   0.774031 0.639734 0.232319 -0.140005
C9    C     C_R   0.414567 0.773857 0.185640 -0.075832
C10   C     C_R   0.302642 0.775612 0.213242 -0.126996
C11   C     C_R   0.307685 0.730076 0.279393 -0.153954
C12   C     C_1   0.651542 0.683223 0.664020 0.002786
C13   C     C_R   0.423204 0.686109 0.318476 -0.095171
C14   C     C_R   0.644213 0.677495 0.334102 -0.002761
C15   C     C_R   0.172262 0.180561 0.184364 -0.008280
C16   C     C_R   0.298334 0.120102 0.605437 0.562170
C17   C     C_R   0.246186 0.239587 0.208331 0.026414
C18   C     C_R   0.278323 0.231024 0.278795 0.025998
C19   C     C_R   0.203584 0.067248 0.292451 -0.139585
C20   C     C_R   0.153781 0.093093 0.226320 -0.153230
C21   C     C_R   0.279473 0.316046 0.164499 -0.090226
C22   C     C_R   0.310722 0.408876 0.191480 -0.118208
C23   C     C_1   0.146893 0.188040 0.863260 0.000873
C24   C     C_R   0.321875 0.416780 0.261719 -0.144997
C25   C     C_R   0.317131 0.322803 0.304169 -0.100414
C26   C     C_R   0.263019 0.137037 0.320588 0.000364
C27   C     C_R   0.673241 0.185863 0.194513 0.002107
C28   C     C_R   0.648725 0.112131 0.403081 0.538063
C29   C     C_R   0.740095 0.052834 0.219100 0.026878
C30   C     C_R   0.766109 0.033120 0.289585 0.039297
C31   C     C_R   0.615534 0.272024 0.310930 -0.163957
C32   C     C_R   0.617632 0.294429 0.241166 -0.138947
C33   C     C_R   0.796454 0.939959 0.174231 -0.081190
C34   C     C_1   0.227749 0.144872 0.735686 -0.030534
C35   C     C_R   0.900840 0.817118 0.195913 -0.122494
C36   C     C_R   0.943195 0.802252 0.263550 -0.148223
C37   C     C_R   0.876167 0.908084 0.310316 -0.084948
C38   C     C_R   0.683485 0.141177 0.335490 0.001095
C39   C     C_R   0.084638 0.229421 0.929344 0.535607
C40   C     C_R   0.617018 0.735087 0.403093 0.537010
C41   C     C_R   0.708903 0.546278 0.922609 0.558987
C42   C     C_R   0.708037 0.206151 0.930299 0.536314
C43   C     C_R   0.088799 0.232469 0.123222 0.537091
C44   C     C_R   0.681234 0.616208 0.124271 0.541172
C45   C     C_1   0.188083 0.163946 0.805154 -0.028897
C46   C     C_R   0.706683 0.210289 0.126243 0.534043
C47   C     C_R   0.301872 0.116019 0.393516 0.558262
C48   C     C_1   0.698633 0.581041 0.851733 0.001498
C49   C     C_1   0.672930 0.644555 0.722244 -0.028666
C50   C     C_1   0.689034 0.608662 0.791872 -0.031503
C51   C     C_1   0.259017 0.132910 0.676033 0.000419
C52   C     C_1   0.678276 0.190663 0.860931 0.001778
C53   C     C_1   0.658216 0.167853 0.729009 -0.032191
C54   C     C_1   0.665265 0.180807 0.800392 -0.032292
Cr1   Cr    Cr6+3 0.404720 0.198220 0.499960 1.006804
Cr2   Cr    Cr6+3 0.698290 0.897110 0.500380 1.018293
Cr3   Cr    Cr6+3 0.396970 0.904720 0.499610 1.022605
Cr4   Cr    Cr6+3 0.926180 0.151990 0.028120 1.017084
Cr5   Cr    Cr6+3 0.921330 0.451820 0.027470 1.014246
Cr6   Cr    Cr6+3 0.626260 0.446870 0.028710 1.013063
H1    H     H_    0.849851 0.632050 0.333142 0.135608
H2    H     H_    0.409147 0.807644 0.133471 0.126631
H3    H     H_    0.872532 0.597758 0.209625 0.149207
H4    H     H_    0.212964 0.809774 0.182868 0.115496
H5    H     H_    0.222036 0.728647 0.300668 0.102819
H6    H     H_    0.424990 0.644035 0.368075 0.132989
H7    H     H_    0.185843 0.999963 0.323346 0.150643
H8    H     H_    0.276072 0.308752 0.109255 0.131903
H9    H     H_    0.094200 0.049561 0.209277 0.145199
H10   H     H_    0.918494 0.892221 0.361067 0.143515
H11   H     H_    0.327212 0.473889 0.158048 0.123116
H12   H     H_    0.346953 0.487824 0.283292 0.110040
H13   H     H_    0.342532 0.329163 0.356230 0.169657
H14   H     H_    0.560549 0.356434 0.345677 0.110468
H15   H     H_    0.766455 0.948833 0.121001 0.125779
H16   H     H_    0.574574 0.397069 0.223624 0.148506
H17   H     H_    0.950680 0.734253 0.159803 0.114846
H18   H     H_    0.026636 0.707587 0.280104 0.106637
O1    O     O_R   0.267740 0.231960 0.575440 -0.492160
O2    O     O_R   0.596130 0.579390 0.952730 -0.504389
O3    O     O_R   0.639060 0.321160 0.958670 -0.510928
O4    O     O_R   0.527280 0.186640 0.570530 -0.510364
O5    O     O_R   0.821240 0.124200 0.104370 -0.518766
O6    O     O_R   0.036890 0.167040 0.097840 -0.501498
O7    O     O_R   0.056180 0.349610 0.102880 -0.524318
O8    O     O_R   0.797660 0.564870 0.097950 -0.501051
O9    O     O_R   0.595880 0.584250 0.104270 -0.517312
O10   O     O_R   0.638830 0.325670 0.099150 -0.502377
O11   O     O_3   0.824590 0.350230 0.028100 -0.262394
O12   O     O_R   0.685970 0.784660 0.430010 -0.494571
O13   O     O_R   0.728090 0.003450 0.576380 -0.499855
O14   O     O_R   0.682970 0.789190 0.570490 -0.492140
O15   O     O_R   0.499290 0.771880 0.575530 -0.513413
O16   O     O_R   0.285330 0.030870 0.569730 -0.479554
O17   O     O_R   0.270980 0.227080 0.423890 -0.524960
O18   O     O_R   0.530280 0.182120 0.430050 -0.529927
O19   O     O_R   0.731330 0.998570 0.424830 -0.525155
O20   O     O_R   0.502530 0.767000 0.423990 -0.535275
O21   O     O_R   0.288330 0.026350 0.429250 -0.487977
O22   O     O_3   0.499990 0.000020 0.499980 -0.284494
O23   O     O_R   0.821500 0.119340 0.952830 -0.505488
O24   O     O_R   0.037130 0.162530 0.957360 -0.495498
O25   O     O_R   0.056440 0.344740 0.951340 -0.515907
O26   O     O_R   0.797900 0.560360 0.957470 -0.491009

loop_
_geom_bond_atom_site_label_1
_geom_bond_atom_site_label_2
_ccdc_geom_bond_type
C28   O19   A    
C23   C45   T    
C27   C29   A    
C19   C20   A    
C18   C26   A    
C16   C51   S    
C41   O2    A    
C12   C49   T    
Cr6   O10   S    
C7    C8    A    
C53   C54   S    
C42   O3    A    
C34   C51   T    
Cr5   O26   S    
C36   C37   A    
C40   O20   A    
C5    C6    A    
Cr3   O21   S    
C29   C33   A    
C47   O21   A    
C30   C38   A    
C1    C2    S    
Cr5   O11   S    
C19   C26   A    
C7    H1    S    
C33   H15   S    
Cr2   O13   S    
C35   C36   A    
Cr1   O22   S    
C19   H7    S    
Cr4   O24   S    
C4    C12   S    
C44   O9    A    
C9    C10   A    
Cr2   O12   S    
C1    O13   A    
Cr3   O15   S    
C21   C22   A    
C43   O6    A    
C18   C25   A    
Cr2   O19   S    
C44   O8    A    
Cr6   O9    S    
C52   C54   T    
C46   O10   A    
C13   H6    S    
C7    C14   A    
C15   C20   A    
C3    C44   S    
C9    H2    S    
C43   O7    A    
C24   C25   A    
Cr1   O17   S    
C3    C8    A    
Cr4   O23   S    
C31   H14   S    
C1    O4    A    
Cr6   O11   S    
Cr3   O22   S    
C35   H17   S    
C17   C21   A    
C46   O5    A    
C30   C37   A    
Cr5   O7    S    
C5    C9    A    
C29   C30   A    
Cr4   O6    S    
C6    C14   A    
Cr1   O1    S    
Cr6   O3    S    
C31   C32   A    
C28   C38   S    
C17   C18   A    
C34   C45   S    
Cr1   O4    S    
C26   C47   S    
C27   C46   S    
Cr3   O16   S    
C21   H8    S    
C22   C24   A    
C20   H9    S    
Cr2   O22   S    
C42   O23   A    
C22   H11   S    
C24   H12   S    
C39   O24   A    
C15   C17   A    
Cr6   O2    S    
C27   C32   A    
C10   H4    S    
Cr1   O18   S    
C3    C5    A    
C2    C53   T    
C32   H16   S    
C31   C38   A    
C39   O25   A    
C16   O16   A    
C41   O26   A    
C28   O18   A    
C16   O1    A    
Cr5   O25   S    
Cr5   O8    S    
C15   C43   S    
C36   H18   S    
Cr4   O5    S    
C6    C13   A    
C11   C13   A    
C23   C39   S    
Cr3   O20   S    
C48   C50   T    
C33   C35   A    
C41   C48   S    
C25   H13   S    
Cr4   O11   S    
C10   C11   A    
C8    H3    S    
C14   C40   S    
C4    O15   A    
Cr2   O14   S    
C49   C50   S    
C47   O17   A    
C40   O12   A    
C37   H10   S    
C11   H5    S    
C42   C52   S    
C4    O14   A    
