data_mof_unit_9986.cif
_audit_creation_date              2013-03-05T16:34:13-0500
_audit_creation_method            fapswitch 2.2
_symmetry_space_group_name_H-M    P1
_symmetry_Int_Tables_number       1
_space_group_crystal_system       triclinic
_cell_length_a                    10.809715
_cell_length_b                    10.800393
_cell_length_c                    9.534707
_cell_angle_alpha                 90.126244
_cell_angle_beta                  90.170469
_cell_angle_gamma                 90.2606
_cell_volume                      1113.14995397

loop_
_atom_site_label
_atom_site_type_symbol
_atom_site_description
_atom_site_fract_x
_atom_site_fract_y
_atom_site_fract_z
_atom_type_partial_charge
O1    O     O_R   0.500000 0.319640 0.618810 -0.571580
O2    O     O_R   0.500010 0.319680 0.381230 -0.599086
C1    C     C_R   0.498215 0.262404 0.499686 0.840370
O3    O     O_R   0.319640 0.499990 0.618790 -0.547978
O4    O     O_R   0.319650 0.500030 0.381210 -0.572432
C2    C     C_R   0.262371 0.500166 0.499757 0.858551
Cu1   Cu    Cu3+1 0.499990 0.499980 0.640670 0.972635
Cu2   Cu    Cu3+1 0.500010 0.500020 0.359330 0.951864
O5    O     O_R   0.499990 0.680320 0.618770 -0.587498
O6    O     O_R   0.500000 0.680360 0.381190 -0.579351
O7    O     O_R   0.680350 0.499970 0.618790 -0.583202
O8    O     O_R   0.680360 0.500010 0.381210 -0.590907
C3    C     C_R   0.500186 0.737579 0.499911 0.799390
C4    C     C_R   0.737502 0.497269 0.500302 0.810927
H1    H     H_    0.295889 0.878037 0.049250 0.126607
C5    C     C_R   0.238867 0.847380 0.262322 -0.105353
H2    H     H_    0.279371 0.932812 0.300689 0.150126
C6    C     C_R   0.178089 0.767727 0.355008 -0.150312
H3    H     H_    0.173140 0.791669 0.465253 0.119518
C7    C     C_R   0.124054 0.657582 0.305239 0.131028
C8    C     C_R   0.131632 0.627913 0.162036 -0.104119
H4    H     H_    0.090801 0.542946 0.122340 0.139629
C9    C     C_R   0.194237 0.706961 0.070063 -0.139103
H5    H     H_    0.201332 0.683191 0.960002 0.141350
C10   C     C_R   0.247751 0.816638 0.120250 -0.120328
C11   C     C_R   0.933807 0.568083 0.404603 -0.238107
H6    H     H_    0.882521 0.626315 0.332596 0.152323
C12   C     C_R   0.871192 0.493781 0.500995 -0.124842
C13   C     C_R   0.936395 0.418863 0.596757 -0.127814
C14   C     C_R   0.065772 0.420426 0.594727 0.318300
C15   C     C_R   0.128227 0.498105 0.499391 -0.195356
C16   C     C_R   0.061936 0.572008 0.403637 -0.043104
C17   C     C_R   0.864840 0.353304 0.835042 -0.053347
H7    H     H_    0.905329 0.436597 0.879335 0.120247
C18   C     C_R   0.807419 0.267702 0.923563 -0.124216
H8    H     H_    0.802339 0.285749 0.035134 0.127415
C19   C     C_R   0.757928 0.158175 0.868266 -0.130549
H9    H     H_    0.714575 0.091356 0.937115 0.118555
C20   C     C_R   0.763971 0.135038 0.724035 -0.136955
H10   H     H_    0.725248 0.050311 0.681290 0.137817
C21   C     C_R   0.819788 0.221287 0.634930 -0.122165
H11   H     H_    0.824268 0.202346 0.523440 0.115063
C22   C     C_R   0.871420 0.330539 0.690199 0.163446
C23   C     C_R   0.428347 0.062890 0.599797 0.213570
C24   C     C_R   0.490884 0.129227 0.496138 -0.099730
C25   C     C_R   0.539187 0.064646 0.380566 -0.255915
H12   H     H_    0.581560 0.113348 0.293706 0.163478
C26   C     C_R   0.540797 0.935707 0.381030 -0.230953
H13   H     H_    0.583408 0.887553 0.294088 0.158595
C27   C     C_R   0.494378 0.870672 0.497164 -0.099204
C28   C     C_R   0.431321 0.935825 0.600764 0.097197
C29   C     C_3   0.435256 0.929652 0.756933 -0.501929
C30   C     C_3   0.429334 0.070478 0.756269 -0.464045
H14   H     H_    0.350906 0.885077 0.800441 0.199878
H15   H     H_    0.524508 0.893531 0.797531 0.197343
H16   H     H_    0.340790 0.106424 0.798623 0.240622
H17   H     H_    0.513303 0.116049 0.799128 0.194963
C31   C     C_R   0.547483 0.598418 0.074018 0.279826
N1    N     N_R   0.500790 0.500930 0.147930 -0.190570
C32   C     C_R   0.441911 0.409085 0.074023 -0.078816
H18   H     H_    0.396673 0.334350 0.129397 0.152089
C33   C     C_R   0.442182 0.408929 0.925118 -0.034265
H19   H     H_    0.397339 0.334065 0.869098 0.181933
N2    N     N_R   0.500790 0.500890 0.852020 -0.194748
C34   C     C_R   0.546623 0.598904 0.926604 0.248206
C35   C     C_3   0.675371 0.648447 0.920385 -0.501330
C36   C     C_3   0.677147 0.645987 0.079554 -0.519380
H20   H     H_    0.741171 0.582699 0.872070 0.216220
H21   H     H_    0.679028 0.743655 0.876724 0.186292
H22   H     H_    0.743161 0.577109 0.122611 0.212816
H23   H     H_    0.683282 0.739714 0.127327 0.186331
N3    N     N_R   0.133550 0.335560 0.681025 0.118881
O9    O     O_R   0.141199 0.353133 0.815798 -0.411035
O10   O     O_R   0.194125 0.245089 0.623391 -0.413778

loop_
_geom_bond_atom_site_label_1
_geom_bond_atom_site_label_2
_geom_bond_distance
_ccdc_geom_bond_type
C35   H20   1.107926 S    
C11   C16   1.385551 A    
C21   H11   1.083359 S    
C18   H8    1.082684 S    
Cu1   Cu2   2.682495 S    
C20   C21   1.398208 A    
C24   C25   1.405975 A    
C23   C24   1.396369 A    
Cu1   O7    1.961388 S    
C11   H6    1.084934 S    
C33   H19   1.080290 S    
C12   C13   1.410599 A    
C18   C19   1.397616 A    
C19   H9    1.082682 S    
Cu2   N1    2.015726 S    
C14   C15   1.409903 A    
O7    C4    1.289585 A    
H1    C10   1.081549 S    
C35   H21   1.110781 S    
C32   C33   1.419771 A    
C6    H3    1.083467 S    
O5    C3    1.292236 A    
C33   N2    1.368779 A    
C23   C30   1.493983 S    
C5    H2    1.082034 S    
C9    H5    1.082819 S    
C36   H23   1.110758 S    
C29   H15   1.111184 S    
C26   C27   1.405267 A    
C35   C36   1.517982 S    
N1    C32   1.369000 A    
C8    H4    1.083511 S    
C13   C22   1.482717 S    
C21   C22   1.403938 A    
O3    Cu1   1.960045 S    
C29   H14   1.111024 S    
C17   H7    1.082968 S    
C25   C26   1.392804 A    
C28   C29   1.491150 S    
C17   C22   1.404288 A    
N3    O10   1.300417 A    
C20   H10   1.082851 S    
C30   H17   1.107226 S    
C31   N1    1.364031 A    
C1    C24   1.440503 S    
C32   H18   1.081314 S    
O1    C1    1.291994 A    
C13   C14   1.398750 A    
C31   C34   1.405580 A    
C15   C16   1.410193 A    
Cu2   O8    1.960046 S    
C27   C28   1.393138 A    
C23   C28   1.372922 A    
O3    C2    1.291190 A    
C26   H13   1.082765 S    
O8    C4    1.291482 A    
C8    C9    1.399092 A    
C29   C30   1.522641 S    
C7    C16   1.478934 S    
C30   H16   1.111259 S    
C5    C10   1.397691 A    
Cu1   O5    1.959360 S    
C25   H12   1.083670 S    
O1    Cu1   1.958407 S    
Cu2   O6    1.958407 S    
O2    Cu2   1.959362 S    
N3    O9    1.300878 A    
O6    C3    1.288470 A    
O4    Cu2   1.961387 S    
C14   N3    1.435200 S    
C11   C12   1.396000 A    
C36   H22   1.111571 S    
N2    C34   1.364400 A    
O2    C1    1.289105 A    
C19   C20   1.398956 A    
O4    C2    1.290409 A    
C17   C18   1.397768 A    
C2    C15   1.450117 S    
C6    C7    1.403951 A    
C9    C10   1.398704 A    
Cu1   N2    2.015156 S    
C3    C27   1.439410 S    
C31   C36   1.491372 S    
C7    C8    1.404520 A    
C5    C6    1.397983 A    
C34   C35   1.490174 S    
C4    C12   1.445809 S    
