data_mof_unit_49336.cif
_audit_creation_date              2012-12-10T20:30:15-0500
_audit_creation_method            fapswitch 2.2
_symmetry_space_group_name_H-M    P1
_symmetry_Int_Tables_number       1
_space_group_crystal_system       triclinic
_cell_length_a                    9.922189
_cell_length_b                    10.827839
_cell_length_c                    13.135752
_cell_angle_alpha                 91.657061
_cell_angle_beta                  73.429664
_cell_angle_gamma                 86.575246
_cell_volume                      1348.66811141

loop_
_atom_site_label
_atom_site_type_symbol
_atom_type_description
_atom_site_fract_x
_atom_site_fract_y
_atom_site_fract_z
_atom_type_partial_charge
C1    C     C_R   0.500845 0.739418 0.492065 0.990570
C2    C     C_R   0.390856 0.431708 0.809090 -0.216242
C3    C     C_R   0.390390 0.946049 0.474930 -0.035266
C4    C     C_R   0.427070 0.479885 0.700389 0.928846
C5    C     C_R   0.509720 0.869784 0.470848 -0.242053
C6    C     C_R   0.640628 0.924996 0.451018 0.343594
C7    C     C_R   0.640310 0.052049 0.472115 0.358905
C8    C     C_R   0.514497 0.126951 0.485420 -0.194428
C9    C     C_R   0.394992 0.072103 0.476254 -0.004690
C10   C     C_3   0.245631 0.094534 0.543439 0.226482
C11   C     C_3   0.242886 0.954600 0.546115 0.570625
C12   C     C_R   0.456140 0.398947 0.972483 0.067649
C13   C     C_R   0.910529 0.603395 0.532585 0.074745
C14   C     C_R   0.956043 0.411613 0.442919 0.469081
C15   C     C_R   0.098648 0.409124 0.446420 -0.154212
C16   C     C_R   0.504186 0.259733 0.499074 0.957574
C17   C     C_R   0.051230 0.602719 0.533396 0.130456
C18   C     C_3   0.011039 0.673837 0.637119 0.198969
C19   C     C_3   0.860575 0.688173 0.629576 0.238420
C20   C     C_R   0.575766 0.496338 0.297248 0.997580
C21   C     C_R   0.780341 0.511743 0.010801 0.511237
C22   C     C_R   0.618638 0.480281 0.182427 -0.291961
C23   C     C_R   0.495454 0.398400 0.860338 -0.086400
C24   C     C_R   0.248682 0.423006 0.865218 -0.094789
C25   C     C_R   0.209064 0.402678 0.973757 0.543459
C26   C     C_R   0.311477 0.401811 0.028367 -0.175694
C27   C     C_R   0.562701 0.412258 0.023759 -0.100991
C28   C     C_R   0.697781 0.441599 0.962255 -0.184916
C29   C     C_R   0.742800 0.399676 0.854916 0.582005
C30   C     C_R   0.639853 0.368893 0.805194 0.369824
C31   C     C_R   0.537765 0.409826 0.133836 0.324704
C32   C     C_R   0.736499 0.536403 0.120603 0.266951
Cl1   Cl    Cl    0.829970 0.638240 0.179108 -0.407504
Cl2   Cl    Cl    0.789858 0.105756 0.501947 -0.424919
Cl3   Cl    Cl    0.232780 0.897036 0.675121 -0.545709
Cl4   Cl    Cl    0.125277 0.898947 0.477581 -0.549070
Cl5   Cl    Cl    0.916468 0.313808 0.348552 -0.469619
Cl6   Cl    Cl    0.730284 0.642899 0.742141 -0.494012
Cl7   Cl    Cl    0.920116 0.592778 0.936512 -0.392546
Cl8   Cl    Cl    0.436571 0.293376 0.205216 -0.574827
Cl9   Cl    Cl    0.806413 0.840886 0.399234 -0.411609
H1    H     H_    0.177152 0.140963 0.499792 0.152629
H2    H     H_    0.058164 0.377123 0.101573 0.372395
H3    H     H_    0.599516 0.265875 0.696535 0.351939
H4    H     H_    0.174259 0.336412 0.402843 0.206938
H5    H     H_    0.054173 0.763638 0.638053 0.180225
H6    H     H_    0.833092 0.783169 0.608453 0.160664
H7    H     H_    0.167584 0.434431 0.825328 0.243804
H8    H     H_    0.275104 0.408162 0.113939 0.195652
H9    H     H_    0.133038 0.171558 0.677242 0.378994
H10   H     H_    0.107355 0.629961 0.739882 0.391434
H11   H     H_    0.899735 0.362737 0.726575 0.380569
N1    N     N_R   0.856940 0.500860 0.500710 -0.118514
N2    N     N_R   0.142580 0.500820 0.500710 -0.112312
O1    O     O_R   0.385310 0.683210 0.499990 -0.594106
O2    O     O_3   0.028877 0.597711 0.716627 -0.629819
O3    O     O_3   0.885408 0.385673 0.802647 -0.669834
O4    O     O_3   0.068823 0.391074 0.025478 -0.691775
O5    O     O_3   0.681810 0.306530 0.707019 -0.716160
O6    O     O_R   0.614650 0.683240 0.500000 -0.581973
O7    O     O_R   0.328390 0.499940 0.653610 -0.614927
O8    O     O_R   0.557730 0.499980 0.653620 -0.544290
O9    O     O_R   0.385350 0.316760 0.500000 -0.604181
O10   O     O_R   0.614690 0.316790 0.500010 -0.559083
O11   O     O_R   0.442270 0.500020 0.346380 -0.597860
O12   O     O_R   0.671610 0.500060 0.346390 -0.546654
O13   O     O_3   0.235300 0.153244 0.642384 -0.702079
Zn1   Zn    Zn3+2 0.346870 0.499980 0.499990 1.042957
Zn2   Zn    Zn3+2 0.653130 0.500020 0.500010 1.125147

loop_
_geom_bond_atom_site_label_1
_geom_bond_atom_site_label_2
_ccdc_geom_bond_type
C2    C4    S    
C21   C32   A    
C23   C30   A    
C6    C7    A    
C3    C9    A    
C19   Cl6   S    
C18   O2    S    
C10   H1    S    
O10   Zn2   S    
C9    C10   S    
H9    O13   S    
C12   C23   A    
C13   C17   A    
O11   Zn1   S    
N1    Zn2   S    
C30   O5    S    
C11   Cl3   S    
O1    Zn1   S    
C1    O1    A    
C7    C8    A    
C8    C16   S    
C10   O13   S    
C24   C25   A    
C14   Cl5   S    
C17   N2    A    
O7    Zn1   S    
C28   C29   A    
C29   C30   A    
C22   C32   A    
O6    Zn2   S    
C1    C5    S    
C18   H5    S    
C20   O12   A    
C11   Cl4   S    
C16   O9    A    
C21   C28   A    
C29   O3    S    
C17   C18   S    
C13   N1    A    
C10   C11   S    
C2    C24   A    
C5    C6    A    
C7    Cl2   S    
C19   H6    S    
C12   C26   A    
C1    O6    A    
O12   Zn2   S    
N2    Zn1   S    
C25   O4    S    
C15   H4    S    
C12   C27   A    
C27   C31   A    
H11   O3    S    
C24   H7    S    
C15   N2    A    
C4    O8    A    
C20   O11   A    
C2    C23   A    
C14   N1    A    
C3    C11   S    
C31   Cl8   S    
H10   O2    S    
C22   C31   A    
C26   H8    S    
H3    O5    S    
C27   C28   A    
C13   C19   S    
O9    Zn1   S    
C18   C19   S    
C32   Cl1   S    
C16   O10   A    
H2    O4    S    
C25   C26   A    
C14   C15   A    
C4    O7    A    
O8    Zn2   S    
C20   C22   S    
C8    C9    A    
C3    C5    A    
C6    Cl9   S    
C21   Cl7   S    
