data_mof_unit_51506.cif
_audit_creation_date              2012-12-10T18:45:03-0500
_audit_creation_method            fapswitch 2.2
_symmetry_space_group_name_H-M    P1
_symmetry_Int_Tables_number       1
_space_group_crystal_system       triclinic
_cell_length_a                    10.625243
_cell_length_b                    9.845382
_cell_length_c                    10.673326
_cell_angle_alpha                 88.267832
_cell_angle_beta                  90.985605
_cell_angle_gamma                 90.376277
_cell_volume                      1115.83636102

loop_
_atom_site_label
_atom_site_type_symbol
_atom_type_description
_atom_site_fract_x
_atom_site_fract_y
_atom_site_fract_z
_atom_type_partial_charge
C1    C     C_R   0.260275 0.499607 0.495820 0.870110
C2    C     C_R   0.739573 0.499970 0.501859 0.887634
C3    C     C_R   0.938729 0.482884 0.608596 -0.176737
C4    C     C_R   0.067710 0.483919 0.606804 -0.171009
C5    C     C_R   0.582200 0.075479 0.427933 -0.093194
C6    C     C_R   0.415696 0.069576 0.569459 -0.070370
C7    C     C_R   0.581603 0.931759 0.426741 0.020987
C8    C     C_R   0.417237 0.925815 0.571983 0.031652
C9    C     C_R   0.480420 0.502429 0.261137 0.896240
C10   C     C_R   0.509618 0.497986 0.741428 0.875416
C11   C     C_R   0.449134 0.762476 0.099488 0.033339
C12   C     C_R   0.605955 0.730282 0.895489 0.042754
C13   C     C_R   0.508851 0.875047 0.044127 -0.188621
C14   C     C_R   0.592743 0.857646 0.947843 -0.168592
C15   C     C_R   0.533881 0.617298 0.941811 0.033044
C16   C     C_R   0.475567 0.629752 0.057473 0.045996
C17   C     C_R   0.452140 0.508340 0.127465 -0.164496
C18   C     C_R   0.514517 0.493813 0.877943 -0.187670
C19   C     C_R   0.433928 0.385139 0.067040 -0.050779
C20   C     C_R   0.468181 0.376298 0.942983 -0.057272
C21   C     C_R   0.060930 0.508315 0.377577 -0.040483
C22   C     C_R   0.930184 0.508993 0.379675 -0.046454
C23   C     C_R   0.871600 0.499348 0.496216 -0.057447
C24   C     C_R   0.127689 0.498250 0.492356 -0.056281
H1    H     H_    0.891203 0.469728 0.697217 0.147476
H2    H     H_    0.120910 0.473505 0.694180 0.148094
H3    H     H_    0.647504 0.133473 0.370392 0.142904
H4    H     H_    0.347549 0.122948 0.623520 0.148497
N1    N     N_R   0.500000 0.857200 0.500000 -0.123747
N2    N     N_R   0.500000 0.142810 0.500000 -0.089263
O1    O     O_R   0.316770 0.614620 0.499990 -0.609844
O2    O     O_R   0.683230 0.614620 0.500010 -0.601600
O3    O     O_R   0.316800 0.385290 0.500000 -0.621468
O4    O     O_R   0.683200 0.385290 0.500000 -0.623072
O5    O     O_R   0.500010 0.614690 0.316770 -0.622758
O6    O     O_R   0.499990 0.614690 0.683230 -0.615150
O7    O     O_R   0.500040 0.385360 0.316770 -0.612878
O8    O     O_R   0.499960 0.385360 0.683230 -0.610811
Zn1   Zn    Zn3+2 0.500000 0.653120 0.500000 0.983748
Zn2   Zn    Zn3+2 0.500000 0.346880 0.500000 0.970029
C25   C     C_1   0.375040 0.268920 0.131094 0.214550
N3    N     N_1   0.328068 0.176796 0.181955 -0.198874
C26   C     C_1   0.460566 0.243473 0.887785 0.210974
N4    N     N_1   0.454615 0.136710 0.845815 -0.235356
C27   C     C_1   0.351303 0.788495 0.188042 0.216057
N5    N     N_1   0.273228 0.810529 0.258808 -0.177629
C28   C     C_1   0.706068 0.717182 0.807267 0.174338
N6    N     N_1   0.787481 0.709680 0.737427 -0.198709
H5    H     H_    0.493022 0.976142 0.077767 0.158391
H6    H     H_    0.646020 0.944466 0.912479 0.159890
C29   C     C_1   0.124303 0.515098 0.258570 0.160813
N7    N     N_1   0.172070 0.520388 0.162040 -0.210636
C30   C     C_1   0.856390 0.515429 0.263692 0.194015
N8    N     N_1   0.797693 0.520223 0.171309 -0.196111
C31   C     C_1   0.667311 0.865461 0.346231 0.227780
N9    N     N_1   0.736641 0.813388 0.280753 -0.184695
C32   C     C_1   0.331287 0.852977 0.652466 0.258801
N10   N     N_1   0.262075 0.795044 0.717759 -0.191524

loop_
_geom_bond_atom_site_label_1
_geom_bond_atom_site_label_2
_ccdc_geom_bond_type
C15   C18   A    
C4    H2    S    
C26   N4    T    
C30   N8    T    
C7    N1    A    
C8    C32   S    
O7    Zn2   S    
C11   C16   A    
C19   C20   A    
O5    Zn1   S    
C28   N6    T    
C12   C15   A    
C7    C31   S    
C10   O8    A    
N1    Zn1   S    
C31   N9    T    
C9    O7    A    
C1    O3    A    
C13   C14   A    
O8    Zn2   S    
C11   C13   A    
C2    O4    A    
C32   N10   T    
C14   H6    S    
C10   C18   S    
C12   C28   S    
C13   H5    S    
C8    N1    A    
C3    H1    S    
C21   C22   A    
C6    N2    A    
O1    Zn1   S    
C22   C30   S    
C18   C20   A    
C21   C29   S    
C4    C24   A    
C9    O5    A    
C11   C27   S    
O3    Zn2   S    
C21   C24   A    
N2    Zn2   S    
C15   C16   A    
C19   C25   S    
C1    O1    A    
C20   C26   S    
C1    C24   S    
C2    O2    A    
C5    N2    A    
C25   N3    T    
O2    Zn1   S    
C9    C17   S    
C2    C23   S    
C5    C7    A    
C22   C23   A    
O4    Zn2   S    
C6    C8    A    
C17   C19   A    
C5    H3    S    
C3    C23   A    
O6    Zn1   S    
C6    H4    S    
C3    C4    A    
C29   N7    T    
C12   C14   A    
C16   C17   A    
C10   O6    A    
C27   N5    T    
