data_mof_unit_38667.cif
_audit_creation_date              2012-12-10T17:07:02-0500
_audit_creation_method            fapswitch 2.2
_symmetry_space_group_name_H-M    P1
_symmetry_Int_Tables_number       1
_space_group_crystal_system       triclinic
_cell_length_a                    18.281315
_cell_length_b                    18.270547
_cell_length_c                    18.316792
_cell_angle_alpha                 120.012068
_cell_angle_beta                  119.971696
_cell_angle_gamma                 60.025739
_cell_volume                      4327.43943154

loop_
_atom_site_label
_atom_site_type_symbol
_atom_type_description
_atom_site_fract_x
_atom_site_fract_y
_atom_site_fract_z
_atom_type_partial_charge
C1    C     C_R   0.140002 0.859142 0.639199 0.831420
C2    C     C_R   0.556022 0.391094 0.610351 0.511009
C3    C     C_R   0.609118 0.335908 0.555493 0.519956
C4    C     C_R   0.859350 0.140060 0.360017 0.870099
C5    C     C_R   0.688356 0.267721 0.581503 -0.367084
C6    C     C_R   0.930790 0.250845 0.362623 -0.221441
C7    C     C_R   0.966014 0.305759 0.367826 -0.338205
C8    C     C_R   0.916288 0.360162 0.314467 0.514473
C9    C     C_R   0.828723 0.360521 0.256141 0.468020
C10   C     C_R   0.790257 0.306180 0.252278 -0.160729
C11   C     C_R   0.842970 0.250616 0.306314 -0.019669
C12   C     C_R   0.811215 0.229599 0.916920 -0.171119
C13   C     C_R   0.806896 0.196139 0.303770 -0.220871
C14   C     C_R   0.719616 0.195422 0.248044 0.397222
C15   C     C_R   0.666968 0.249719 0.194690 0.389552
C16   C     C_R   0.140062 0.139931 0.636687 0.870908
C17   C     C_R   0.701566 0.304385 0.196325 -0.250577
C18   C     C_R   0.680522 0.930098 0.369551 -0.175987
C19   C     C_R   0.595522 0.963403 0.374376 -0.229949
C20   C     C_R   0.538849 0.912828 0.319066 -0.214441
C21   C     C_R   0.565853 0.828181 0.257093 0.533855
C22   C     C_R   0.654679 0.790649 0.254271 -0.029292
C23   C     C_R   0.779675 0.239866 0.833281 0.068656
C24   C     C_R   0.711704 0.843687 0.310444 0.040967
C25   C     C_R   0.797707 0.810036 0.304125 -0.042671
C26   C     C_R   0.826124 0.726742 0.242381 -0.223499
C27   C     C_R   0.772193 0.673842 0.189160 -0.208530
C28   C     C_R   0.858970 0.860957 0.360055 0.765863
C29   C     C_R   0.688175 0.703733 0.195597 -0.065218
C30   C     C_R   0.127424 0.683030 0.571479 -0.316281
C31   C     C_R   0.116889 0.599747 0.538662 0.529028
C32   C     C_R   0.173286 0.542867 0.589031 -0.298886
C33   C     C_R   0.238643 0.567497 0.672163 0.466997
C34   C     C_R   0.834963 0.187137 0.779667 0.068355
C35   C     C_R   0.243313 0.655524 0.709581 -0.015830
C36   C     C_R   0.187959 0.712853 0.657200 -0.099340
C37   C     C_R   0.196076 0.798174 0.690520 -0.133851
C38   C     C_R   0.258159 0.826559 0.774222 0.536902
C39   C     C_R   0.312521 0.770546 0.825200 -0.340345
C40   C     C_R   0.140092 0.860225 0.360009 0.790744
C41   C     C_R   0.304148 0.687466 0.795505 -0.131586
C42   C     C_R   0.213856 0.668422 0.324903 -0.398736
C43   C     C_R   0.251182 0.576498 0.311335 0.443108
C44   C     C_R   0.304894 0.520123 0.257114 0.371448
C45   C     C_R   0.695855 0.303290 0.803583 -0.101962
C46   C     C_R   0.320137 0.555220 0.214440 0.305749
C47   C     C_R   0.286734 0.649687 0.232343 -0.079484
C48   C     C_R   0.232338 0.706227 0.287788 -0.027888
C49   C     C_R   0.196186 0.799711 0.303902 0.035112
C50   C     C_R   0.212946 0.836897 0.265779 -0.189703
C51   C     C_R   0.266395 0.782682 0.212346 -0.220643
C52   C     C_R   0.859963 0.139903 0.639662 0.789863
C53   C     C_R   0.303669 0.690273 0.195684 -0.009493
C54   C     C_R   0.278203 0.116725 0.575148 0.479756
C55   C     C_R   0.350281 0.102426 0.555543 -0.337299
C56   C     C_R   0.666247 0.313889 0.720604 0.025159
C57   C     C_R   0.407020 0.153328 0.613864 0.511570
C58   C     C_R   0.390366 0.220576 0.691448 -0.287678
C59   C     C_R   0.321144 0.234452 0.715931 -0.037291
C60   C     C_R   0.265129 0.180478 0.658376 -0.030465
C61   C     C_R   0.195977 0.195962 0.685083 -0.049656
C62   C     C_R   0.179222 0.266827 0.761549 -0.213965
C63   C     C_R   0.232357 0.320312 0.815570 -0.204854
C64   C     C_R   0.921390 0.128225 0.812613 -0.151513
C65   C     C_R   0.304385 0.303385 0.795157 0.002667
C66   C     C_R   0.638432 0.641569 0.139915 0.888367
C67   C     C_R   0.720229 0.259195 0.665932 0.008601
C68   C     C_R   0.360062 0.359842 0.857633 0.776669
C69   C     C_R   0.641620 0.360124 0.139990 1.001155
C70   C     C_R   0.359983 0.637581 0.857546 0.900907
C71   C     C_R   0.359882 0.639414 0.139924 0.900183
C72   C     C_R   0.640105 0.359944 0.860207 0.779811
C73   C     C_R   0.950601 0.119515 0.894974 -0.137762
C74   C     C_R   0.895353 0.169677 0.946772 -0.145236
C75   C     C_3   0.647313 0.348085 0.460195 -0.284014
C76   C     C_3   0.031002 0.374760 0.308735 -0.265252
C77   C     C_3   0.813561 0.391766 0.141356 -0.305049
C78   C     C_R   0.803988 0.196023 0.695739 -0.111390
C79   C     C_3   0.565821 0.193388 0.062677 -0.216675
C80   C     C_3   0.446036 0.814928 0.129725 -0.378685
C81   C     C_3   0.216685 0.971323 0.862970 -0.344408
C82   C     C_3   0.978608 0.634810 0.428364 -0.198889
C83   C     C_3   0.341597 0.425371 0.665733 -0.331026
C84   C     C_3   0.270753 0.567210 0.439744 -0.213639
C85   C     C_3   0.428704 0.405412 0.295349 -0.114004
C86   C     C_3   0.319797 0.452813 0.076036 -0.228212
C87   C     C_3   0.166741 0.100391 0.440336 -0.365272
C88   C     C_3   0.541355 0.061058 0.592317 -0.289764
C89   C     C_R   0.582504 0.376629 0.689840 -0.364014
C90   C     C_3   0.467248 0.539514 0.649908 -0.337122
C91   C     C_3   0.694473 0.062947 0.192055 -0.240549
H1    H     H_    0.973091 0.209582 0.404742 0.166181
H2    H     H_    0.031612 0.311370 0.250458 0.117319
H3    H     H_    0.086801 0.361518 0.369768 0.179070
H4    H     H_    0.042835 0.418607 0.293261 0.226136
H5    H     H_    0.847470 0.317967 0.116554 0.113536
H6    H     H_    0.860323 0.427329 0.166203 0.207117
H7    H     H_    0.757129 0.411560 0.083705 0.149629
H8    H     H_    0.623772 0.162178 0.038871 0.131144
H9    H     H_    0.506561 0.225994 0.014572 0.186873
H10   H     H_    0.551407 0.139991 0.060391 0.168986
H11   H     H_    0.891569 0.701567 0.236998 0.155086
H12   H     H_    0.796898 0.608117 0.143517 0.147585
H13   H     H_    0.720946 0.973320 0.412095 0.158687
H14   H     H_    0.572951 0.029502 0.420482 0.183223
H15   H     H_    0.472531 0.940110 0.323123 0.156399
H16   H     H_    0.482706 0.808565 0.092118 0.164981
H17   H     H_    0.403012 0.885669 0.152752 0.165424
H18   H     H_    0.401386 0.773964 0.082683 0.171711
H19   H     H_    0.968112 0.089119 0.776189 0.132320
H20   H     H_    0.243172 0.953367 0.923464 0.160042
H21   H     H_    0.144550 0.977676 0.827811 0.143915
H22   H     H_    0.221572 0.038010 0.885651 0.198267
H23   H     H_    0.089474 0.723477 0.528808 0.156523
H24   H     H_    0.988812 0.668774 0.399758 0.139742
H25   H     H_    0.951397 0.684074 0.484099 0.158564
H26   H     H_    0.927331 0.603263 0.374598 0.224075
H27   H     H_    0.166486 0.477861 0.562532 0.172631
H28   H     H_    0.358999 0.434149 0.620996 0.190569
H29   H     H_    0.302049 0.379220 0.625982 0.182607
H30   H     H_    0.405373 0.393410 0.711077 0.172839
H31   H     H_    0.360258 0.793384 0.889954 0.162875
H32   H     H_    0.184947 0.908479 0.278049 0.131622
H33   H     H_    0.169867 0.709789 0.364503 0.167866
H34   H     H_    0.360440 0.052948 0.493022 0.167679
H35   H     H_    0.235424 0.638883 0.471008 0.134371
H36   H     H_    0.343152 0.555495 0.460423 0.169814
H37   H     H_    0.265608 0.527100 0.465591 0.210749
H38   H     H_    0.016584 0.074002 0.918857 0.125605
H39   H     H_    0.437303 0.444481 0.367384 0.169757
H40   H     H_    0.470755 0.414108 0.274569 0.188927
H41   H     H_    0.453387 0.333490 0.287137 0.224670
H42   H     H_    0.260507 0.501349 0.043512 0.149400
H43   H     H_    0.298031 0.409209 0.081284 0.194651
H44   H     H_    0.361522 0.408716 0.032182 0.163894
H45   H     H_    0.218757 0.373750 0.875379 0.137327
H46   H     H_    0.279285 0.813129 0.184020 0.139325
H47   H     H_    0.125681 0.279521 0.780930 0.154455
H48   H     H_    0.205268 0.080827 0.398197 0.167384
H49   H     H_    0.134375 0.174485 0.463721 0.148818
H50   H     H_    0.112821 0.070123 0.397718 0.172030
H51   H     H_    0.518589 0.005706 0.533768 0.163140
H52   H     H_    0.564868 0.049215 0.655778 0.167566
H53   H     H_    0.599699 0.060378 0.587247 0.195010
H54   H     H_    0.432543 0.261814 0.731458 0.186601
H55   H     H_    0.918159 0.162939 0.010882 0.125659
H56   H     H_    0.689611 0.278796 0.432217 0.201431
H57   H     H_    0.772042 0.267787 0.960738 0.139831
H58   H     H_    0.536385 0.414814 0.726585 0.174791
H59   H     H_    0.443110 0.544184 0.697425 0.185024
H60   H     H_    0.530854 0.554981 0.686091 0.174584
H61   H     H_    0.416157 0.592213 0.619494 0.183144
H62   H     H_    0.724147 0.221388 0.534598 0.176824
H63   H     H_    0.719201 0.049463 0.140300 0.123145
H64   H     H_    0.629996 0.049879 0.156921 0.175307
H65   H     H_    0.742055 0.014181 0.228212 0.201116
H66   H     H_    0.689199 0.386717 0.522128 0.159103
H67   H     H_    0.616321 0.381350 0.410042 0.179094
H68   H     H_    0.031999 0.307049 0.415109 0.165084
O1    O     O_3   0.000000 0.000000 0.500000 -0.489901
O2    O     O_R   0.323460 0.615830 0.884170 -0.596925
O3    O     O_R   0.444880 0.615840 0.176480 -0.592295
O4    O     O_R   0.055060 0.884200 0.615800 -0.657606
O5    O     O_R   0.615800 0.444940 0.884180 -0.646746
O6    O     O_R   0.323440 0.615840 0.055040 -0.663771
O7    O     O_R   0.615780 0.323500 0.884180 -0.649587
O8    O     O_R   0.615760 0.323500 0.055050 -0.670305
O9    O     O_R   0.444910 0.615830 0.884180 -0.663094
O10   O     O_R   0.615780 0.615830 0.176490 -0.571650
O11   O     O_R   0.323430 0.444950 0.884170 -0.615409
O12   O     O_R   0.055100 0.176520 0.615800 -0.657466
O13   O     O_R   0.884210 0.176520 0.444920 -0.653251
O14   O     O_R   0.176540 0.055080 0.615800 -0.578673
O15   O     O_R   0.884190 0.884200 0.323480 -0.642897
O16   O     O_R   0.176540 0.884190 0.444930 -0.607295
O17   O     O_R   0.884180 0.055090 0.615790 -0.643578
O18   O     O_R   0.055100 0.884190 0.323490 -0.647571
O19   O     O_R   0.884190 0.176530 0.615790 -0.643548
O20   O     O_3   0.578512 0.346901 0.474081 -0.602026
O21   O     O_3   0.948152 0.420336 0.324002 -0.586341
O22   O     O_3   0.778949 0.419257 0.208228 -0.590953
O23   O     O_R   0.884180 0.884200 0.444920 -0.650319
O24   O     O_3   0.577141 0.258268 0.149250 -0.593116
O25   O     O_3   0.505299 0.782326 0.201938 -0.612541
O26   O     O_3   0.267482 0.908834 0.805493 -0.590064
O27   O     O_3   0.058670 0.566817 0.454609 -0.596138
O28   O     O_3   0.295321 0.507225 0.718579 -0.601569
O29   O     O_3   0.230822 0.539391 0.345894 -0.564425
O30   O     O_3   0.337982 0.428928 0.241483 -0.590506
O31   O     O_3   0.372242 0.496988 0.159834 -0.608619
O32   O     O_3   0.221737 0.067236 0.512458 -0.581280
O33   O     O_3   0.473626 0.144956 0.591764 -0.604794
O34   O     O_R   0.176510 0.884190 0.615800 -0.613073
O35   O     O_3   0.475542 0.454965 0.581427 -0.606423
O36   O     O_3   0.681015 0.151000 0.254446 -0.600416
O37   O     O_R   0.884210 0.055080 0.323480 -0.649946
O38   O     O_3   0.499970 0.500030 0.999970 -0.497949
O39   O     O_R   0.615800 0.615830 0.055050 -0.663147
O40   O     O_R   0.444880 0.323510 0.884180 -0.660846
O41   O     O_R   0.615760 0.444950 0.176490 -0.585179
Zn1   Zn    Zn3+2 0.956630 0.130130 0.543370 0.962225
Zn2   Zn    Zn3+2 0.130140 0.956620 0.543380 1.026674
Zn3   Zn    Zn3+2 0.956630 0.956620 0.369870 0.953598
Zn4   Zn    Zn3+2 0.956610 0.956630 0.543370 0.946683
Zn5   Zn    Zn3+2 0.543340 0.369890 0.956600 0.959596
Zn6   Zn    Zn3+2 0.543340 0.543410 0.130100 1.078298
Zn7   Zn    Zn3+2 0.369830 0.543410 0.956590 1.009137
Zn8   Zn    Zn3+2 0.543370 0.543400 0.956600 0.959023

loop_
_geom_bond_atom_site_label_1
_geom_bond_atom_site_label_2
_ccdc_geom_bond_type
C16   O14   A    
C84   H37   S    
C21   O25   S    
C14   O36   S    
C63   C65   A    
C17   C69   S    
C42   C43   A    
C23   C45   A    
C22   C29   A    
C12   C74   A    
C27   C29   A    
C73   C74   A    
O17   Zn4   S    
C66   O10   A    
O38   Zn5   S    
C35   C36   A    
C87   H49   S    
C90   H59   S    
O1    Zn3   S    
C58   H54   S    
C42   H33   S    
C7    C8    A    
C39   C41   A    
C54   C60   A    
C26   H11   S    
C25   C28   S    
C80   H16   S    
C26   C27   A    
C62   C63   A    
C39   H31   S    
C82   O27   S    
C68   O40   A    
C18   C24   A    
O8    Zn5   S    
C79   H8    S    
C36   C37   A    
C71   O3    A    
C82   H24   S    
C85   H41   S    
O1    Zn2   S    
C30   C31   A    
C44   O30   S    
C6    H1    S    
C7    H68   S    
C10   C17   A    
C85   O30   S    
C40   C49   S    
O40   Zn5   S    
C4    O37   A    
C18   C19   A    
C83   H28   S    
C4    C13   S    
C3    O20   S    
C28   O23   A    
C76   H3    S    
C54   C55   A    
C68   O11   A    
C86   H43   S    
C81   H20   S    
C45   C56   A    
C88   H53   S    
C8    C9    A    
C15   O24   S    
C80   H18   S    
O38   Zn8   S    
C69   O41   A    
C77   O22   S    
C64   C73   A    
O18   Zn3   S    
C77   H6    S    
O7    Zn5   S    
C75   O20   S    
C9    C10   A    
C52   O17   A    
C88   H52   S    
C5    C67   A    
C47   C53   A    
C75   H66   S    
C84   H36   S    
C89   H58   S    
C59   C60   A    
C13   C14   A    
O3    Zn6   S    
C45   C72   S    
C83   O28   S    
O38   Zn6   S    
C61   C62   A    
C67   C78   A    
C46   O31   S    
C52   C78   S    
C88   H51   S    
C44   C46   A    
C20   H15   S    
C84   H35   S    
C73   H38   S    
O4    Zn4   S    
C86   O31   S    
C54   O32   S    
O39   Zn8   S    
C55   H34   S    
C79   H9    S    
C9    O22   S    
C24   C25   A    
C91   H63   S    
C90   H61   S    
O5    Zn8   S    
C32   H27   S    
C6    C11   A    
C81   O26   S    
O10   Zn6   S    
C42   C48   A    
C75   H56   S    
C25   C26   A    
C83   H30   S    
O34   Zn2   S    
C29   C66   S    
C60   C61   A    
C2    O35   S    
C83   H29   S    
O12   Zn1   S    
C2    C89   A    
C1    O34   A    
C43   C44   A    
C69   O8    A    
C91   H64   S    
C37   C38   A    
C70   O9    A    
C76   H2    S    
C91   O36   S    
C8    O21   S    
C86   H42   S    
C64   H19   S    
C47   C48   A    
C12   C23   A    
C81   H21   S    
C65   C68   S    
C3    C5    A    
O9    Zn8   S    
C50   C51   A    
C72   O5    A    
C77   H7    S    
C33   O28   S    
C38   O26   S    
C18   H13   S    
C87   H50   S    
O37   Zn3   S    
O6    Zn7   S    
C66   O39   A    
C57   O33   S    
C51   H46   S    
C75   H67   S    
C34   C78   A    
C56   C89   A    
C62   H47   S    
C55   C57   A    
C22   C24   A    
C84   O29   S    
C16   C61   S    
C53   C71   S    
C70   O2    A    
C19   H14   S    
O1    Zn1   S    
C87   O32   S    
C30   H23   S    
O2    Zn7   S    
C90   O35   S    
C88   O33   S    
C46   C47   A    
C48   C49   A    
C23   C34   A    
O41   Zn6   S    
C4    O13   A    
C72   O7    A    
C74   H55   S    
C31   C32   A    
C79   H10   S    
C50   H32   S    
O16   Zn2   S    
C87   H48   S    
C90   H60   S    
C76   O21   S    
O1    Zn4   S    
C40   O16   A    
C15   C17   A    
C6    C7    A    
C1    C37   S    
C56   C67   A    
C80   H17   S    
C77   H5    S    
C85   H39   S    
C30   C36   A    
C32   C33   A    
C12   H57   S    
C19   C20   A    
C2    C3    A    
C58   C59   A    
C82   H25   S    
C91   H65   S    
C76   H4    S    
C85   H40   S    
C11   C13   A    
C16   O12   A    
C28   O15   A    
C57   C58   A    
C38   C39   A    
C43   O29   S    
C5    H62   S    
C31   O27   S    
C27   H12   S    
O15   Zn3   S    
C33   C35   A    
C79   O24   S    
C80   O25   S    
O13   Zn1   S    
C35   C41   A    
C52   O19   A    
O38   Zn7   S    
C10   C11   A    
C40   O18   A    
O23   Zn4   S    
C86   H44   S    
O11   Zn7   S    
C20   C21   A    
C1    O4    A    
C49   C50   A    
C71   O6    A    
O19   Zn1   S    
C81   H22   S    
C14   C15   A    
O14   Zn2   S    
C63   H45   S    
C82   H26   S    
C51   C53   A    
C21   C22   A    
C34   C64   A    
C59   C65   A    
C41   C70   S    
