data_mof_unit_15826.cif
_audit_creation_date              2012-12-10T17:25:22-0500
_audit_creation_method            fapswitch 2.2
_symmetry_space_group_name_H-M    P1
_symmetry_Int_Tables_number       1
_space_group_crystal_system       triclinic
_cell_length_a                    27.7884
_cell_length_b                    10.851092
_cell_length_c                    9.600101
_cell_angle_alpha                 88.980658
_cell_angle_beta                  89.233329
_cell_angle_gamma                 93.537413
_cell_volume                      2888.48491244

loop_
_atom_site_label
_atom_site_type_symbol
_atom_type_description
_atom_site_fract_x
_atom_site_fract_y
_atom_site_fract_z
_atom_type_partial_charge
C1    C     C_R   0.500767 0.261796 0.502534 0.807700
C2    C     C_R   0.275294 0.427422 0.597450 0.186784
C3    C     C_R   0.253899 0.500689 0.495754 0.265624
C4    C     C_R   0.102275 0.502538 0.481611 -0.042326
C5    C     C_R   0.126079 0.400604 0.432601 -0.026281
C6    C     C_R   0.099073 0.298051 0.383383 -0.128883
C7    C     C_R   0.129739 0.605736 0.530931 -0.026321
C8    C     C_R   0.354616 0.494985 0.502009 -0.117988
C9    C     C_R   0.645273 0.490671 0.497913 -0.071297
C10   C     C_R   0.972815 0.388574 0.450072 0.043143
C11   C     C_R   0.976647 0.607118 0.518848 0.043487
C12   C     C_R   0.407552 0.496524 0.500903 0.828985
C13   C     C_R   0.949431 0.496617 0.485827 0.072704
C14   C     C_R   0.944077 0.278589 0.428048 -0.200246
C15   C     C_R   0.894061 0.276331 0.435073 -0.128920
C16   C     C_R   0.870706 0.383561 0.463618 -0.023349
C17   C     C_R   0.898239 0.494067 0.488773 -0.042399
C18   C     C_R   0.874475 0.601954 0.517149 -0.023408
C19   C     C_R   0.823883 0.597809 0.517618 0.565706
C20   C     C_R   0.820179 0.382832 0.468267 0.576423
C21   C     C_R   0.720705 0.480669 0.368186 0.213524
C22   C     C_R   0.670500 0.480524 0.371165 -0.201055
C23   C     C_R   0.494992 0.735912 0.499565 0.810597
C24   C     C_R   0.671078 0.497164 0.622666 -0.204283
C25   C     C_R   0.721188 0.495224 0.620307 -0.117273
C26   C     C_R   0.746255 0.487609 0.493505 0.300987
C27   C     C_R   0.023925 0.393376 0.439427 0.042810
C28   C     C_R   0.051108 0.501045 0.481801 0.073208
C29   C     C_R   0.027709 0.606949 0.525029 0.041545
C30   C     C_R   0.049010 0.294145 0.386912 -0.200615
C31   C     C_R   0.106345 0.707769 0.577860 -0.131503
C32   C     C_R   0.951629 0.714404 0.544074 -0.200442
C33   C     C_R   0.901579 0.711653 0.542963 -0.133203
C34   C     C_R   0.592363 0.495871 0.499523 0.838784
C35   C     C_R   0.056386 0.708750 0.574745 -0.200039
C36   C     C_R   0.491953 0.104937 0.771728 -0.166344
C37   C     C_R   0.472453 0.038006 0.886625 -0.151512
C38   C     C_R   0.451178 0.920353 0.869402 -0.095481
C39   C     C_R   0.453647 0.865141 0.740042 -0.130826
C40   C     C_R   0.476857 0.928531 0.625047 0.085295
C41   C     C_R   0.489680 0.055857 0.635540 0.113936
C42   C     C_R   0.499679 0.126215 0.509527 -0.105373
C43   C     C_R   0.503193 0.065115 0.382779 -0.198222
C44   C     C_R   0.498916 0.937952 0.379020 -0.181102
C45   C     C_R   0.176616 0.403517 0.434451 0.580552
C46   C     C_R   0.488165 0.868463 0.500290 -0.114529
C47   C     C_R   0.545410 0.710845 0.128741 0.184416
C48   C     C_R   0.553519 0.816013 0.043013 -0.236909
C49   C     C_R   0.561830 0.801304 0.902916 -0.188919
C50   C     C_R   0.553228 0.686166 0.846586 -0.122428
C51   C     C_R   0.526087 0.592609 0.921303 0.171285
C52   C     C_R   0.524809 0.597488 0.070768 0.148165
C53   C     C_R   0.476142 0.409559 0.076723 -0.049394
C54   C     C_R   0.475558 0.410784 0.929095 -0.059322
C55   C     C_R   0.180184 0.603516 0.534268 0.563672
C56   C     C_R   0.282631 0.570258 0.399068 -0.116345
C57   C     C_R   0.332513 0.568005 0.402583 -0.239239
C58   C     C_R   0.325881 0.421801 0.598690 0.097403
Cu1   Cu    Cu3+1 0.500000 0.499990 0.640660 0.948803
Cu2   Cu    Cu3+1 0.500000 0.500010 0.359340 0.970240
H1    H     H_    0.266113 0.626387 0.320858 0.166014
H2    H     H_    0.126602 0.787727 0.617791 0.194387
H3    H     H_    0.969714 0.803269 0.561871 0.140129
H4    H     H_    0.652650 0.504666 0.721994 0.172532
H5    H     H_    0.884184 0.796381 0.562845 0.189689
H6    H     H_    0.041272 0.789763 0.616035 0.144067
H7    H     H_    0.473686 0.077950 0.989192 0.129307
H8    H     H_    0.434545 0.869818 0.957534 0.141262
H9    H     H_    0.436793 0.773183 0.730821 0.161547
H10   H     H_    0.504604 0.894099 0.280727 0.166701
H11   H     H_    0.456340 0.335580 0.133852 0.146173
H12   H     H_    0.564199 0.905250 0.085826 0.175384
H13   H     H_    0.577411 0.877529 0.839506 0.176278
H14   H     H_    0.566783 0.675755 0.743283 0.205051
H15   H     H_    0.116543 0.219377 0.342835 0.192002
H16   H     H_    0.651377 0.474637 0.273750 0.188450
H17   H     H_    0.873723 0.189721 0.417442 0.193047
H18   H     H_    0.959171 0.191317 0.408720 0.140849
H19   H     H_    0.030972 0.212723 0.344606 0.143228
N1    N     N_R   0.202438 0.502765 0.487833 -0.458164
N2    N     N_R   0.797906 0.489408 0.492913 -0.463145
N3    N     N_R   0.500460 0.501210 0.147910 -0.195208
N4    N     N_R   0.500480 0.501290 0.852040 -0.198297
O1    O     O_R   0.500000 0.319640 0.618810 -0.593998
O2    O     O_2   0.793465 0.276691 0.448004 -0.509777
O3    O     O_2   0.206782 0.700635 0.584547 -0.517182
O4    O     O_2   0.800786 0.701307 0.541894 -0.512370
O5    O     O_R   0.500000 0.319660 0.381240 -0.587567
O6    O     O_R   0.430260 0.500010 0.618770 -0.560006
O7    O     O_R   0.430270 0.500030 0.381200 -0.577686
O8    O     O_R   0.500000 0.680340 0.618760 -0.608188
O9    O     O_R   0.500000 0.680360 0.381190 -0.571639
O10   O     O_R   0.569730 0.499970 0.618800 -0.608642
O11   O     O_R   0.569740 0.499990 0.381230 -0.555825
O12   O     O_2   0.199833 0.307517 0.384686 -0.507287
I1    I     I_    0.357643 0.292470 0.734930 -0.303615
H20   H     H_    0.740708 0.500775 0.717107 0.168380
H21   H     H_    0.510535 0.115522 0.285600 0.159560
H22   H     H_    0.510860 0.191223 0.795101 0.166688
I2    I     I_    0.230097 0.329489 0.749510 -0.227742
I3    I     I_    0.602672 0.738771 0.273027 -0.343066
H23   H     H_    0.455232 0.337990 0.876634 0.163944
I4    I     I_    0.756224 0.476617 0.171645 -0.297274
H24   H     H_    0.354011 0.624007 0.327460 0.172010

loop_
_geom_bond_atom_site_label_1
_geom_bond_atom_site_label_2
_ccdc_geom_bond_type
C10   C27   A    
C21   C26   A    
C47   I3    S    
C41   C42   A    
C34   O10   A    
C22   H16   S    
C49   H13   S    
Cu2   O5    S    
C33   H5    S    
C6    H15   S    
C53   C54   A    
C1    O1    A    
C40   C46   A    
C12   O7    A    
C28   C29   A    
Cu1   N4    S    
C19   O4    S    
C50   H14   S    
C5    C6    A    
C9    C22   A    
C15   C16   A    
C56   C57   A    
C18   C19   A    
Cu1   O6    S    
C58   I1    S    
C8    C58   A    
Cu2   N3    S    
C16   C17   A    
C43   H21   S    
C44   H10   S    
C7    C55   A    
C45   N1    A    
C23   O9    A    
C8    C12   S    
C1    O5    A    
C2    I2    S    
Cu1   Cu2   S    
C24   H4    S    
C23   C46   S    
C21   C22   A    
C27   C30   A    
C31   H2    S    
C36   C41   A    
C48   H12   S    
C4    C7    A    
C3    N1    S    
C54   N4    A    
C4    C28   A    
C44   C46   A    
C17   C18   A    
Cu2   O9    S    
C38   C39   A    
C7    C31   A    
C51   C52   A    
C12   O6    A    
C24   C25   A    
C10   C14   A    
C39   C40   A    
C35   H6    S    
C25   C26   A    
C5    C45   A    
C53   N3    A    
C43   C44   A    
C37   C38   A    
C8    C57   A    
C3    C56   A    
C47   C48   A    
C16   C20   A    
C20   O2    S    
C50   C51   A    
C39   H9    S    
Cu1   O8    S    
Cu1   O1    S    
C52   N3    A    
C30   H19   S    
C25   H20   S    
C48   C49   A    
C6    C30   A    
C38   H8    S    
C11   C32   A    
C26   N2    S    
C9    C34   S    
C31   C35   A    
C42   C43   A    
C53   H11   S    
C51   N4    A    
C57   H24   S    
C40   C41   A    
C14   C15   A    
C54   H23   S    
C34   O11   A    
C32   H3    S    
C4    C5    A    
C10   C13   A    
C2    C58   A    
C9    C24   A    
C47   C52   A    
Cu2   O7    S    
C29   C35   A    
C13   C17   A    
C32   C33   A    
C55   O3    S    
C2    C3    A    
C19   N2    A    
C55   N1    A    
C11   C13   A    
C15   H17   S    
C37   H7    S    
C36   H22   S    
C23   O8    A    
C14   H18   S    
C18   C33   A    
C21   I4    S    
C1    C42   S    
C11   C29   A    
C36   C37   A    
C49   C50   A    
C27   C28   A    
C56   H1    S    
Cu1   O10   S    
C20   N2    A    
Cu2   O11   S    
C45   O12   S    
