data_mof_unit_10831.cif
_audit_creation_date              2013-03-05T16:41:46-0500
_audit_creation_method            fapswitch 2.2
_symmetry_space_group_name_H-M    P1
_symmetry_Int_Tables_number       1
_space_group_crystal_system       triclinic
_cell_length_a                    10.636574
_cell_length_b                    10.609707
_cell_length_c                    9.850689
_cell_angle_alpha                 89.788283
_cell_angle_beta                  89.660043
_cell_angle_gamma                 90.021201
_cell_volume                      1111.63220797

loop_
_atom_site_label
_atom_site_type_symbol
_atom_site_description
_atom_site_fract_x
_atom_site_fract_y
_atom_site_fract_z
_atom_type_partial_charge
O1    O     O_R   0.500020 0.316790 0.614690 -0.593987
O2    O     O_R   0.500000 0.316760 0.385350 -0.631260
C1    C     C_R   0.501890 0.260459 0.499968 0.926868
O3    O     O_R   0.316770 0.500020 0.614690 -0.610766
O4    O     O_R   0.316760 0.499980 0.385350 -0.618156
C2    C     C_R   0.261474 0.481085 0.501160 0.962499
Zn1   Zn    Zn3+2 0.500010 0.500020 0.653130 1.009466
Zn2   Zn    Zn3+2 0.499990 0.499980 0.346870 1.005920
O5    O     O_R   0.500000 0.683240 0.614650 -0.620909
O6    O     O_R   0.499980 0.683210 0.385310 -0.595637
O7    O     O_R   0.683240 0.500020 0.614650 -0.631421
O8    O     O_R   0.683230 0.499980 0.385310 -0.616904
C3    C     C_R   0.497934 0.739535 0.499661 0.977605
C4    C     C_R   0.740850 0.507642 0.500065 0.872877
H1    H     H_    0.113590 0.440922 0.286146 0.176491
C5    C     C_R   0.111346 0.426158 0.758296 0.311964
C6    C     C_R   0.059533 0.479474 0.876313 -0.316865
H2    H     H_    0.099668 0.457693 0.974372 0.205850
C7    C     C_R   0.955234 0.559709 0.868507 0.304955
C8    C     C_R   0.894368 0.573667 0.743460 -0.230401
H3    H     H_    0.812852 0.634308 0.738076 0.193072
C9    C     C_R   0.942165 0.515058 0.625285 0.037373
C10   C     C_R   0.061789 0.462063 0.629885 0.036789
C11   C     C_R   0.128528 0.455478 0.505331 -0.083923
C12   C     C_R   0.064804 0.453602 0.382037 -0.111516
H4    H     H_    0.888275 0.464413 0.285714 0.188831
C13   C     C_R   0.937534 0.473087 0.381149 -0.086743
C14   C     C_R   0.875798 0.506824 0.501420 -0.070274
C15   C     C_R   0.610095 0.062756 0.518136 0.055408
C16   C     C_R   0.499691 0.128875 0.497282 -0.171522
C17   C     C_R   0.391358 0.068141 0.452013 -0.182203
H5    H     H_    0.308937 0.122489 0.424554 0.204013
C18   C     C_R   0.386682 0.937065 0.453098 0.284968
C19   C     C_R   0.494617 0.871410 0.497268 -0.199456
C20   C     C_R   0.607346 0.934095 0.518575 0.032304
C21   C     C_3   0.699185 0.923397 0.632388 -0.492240
C22   C     C_3   0.701628 0.066939 0.632681 0.137436
H6    H     H_    0.656475 0.882320 0.725908 0.207581
H7    H     H_    0.788674 0.878358 0.599593 0.241259
H8    H     H_    0.662894 0.109369 0.726894 0.116460
C23   C     C_R   0.597861 0.451244 0.070889 0.267184
N1    N     N_R   0.499160 0.499140 0.142800 -0.120984
C24   C     C_R   0.406291 0.559612 0.072388 -0.081830
H9    H     H_    0.330709 0.605515 0.127048 0.179426
C25   C     C_R   0.406612 0.560111 0.928241 -0.044812
H10   H     H_    0.331299 0.606364 0.874117 0.158730
N2    N     N_R   0.499160 0.499180 0.857150 -0.109047
C26   C     C_R   0.597661 0.450973 0.928334 0.247681
C27   C     C_3   0.643432 0.318419 0.923300 -0.490760
C28   C     C_3   0.644606 0.319018 0.077410 -0.481362
H11   H     H_    0.572052 0.253211 0.880866 0.236566
H12   H     H_    0.738873 0.311599 0.877374 0.238805
H13   H     H_    0.575082 0.253098 0.123677 0.237897
H14   H     H_    0.740857 0.313413 0.120449 0.218534
N3    N     N_R   0.823112 0.119736 0.591100 0.239385
O9    O     O_R   0.876775 0.086082 0.477734 -0.321556
O10   O     O_R   0.877540 0.203200 0.667168 -0.389075
N4    N     N_R   0.203674 0.327193 0.770258 0.237631
O11   O     O_R   0.262405 0.308680 0.884132 -0.400973
O12   O     O_R   0.216546 0.244322 0.674092 -0.375378
N5    N     N_R   0.908988 0.623146 0.987640 0.216537
O13   O     O_R   0.976555 0.627242 0.097214 -0.392033
O14   O     O_R   0.802708 0.683878 0.985156 -0.403444
N6    N     N_R   0.271456 0.874059 0.418017 0.220662
O15   O     O_R   0.236583 0.772164 0.481680 -0.398508
O16   O     O_R   0.193312 0.926909 0.334090 -0.315083

loop_
_geom_bond_atom_site_label_1
_geom_bond_atom_site_label_2
_geom_bond_distance
_ccdc_geom_bond_type
O4    Zn2   1.983250 S    
C10   C11   1.415813 A    
C17   C18   1.391541 A    
C15   C16   1.384104 A    
C1    C16   1.396611 S    
C23   N1    1.362501 A    
C15   C20   1.365345 A    
C17   H5    1.084545 S    
C16   C17   1.396258 A    
Zn2   O8    1.987692 S    
C27   H12   1.111443 S    
C2    C11   1.440169 S    
N6    O15   1.300592 A    
N3    O9    1.302270 A    
C21   H6    1.112164 S    
C18   C19   1.413106 A    
C3    C19   1.399727 S    
C5    N4    1.442925 S    
C25   H10   1.081770 S    
C8    H3    1.081309 S    
Zn1   O7    1.983249 S    
C24   C25   1.419924 A    
N6    O16   1.301483 A    
H4    C13   1.083156 S    
C28   H14   1.111948 S    
C7    N5    1.439229 S    
O3    Zn1   1.987692 S    
O4    C2    1.295266 A    
O3    C2    1.283108 A    
C21   C22   1.523168 S    
C6    C7    1.400902 A    
C23   C26   1.404292 A    
Zn2   N1    2.010355 S    
O6    C3    1.277160 A    
C6    H2    1.082599 S    
C5    C10   1.423906 A    
O2    C1    1.275658 A    
N3    O10   1.300180 A    
C24   H9    1.081899 S    
N5    O13   1.301148 A    
C19   C20   1.388352 A    
O7    C4    1.283422 A    
H1    C12   1.083881 S    
C28   H13   1.112193 S    
C12   C13   1.369569 A    
N1    C24   1.368865 A    
C8    C9    1.413805 A    
N4    O12   1.301496 A    
C22   H8    1.110131 S    
C22   N3    1.463822 S    
N2    C26   1.362894 A    
C18   N6    1.440315 S    
C23   C28   1.489852 S    
C11   C12   1.394567 A    
Zn2   O6    1.981925 S    
C27   C28   1.518252 S    
C25   N2    1.368573 A    
C15   C22   1.495457 S    
C13   C14   1.398941 A    
Zn1   O5    1.979147 S    
C27   H11   1.111455 S    
O5    C3    1.278904 A    
C9    C10   1.392202 A    
C26   C27   1.489306 S    
C9    C14   1.416220 A    
C4    C14   1.435554 S    
N4    O11   1.301491 A    
O1    Zn1   1.981924 S    
C21   H7    1.112007 S    
N5    O14   1.301721 A    
O2    Zn2   1.979147 S    
C7    C8    1.402348 A    
O8    C4    1.291869 A    
C5    C6    1.404534 A    
O1    C1    1.280396 A    
C20   C21   1.495395 S    
Zn1   N2    2.009691 S    
