data_mof_unit_38215.cif
_audit_creation_date              2012-12-10T19:24:58-0500
_audit_creation_method            fapswitch 2.2
_symmetry_space_group_name_H-M    P1
_symmetry_Int_Tables_number       1
_space_group_crystal_system       triclinic
_cell_length_a                    15.732968
_cell_length_b                    10.506439
_cell_length_c                    9.779382
_cell_angle_alpha                 90.263558
_cell_angle_beta                  89.919568
_cell_angle_gamma                 89.964937
_cell_volume                      1616.48808471

loop_
_atom_site_label
_atom_site_type_symbol
_atom_type_description
_atom_site_fract_x
_atom_site_fract_y
_atom_site_fract_z
_atom_type_partial_charge
C1    C     C_R   0.500734 0.257765 0.499603 0.917181
C2    C     C_R   0.499266 0.742235 0.500397 0.917180
C3    C     C_3   0.568390 0.955342 0.431632 -0.254450
C4    C     C_3   0.431610 0.044658 0.568368 -0.254451
C5    C     C_3   0.498620 0.877068 0.501069 0.011855
C6    C     C_3   0.501380 0.122932 0.498931 0.011855
C7    C     C_3   0.501973 0.959540 0.630828 -0.231232
C8    C     C_3   0.498026 0.040460 0.369172 -0.231231
C9    C     C_3   0.440964 0.428714 0.047424 0.050427
C10   C     C_3   0.559036 0.571286 0.952576 0.050428
C11   C     C_3   0.511936 0.386064 0.950631 -0.173959
C12   C     C_3   0.488064 0.613935 0.049369 -0.173956
C13   C     C_3   0.428138 0.541708 0.951583 -0.039397
C14   C     C_3   0.571861 0.458292 0.048417 -0.039395
C15   C     C_R   0.338218 0.499978 0.500056 0.921285
C16   C     C_R   0.661782 0.500022 0.499943 0.921286
C17   C     C_3   0.970555 0.388315 0.549940 -0.321265
C18   C     C_3   0.029444 0.611685 0.450060 -0.321265
C19   C     C_3   0.027791 0.404022 0.422156 -0.036277
C20   C     C_3   0.972209 0.595978 0.577843 -0.036277
C21   C     C_1   0.249488 0.499937 0.500288 -0.071338
C22   C     C_1   0.750512 0.500063 0.499712 -0.071338
C23   C     C_3   0.027203 0.484672 0.628033 -0.034773
C24   C     C_3   0.972797 0.515328 0.371967 -0.034773
C25   C     C_3   0.083509 0.498965 0.500875 0.146704
C26   C     C_3   0.916491 0.501035 0.499125 0.146704
C27   C     C_1   0.174313 0.499658 0.500612 0.100710
C28   C     C_1   0.825687 0.500342 0.499388 0.100710
C29   C     C_3   0.570826 0.039831 0.560429 0.041733
C30   C     C_3   0.429174 0.960168 0.439571 0.041733
N1    N     N_3   0.499940 0.500030 0.863290 -0.114385
N2    N     N_3   0.500060 0.499970 0.136710 -0.114384
O1    O     O_R   0.500000 0.313960 0.616610 -0.595175
O2    O     O_R   0.500000 0.686040 0.383390 -0.595174
O3    O     O_R   0.500040 0.313950 0.383350 -0.661431
O4    O     O_R   0.499960 0.686050 0.616650 -0.661431
O5    O     O_R   0.376760 0.499990 0.616610 -0.619695
O6    O     O_R   0.623240 0.500010 0.383390 -0.619694
O7    O     O_R   0.376790 0.499980 0.383350 -0.582170
O8    O     O_R   0.623210 0.500020 0.616650 -0.582172
Zn1   Zn    Zn3+2 0.499980 0.500010 0.655740 0.984777
Zn2   Zn    Zn3+2 0.500020 0.499990 0.344260 0.984779
C31   C     C_2   0.056816 0.295177 0.334164 0.406905
H1    H     H_    0.010077 0.235123 0.284239 0.070304
O9    O     O_2   0.132373 0.273538 0.318059 -0.539886
C32   C     C_2   0.943184 0.704822 0.665836 0.406905
H2    H     H_    0.989923 0.764876 0.715761 0.070304
O10   O     O_2   0.867627 0.726462 0.681941 -0.539886
H3    H     H_    0.945524 0.297208 0.590622 0.170917
H4    H     H_    0.054476 0.702791 0.409378 0.170917
C33   C     C_2   0.944564 0.532861 0.226945 0.396745
H5    H     H_    0.991735 0.541484 0.146541 0.082072
O11   O     O_2   0.869160 0.537404 0.198441 -0.537130
C34   C     C_2   0.055436 0.467139 0.773054 0.396745
H6    H     H_    0.008265 0.458516 0.853459 0.082072
O12   O     O_2   0.130840 0.462596 0.801558 -0.537131
H7    H     H_    0.624170 0.915100 0.376737 0.158292
H8    H     H_    0.375829 0.084900 0.623263 0.158292
C35   C     C_2   0.651548 0.081317 0.628378 0.360867
H9    H     H_    0.694218 0.010238 0.669899 0.091873
O13   O     O_2   0.669928 0.193825 0.637220 -0.568268
C36   C     C_2   0.348452 0.918683 0.371622 0.360866
H10   H     H_    0.305781 0.989762 0.330102 0.091873
O14   O     O_2   0.330072 0.806175 0.362778 -0.568268
H11   H     H_    0.503840 0.923706 0.737437 0.144809
H12   H     H_    0.496160 0.076294 0.262563 0.144809
H13   H     H_    0.521388 0.290290 0.904578 0.155921
H14   H     H_    0.478612 0.709710 0.095422 0.155921
C37   C     C_2   0.373752 0.344800 0.106704 0.469770
H15   H     H_    0.391645 0.263719 0.168539 0.038080
O15   O     O_2   0.298787 0.366952 0.085658 -0.512465
C38   C     C_2   0.626248 0.655200 0.893296 0.469766
H16   H     H_    0.608354 0.736279 0.831458 0.038082
O16   O     O_2   0.701213 0.633050 0.914347 -0.512464
H17   H     H_    0.367732 0.576077 0.906208 0.172063
H18   H     H_    0.632268 0.423923 0.093792 0.172063

loop_
_geom_bond_atom_site_label_1
_geom_bond_atom_site_label_2
_ccdc_geom_bond_type
C8    H12   S    
C7    C29   S    
O2    Zn2   S    
C1    O1    A    
C12   H14   S    
C1    O3    A    
C17   C23   S    
C18   C24   S    
C17   C26   S    
C24   C26   S    
O6    Zn2   S    
C11   C14   S    
C37   O15   D    
C3    C29   S    
O3    Zn2   S    
C9    C13   S    
C15   O5    A    
C36   O14   D    
C9    N2    S    
C32   H2    S    
C10   N1    S    
C29   C35   S    
C11   H13   S    
C2    O2    A    
C24   C33   S    
C21   C27   T    
C11   N1    S    
C35   H9    S    
C22   C28   T    
C12   N2    S    
O4    Zn1   S    
C18   C25   S    
C4    C7    S    
C19   C31   S    
O7    Zn2   S    
C32   O10   D    
C34   O12   D    
C35   O13   D    
C33   H5    S    
C13   H17   S    
C38   O16   D    
C3    C8    S    
C10   C14   S    
C17   H3    S    
C5    C7    S    
C6    C8    S    
C1    C6    S    
C33   O11   D    
C14   H18   S    
C31   H1    S    
C36   H10   S    
C7    H11   S    
C9    C11   S    
C20   C23   S    
C31   O9    D    
C15   O7    A    
C10   C12   S    
C16   O8    A    
C3    H7    S    
C4    C6    S    
O8    Zn1   S    
C30   C36   S    
C2    C5    S    
C18   H4    S    
C23   C34   S    
C5    C30   S    
C2    O4    A    
C34   H6    S    
C16   C22   S    
N1    Zn1   S    
C13   N1    S    
C9    C37   S    
C38   H16   S    
C3    C5    S    
C25   C27   S    
C26   C28   S    
C8    C30   S    
C19   C24   S    
O1    Zn1   S    
C20   C26   S    
C17   C19   S    
C18   C20   S    
C23   C25   S    
O5    Zn1   S    
C37   H15   S    
C19   C25   S    
C4    C30   S    
C15   C21   S    
C6    C29   S    
C14   N2    S    
C12   C13   S    
C4    H8    S    
N2    Zn2   S    
C20   C32   S    
C16   O6    A    
C10   C38   S    
