data_mof_unit_8757.cif
_audit_creation_date              2012-12-10T17:59:15-0500
_audit_creation_method            fapswitch 2.2
_symmetry_space_group_name_H-M    P1
_symmetry_Int_Tables_number       1
_space_group_crystal_system       triclinic
_cell_length_a                    10.888717
_cell_length_b                    9.614583
_cell_length_c                    10.812163
_cell_angle_alpha                 89.921402
_cell_angle_beta                  94.421535
_cell_angle_gamma                 89.347239
_cell_volume                      1128.48554856

loop_
_atom_site_label
_atom_site_type_symbol
_atom_type_description
_atom_site_fract_x
_atom_site_fract_y
_atom_site_fract_z
_atom_type_partial_charge
C1    C     C_R   0.262672 0.500903 0.506441 0.762500
C2    C     C_3   0.627420 0.541572 0.945374 -0.070017
C3    C     C_R   0.065416 0.377574 0.536706 -0.025770
C4    C     C_R   0.058862 0.628377 0.500409 -0.036852
C5    C     C_R   0.937773 0.375794 0.523464 -0.172122
C6    C     C_R   0.931565 0.624608 0.491424 -0.168035
C7    C     C_R   0.870671 0.498962 0.501612 -0.062652
C8    C     C_R   0.128282 0.502755 0.515529 -0.131423
C9    C     C_R   0.415121 0.075561 0.424821 0.079546
C10   C     C_R   0.421137 0.926816 0.418530 0.098386
C11   C     C_R   0.585179 0.924843 0.573619 0.039360
C12   C     C_R   0.586291 0.073118 0.572023 0.027938
C13   C     C_R   0.491794 0.499828 0.260332 0.762797
C14   C     C_R   0.737245 0.499348 0.499270 0.813570
C15   C     C_R   0.496734 0.500045 0.740153 0.711620
C16   C     C_3   0.410043 0.620190 0.065797 -0.378759
C17   C     C_3   0.436043 0.360710 0.068620 -0.418110
C18   C     C_3   0.390958 0.601343 0.923718 -0.219707
C19   C     C_3   0.457359 0.352117 0.928804 -0.171004
C20   C     C_3   0.624366 0.511723 0.087564 -0.306800
C21   C     C_3   0.490031 0.498481 0.123261 0.026336
C22   C     C_3   0.495943 0.500432 0.879707 -0.097113
Cu1   Cu    Cu3+1 0.500020 0.640660 0.500000 0.957532
Cu2   Cu    Cu3+1 0.500020 0.359340 0.500000 0.954986
H1    H     H_    0.457343 0.719927 0.088885 0.224744
H2    H     H_    0.476854 0.268566 0.120002 0.195866
H3    H     H_    0.318761 0.623725 0.105632 0.172890
H4    H     H_    0.335427 0.357940 0.080608 0.173307
H5    H     H_    0.300525 0.549960 0.903140 0.154262
H6    H     H_    0.369059 0.321205 0.877966 0.150415
H7    H     H_    0.672748 0.593629 0.144775 0.191801
H8    H     H_    0.673355 0.412963 0.115022 0.204135
H9    H     H_    0.891143 0.278360 0.534061 0.172087
H10   H     H_    0.879856 0.721322 0.478285 0.169471
N1    N     N_R   0.500030 0.852070 0.500030 -0.235584
N2    N     N_R   0.500030 0.147930 0.500030 -0.241802
O1    O     O_R   0.319660 0.618740 0.499990 -0.603316
O2    O     O_R   0.319660 0.381260 0.499990 -0.597859
O3    O     O_R   0.499990 0.618790 0.317690 -0.601800
O4    O     O_R   0.499990 0.381210 0.317690 -0.613336
O5    O     O_R   0.680370 0.618830 0.500010 -0.583910
O6    O     O_R   0.680370 0.381170 0.500010 -0.583796
O7    O     O_R   0.500030 0.618780 0.682310 -0.582884
O8    O     O_R   0.500030 0.381220 0.682310 -0.575787
C23   C     C_1   0.683621 0.851648 0.644077 0.283992
N3    N     N_1   0.765003 0.795526 0.699275 -0.270722
C24   C     C_1   0.682133 0.144690 0.645021 0.317966
N4    N     N_1   0.760229 0.199584 0.704217 -0.263516
C25   C     C_1   0.373889 0.738458 0.862515 0.293256
N5    N     N_1   0.359759 0.845939 0.814782 -0.228596
C26   C     C_1   0.544778 0.236494 0.912123 0.330610
N6    N     N_1   0.611474 0.143074 0.904000 -0.223185
C27   C     C_2   0.657011 0.694375 0.928980 0.353895
H11   H     H_    0.602022 0.760154 0.865425 0.111198
O9    O     O_2   0.748377 0.744983 0.983437 -0.494729
C28   C     C_2   0.732004 0.462908 0.889053 0.454600
H12   H     H_    0.742666 0.472736 0.790433 0.058134
O10   O     O_2   0.807407 0.392530 0.951839 -0.506442
C29   C     C_1   0.127387 0.253197 0.585604 0.335567
N7    N     N_1   0.177017 0.154445 0.626441 -0.218630
C30   C     C_1   0.112394 0.764861 0.503924 0.289679
N8    N     N_1   0.153752 0.875040 0.508432 -0.211315
C31   C     C_2   0.313828 0.150718 0.351455 0.476897
H13   H     H_    0.328059 0.247910 0.306230 0.092081
O11   O     O_2   0.209827 0.103771 0.341311 -0.528241
C32   C     C_2   0.351312 0.855140 0.314183 0.447294
H14   H     H_    0.308934 0.756092 0.325576 0.106596
O12   O     O_2   0.341905 0.907011 0.210649 -0.571500

loop_
_geom_bond_atom_site_label_1
_geom_bond_atom_site_label_2
_ccdc_geom_bond_type
C2    C22   S    
C9    N2    A    
Cu2   O2    S    
C11   C12   A    
C31   O11   D    
C16   C21   S    
C1    O1    A    
C12   N2    A    
C1    C8    S    
Cu2   O6    S    
C9    C10   A    
C32   O12   D    
C24   N4    T    
Cu1   O5    S    
C12   C24   S    
C14   O6    A    
Cu2   N2    S    
Cu1   Cu2   S    
C6    H10   S    
C16   H3    S    
C10   C32   S    
C32   H14   S    
C13   C21   S    
C29   N7    T    
C18   H5    S    
C18   C22   S    
C27   H11   S    
C20   C21   S    
C19   H6    S    
C6    C7    A    
C1    O2    A    
C14   O5    A    
Cu1   O3    S    
C17   H2    S    
C11   N1    A    
C17   C19   S    
Cu1   O1    S    
C28   O10   D    
C15   O8    A    
C3    C8    A    
C19   C26   S    
Cu1   N1    S    
C27   O9    D    
C30   N8    T    
Cu2   O8    S    
C10   N1    A    
C17   C21   S    
C13   O3    A    
C4    C6    A    
C11   C23   S    
C2    C20   S    
C26   N6    T    
C23   N3    T    
C19   C22   S    
Cu1   O7    S    
C28   H12   S    
C15   O7    A    
C16   C18   S    
C25   N5    T    
C20   H8    S    
C16   H1    S    
C5    C7    A    
Cu2   O4    S    
C13   O4    A    
C2    C28   S    
C4    C8    A    
C9    C31   S    
C17   H4    S    
C4    C30   S    
C20   H7    S    
C15   C22   S    
C7    C14   S    
C31   H13   S    
C18   C25   S    
C5    H9    S    
C3    C5    A    
C2    C27   S    
C3    C29   S    
