data_mof_unit_37851.cif
_audit_creation_date              2012-12-10T20:28:43-0500
_audit_creation_method            fapswitch 2.2
_symmetry_space_group_name_H-M    P1
_symmetry_Int_Tables_number       1
_space_group_crystal_system       triclinic
_cell_length_a                    10.648925
_cell_length_b                    10.667842
_cell_length_c                    9.861166
_cell_angle_alpha                 90.021849
_cell_angle_beta                  89.738298
_cell_angle_gamma                 89.198923
_cell_volume                      1120.1175196

loop_
_atom_site_label
_atom_site_type_symbol
_atom_type_description
_atom_site_fract_x
_atom_site_fract_y
_atom_site_fract_z
_atom_type_partial_charge
C1    C     C_R   0.502233 0.259786 0.499843 0.961478
C2    C     C_R   0.523124 0.934891 0.373243 -0.195255
C3    C     C_R   0.525799 0.870798 0.497425 -0.066763
C4    C     C_R   0.260720 0.505315 0.500252 0.908790
C5    C     C_R   0.553357 0.935328 0.616212 0.066716
C6    C     C_3   0.499766 0.927579 0.756250 -0.420453
C7    C     C_3   0.495009 0.070032 0.755922 -0.429453
C8    C     C_R   0.441147 0.407134 0.071611 0.134268
C9    C     C_R   0.567926 0.584524 0.071669 -0.095831
C10   C     C_R   0.568144 0.584364 0.927654 -0.091830
C11   C     C_R   0.440457 0.407617 0.928868 0.126333
C12   C     C_R   0.061781 0.617562 0.542679 0.026623
C13   C     C_3   0.304056 0.377861 0.922710 -0.536291
C14   C     C_3   0.304294 0.377474 0.077223 0.241877
C15   C     C_R   0.504187 0.739980 0.499767 0.851358
C16   C     C_R   0.739696 0.496568 0.499565 0.966734
C17   C     C_R   0.122207 0.728864 0.582949 -0.254245
C18   C     C_R   0.051898 0.835001 0.621687 0.555322
C19   C     C_R   0.921126 0.830274 0.622348 -0.213859
C20   C     C_R   0.860815 0.721513 0.582294 -0.240362
C21   C     C_R   0.930417 0.613767 0.541745 0.055427
C22   C     C_R   0.128652 0.509878 0.500145 -0.159791
C23   C     C_R   0.070235 0.402649 0.454350 -0.226689
C24   C     C_R   0.941576 0.397117 0.452794 0.436430
C25   C     C_R   0.872282 0.502373 0.498356 -0.230589
C26   C     C_R   0.549795 0.063155 0.616443 0.158119
C27   C     C_R   0.521028 0.127983 0.497732 -0.045896
C28   C     C_R   0.520787 0.064087 0.373418 -0.127635
H1    H     H_    0.126365 0.322144 0.422514 0.222027
H2    H     H_    0.223610 0.734502 0.583281 0.161545
H3    H     H_    0.865258 0.910884 0.653445 0.176407
H4    H     H_    0.759475 0.723456 0.582606 0.153476
H5    H     H_    0.509345 0.112545 0.277645 0.181491
H6    H     H_    0.512383 0.886613 0.277395 0.172572
H7    H     H_    0.405940 0.883578 0.758873 0.268848
H8    H     H_    0.339842 0.196642 0.093249 0.334562
H9    H     H_    0.196209 0.042644 0.861873 0.380296
H10   H     H_    0.799103 0.102412 0.525143 0.376022
H11   H     H_    0.568674 0.888319 0.829721 0.185005
H12   H     H_    0.398145 0.109894 0.757129 0.229139
H13   H     H_    0.560547 0.112615 0.829680 0.208146
H14   H     H_    0.620768 0.654332 0.125786 0.148138
H15   H     H_    0.621409 0.653800 0.873026 0.141851
H16   H     H_    0.246845 0.455921 0.879332 0.213204
H17   H     H_    0.287252 0.284761 0.876164 0.213333
H18   H     H_    0.245546 0.453190 0.123594 0.165481
N1    N     N_R   0.499160 0.499140 0.142800 -0.120017
N2    N     N_R   0.499160 0.499180 0.857150 -0.095569
O1    O     O_R   0.500020 0.316790 0.614690 -0.615683
O2    O     O_2   0.237717 0.995537 0.577551 -0.331224
O3    O     O_2   0.038506 0.083547 0.662854 -0.265451
O4    O     O_3   0.178507 0.956533 0.830427 -0.579507
O5    O     O_2   0.777234 0.275524 0.293820 -0.291860
O6    O     O_2   0.970014 0.162030 0.354672 -0.249119
O7    O     O_3   0.799408 0.194028 0.541018 -0.568493
O8    O     O_R   0.500000 0.316760 0.385350 -0.590773
O9    O     O_R   0.316770 0.500020 0.614690 -0.616514
O10   O     O_R   0.316760 0.499980 0.385350 -0.616828
O11   O     O_R   0.500000 0.683240 0.614650 -0.639316
O12   O     O_R   0.499980 0.683210 0.385310 -0.636186
O13   O     O_R   0.683240 0.500020 0.614650 -0.610743
O14   O     O_R   0.683230 0.499980 0.385310 -0.587046
O15   O     O_3   0.280685 0.259005 0.134132 -0.700561
S1    S     S_3+6 0.127827 0.973421 0.670139 0.000809
S2    S     S_3+6 0.871650 0.253875 0.404399 0.047554
Zn1   Zn    Zn3+2 0.500010 0.500020 0.653130 0.974986
Zn2   Zn    Zn3+2 0.499990 0.499980 0.346870 1.005465

loop_
_geom_bond_atom_site_label_1
_geom_bond_atom_site_label_2
_ccdc_geom_bond_type
C4    O9    A    
C12   C17   A    
C2    C28   A    
C23   C24   A    
C9    N1    A    
C6    C7    S    
O3    S1    D    
H8    O15   S    
O2    S1    D    
C15   O12   A    
C19   C20   A    
O9    Zn1   S    
C7    H12   S    
C19   H3    S    
O5    S2    D    
C2    H6    S    
C2    C3    A    
C9    H14   S    
C8    N1    A    
C14   H18   S    
O6    S2    D    
C13   C14   S    
C24   C25   A    
C13   H17   S    
C17   H2    S    
C11   C13   S    
C18   S1    S    
C11   N2    A    
C7    C26   S    
C16   O14   A    
O14   Zn2   S    
C8    C11   A    
C14   O15   S    
C23   H1    S    
C9    C10   A    
N1    Zn2   S    
O7    S2    S    
C1    O8    A    
C20   H4    S    
C28   H5    S    
C17   C18   A    
C10   N2    A    
C7    H13   S    
O11   Zn1   S    
C26   C27   A    
C5    C6    S    
C16   O13   A    
O13   Zn1   S    
C5    C26   A    
O8    Zn2   S    
C12   C22   A    
O10   Zn2   S    
C27   C28   A    
C3    C15   S    
C20   C21   A    
C21   C25   A    
C18   C19   A    
O4    S1    S    
C4    O10   A    
C16   C25   S    
C1    C27   S    
H9    O4    S    
C24   S2    S    
C6    H11   S    
C8    C14   S    
C3    C5    A    
N2    Zn1   S    
C10   H15   S    
C22   C23   A    
C15   O11   A    
C12   C21   A    
C13   H16   S    
C6    H7    S    
H10   O7    S    
O12   Zn2   S    
O1    Zn1   S    
C4    C22   S    
C1    O1    A    
