data_mof_unit_22987.cif
_audit_creation_date              2013-03-05T15:52:26-0500
_audit_creation_method            fapswitch 2.2
_symmetry_space_group_name_H-M    P1
_symmetry_Int_Tables_number       1
_space_group_crystal_system       triclinic
_cell_length_a                    27.528116
_cell_length_b                    10.895983
_cell_length_c                    9.741724
_cell_angle_alpha                 91.687492
_cell_angle_beta                  89.893416
_cell_angle_gamma                 96.535842
_cell_volume                      2901.73728486

loop_
_atom_site_label
_atom_site_type_symbol
_atom_site_description
_atom_site_fract_x
_atom_site_fract_y
_atom_site_fract_z
_atom_type_partial_charge
O1    O     O_R   0.500000 0.319640 0.618810 -0.546287
O2    O     O_R   0.500000 0.319660 0.381240 -0.556228
C1    C     C_R   0.502923 0.263956 0.498956 0.828917
O3    O     O_R   0.430260 0.500010 0.618770 -0.581035
O4    O     O_R   0.430270 0.500030 0.381200 -0.544249
C2    C     C_R   0.407317 0.497079 0.499597 0.840477
Cu1   Cu    Cu3+1 0.500000 0.499990 0.640660 1.021345
Cu2   Cu    Cu3+1 0.500000 0.500010 0.359340 1.035233
O5    O     O_R   0.500000 0.680340 0.618760 -0.578372
O6    O     O_R   0.500000 0.680360 0.381190 -0.464836
O7    O     O_R   0.569730 0.499970 0.618800 -0.481773
O8    O     O_R   0.569740 0.499990 0.381230 -0.550645
C3    C     C_R   0.497095 0.736994 0.502204 0.825239
C4    C     C_R   0.592680 0.501469 0.499975 0.938874
C5    C     C_R   0.168377 0.366739 0.430382 0.603199
O9    O     O_2   0.185946 0.258143 0.451042 -0.499519
N1    N     N_R   0.199918 0.473423 0.434757 -0.429019
C6    C     C_R   0.183907 0.585756 0.414521 0.620924
C7    C     C_R   0.272740 0.518238 0.582968 0.303955
C8    C     C_R   0.324263 0.532095 0.598388 0.346247
C9    C     C_R   0.330632 0.428919 0.375166 -0.395289
C10   C     C_R   0.279873 0.418366 0.357602 0.448150
C11   C     C_R   0.251200 0.468285 0.459299 0.134471
C12   C     C_R   0.100621 0.486779 0.391837 -0.136465
C13   C     C_R   0.117897 0.370431 0.406069 -0.078008
C14   C     C_R   0.084416 0.262161 0.397042 0.449358
C15   C     C_R   0.134090 0.594753 0.394223 -0.027585
C16   C     C_R   0.353236 0.485091 0.493787 -0.227565
H1    H     H_    0.352757 0.394435 0.294037 0.217283
C17   C     C_R   0.646638 0.505489 0.497882 -0.215020
C18   C     C_R   0.966590 0.397637 0.337348 0.101767
C19   C     C_R   0.981489 0.622644 0.382277 -0.159047
C20   C     C_R   0.948720 0.513981 0.358327 0.020363
C21   C     C_R   0.933521 0.295494 0.292901 -0.193628
C22   C     C_R   0.883846 0.305437 0.280316 -0.149488
C23   C     C_R   0.865332 0.416090 0.316695 -0.027528
C24   C     C_R   0.897623 0.520849 0.355519 -0.103612
C25   C     C_R   0.878544 0.633306 0.384199 -0.234459
C26   C     C_R   0.827266 0.634036 0.378682 0.656957
N2    N     N_R   0.797001 0.524665 0.380837 -0.441870
C27   C     C_R   0.814804 0.423777 0.319259 0.589796
C28   C     C_R   0.718976 0.400852 0.459141 0.495889
C29   C     C_R   0.668181 0.396881 0.474069 -0.435497
C30   C     C_R   0.677392 0.615215 0.527943 0.289933
C31   C     C_R   0.728751 0.617739 0.509320 0.308781
C32   C     C_R   0.747560 0.516209 0.441306 0.093000
O10   O     O_2   0.784394 0.333650 0.256531 -0.502816
C33   C     C_R   0.016766 0.387319 0.361297 -0.004971
C34   C     C_R   0.049899 0.495854 0.375742 0.073168
C35   C     C_R   0.032718 0.613886 0.373890 0.078426
C36   C     C_R   0.034640 0.271823 0.373992 -0.321048
H2    H     H_    0.646064 0.308671 0.476182 0.193439
H3    H     H_    0.859730 0.224336 0.247599 0.197174
H4    H     H_    0.945352 0.207322 0.263746 0.157446
H5    H     H_    0.010035 0.187345 0.372479 0.154697
O11   O     O_2   0.216239 0.688688 0.414393 -0.535119
C37   C     C_R   0.117291 0.709250 0.373791 -0.175097
H6    H     H_    0.142527 0.792788 0.367646 0.196964
C38   C     C_R   0.961603 0.734227 0.420208 0.395698
C39   C     C_R   0.910926 0.739811 0.419280 0.362602
O12   O     O_2   0.808424 0.740973 0.358599 -0.467990
C40   C     C_R   0.067577 0.718451 0.361806 -0.173360
H7    H     H_    0.057415 0.808226 0.338523 0.199695
H8    H     H_    0.477441 0.105097 0.293106 0.186067
C41   C     C_R   0.542948 0.134378 0.735545 0.508754
C42   C     C_R   0.532547 0.086312 0.866063 -0.207311
H9    H     H_    0.544971 0.138210 0.957793 0.138325
C43   C     C_R   0.504473 0.972847 0.878407 -0.226121
H10   H     H_    0.494446 0.938466 0.978507 0.148880
C44   C     C_R   0.491629 0.899541 0.761924 -0.153293
H11   H     H_    0.470373 0.811654 0.777698 0.181396
C45   C     C_R   0.502208 0.944743 0.629713 -0.041381
C46   C     C_R   0.518613 0.071601 0.619734 0.006886
C47   C     C_R   0.506352 0.130805 0.498786 -0.148765
C48   C     C_R   0.488074 0.059975 0.384180 -0.348308
C49   C     C_R   0.483011 0.930950 0.385268 0.389483
C50   C     C_R   0.493062 0.871743 0.507123 -0.160044
C51   C     C_R   0.561584 0.690801 0.145946 0.415279
C52   C     C_R   0.582208 0.794490 0.078415 0.314906
C53   C     C_R   0.580682 0.795384 0.940461 -0.388667
H12   H     H_    0.602059 0.871161 0.890828 0.180436
C54   C     C_R   0.558951 0.694322 0.864867 0.409522
C55   C     C_R   0.528846 0.594328 0.928176 -0.005966
C56   C     C_R   0.529185 0.593844 0.077417 -0.062284
N3    N     N_R   0.500460 0.501210 0.147910 -0.193161
C57   C     C_R   0.472788 0.411503 0.073195 0.471249
C58   C     C_R   0.472513 0.411319 0.925345 0.374768
N4    N     N_R   0.500480 0.501290 0.852040 -0.216366
O13   O     O_3   0.243284 0.562480 0.683629 -0.598009
C59   C     C_3   0.227443 0.465903 0.772179 0.050535
H13   H     H_    0.258781 0.442954 0.834815 0.164315
H14   H     H_    0.211275 0.381497 0.713712 0.158907
C60   C     C_3   0.188278 0.509010 0.867931 -0.318156
H15   H     H_    0.204376 0.589954 0.931454 0.235233
H16   H     H_    0.158031 0.538102 0.805445 0.225564
C61   C     C_3   0.167418 0.406792 0.962372 -0.882211
H17   H     H_    0.149928 0.326155 0.900983 0.254823
H18   H     H_    0.139465 0.441814 0.030996 0.260161
H19   H     H_    0.196804 0.376838 0.026840 0.289370
O14   O     O_3   0.990805 0.838018 0.468939 -0.603997
C62   C     C_3   0.998360 0.827361 0.611326 0.055975
H20   H     H_    0.014086 0.740127 0.633591 0.138688
H21   H     H_    0.963211 0.829195 0.667850 0.165607
C63   C     C_3   0.034285 0.936364 0.662242 -0.312204
H22   H     H_    0.069591 0.934642 0.607014 0.237086
H23   H     H_    0.019419 0.024367 0.639880 0.234244
C64   C     C_3   0.043441 0.931343 0.816311 -0.893308
H24   H     H_    0.008751 0.935013 0.873936 0.257869
H25   H     H_    0.069666 0.011647 0.849749 0.264215
H26   H     H_    0.059211 0.845082 0.840607 0.256473
O15   O     O_3   0.658469 0.711398 0.596844 -0.605419
C65   C     C_3   0.659282 0.815399 0.513388 0.056150
H27   H     H_    0.621956 0.817031 0.471324 0.177468
H28   H     H_    0.685609 0.816397 0.425883 0.173460
C66   C     C_3   0.672027 0.932114 0.602724 -0.364922
H29   H     H_    0.650737 0.926237 0.699481 0.215632
H30   H     H_    0.711490 0.942295 0.629611 0.227303
C67   C     C_3   0.660663 0.045904 0.528551 -0.888985
H31   H     H_    0.682969 0.056681 0.434025 0.297290
H32   H     H_    0.669844 0.127704 0.596054 0.243683
H33   H     H_    0.621123 0.040234 0.504822 0.241572
O16   O     O_3   0.894646 0.849647 0.462745 -0.671745
H34   H     H_    0.866361 0.829777 0.524406 0.356632
O17   O     O_3   0.760876 0.707611 0.574239 -0.708995
H35   H     H_    0.743421 0.752340 0.645118 0.352041
O18   O     O_3   0.572993 0.245373 0.719829 -0.589372
C68   C     C_3   0.617365 0.251325 0.794976 0.037116
H36   H     H_    0.647507 0.282509 0.724821 0.161977
H37   H     H_    0.625908 0.159636 0.829978 0.083725
C69   C     C_3   0.618290 0.344608 0.917010 -0.363863
H38   H     H_    0.580566 0.356368 0.951445 0.227637
H39   H     H_    0.638008 0.308499 0.002832 0.195260
C70   C     C_3   0.646126 0.470350 0.887118 -0.753066
H40   H     H_    0.685164 0.460762 0.865481 0.226959
H41   H     H_    0.644185 0.533694 0.977908 0.233038
H42   H     H_    0.630340 0.511954 0.798352 0.315349
O19   O     O_3   0.257942 0.371720 0.235731 -0.603099
C71   C     C_3   0.270468 0.251790 0.201417 0.086985
H43   H     H_    0.235905 0.189334 0.187395 0.189767
H44   H     H_    0.291415 0.210179 0.282735 0.145021
C72   C     C_3   0.298575 0.254121 0.065426 -0.365143
H45   H     H_    0.274295 0.277666 0.981657 0.214485
H46   H     H_    0.330596 0.325937 0.071005 0.241845
C73   C     C_3   0.316352 0.129269 0.030536 -0.887623
H47   H     H_    0.341798 0.104942 0.111155 0.257815
H48   H     H_    0.336066 0.133939 0.930905 0.269926
H49   H     H_    0.284858 0.056064 0.021825 0.259264
O20   O     O_3   0.465823 0.861562 0.270722 -0.727365
H50   H     H_    0.457715 0.917487 0.197869 0.304695
O21   O     O_3   0.444581 0.322431 0.145555 -0.724994
H51   H     H_    0.426764 0.260818 0.081907 0.341046
O22   O     O_3   0.578344 0.684457 0.275606 -0.690850
H52   H     H_    0.614679 0.695427 0.272375 0.308387
O23   O     O_3   0.614163 0.883315 0.145286 -0.607976
C74   C     C_3   0.588196 0.977594 0.200078 0.104717
H53   H     H_    0.582400 0.962297 0.311042 0.162446
H54   H     H_    0.551782 0.981619 0.151714 0.135093
C75   C     C_3   0.618678 0.101178 0.179233 -0.366752
H55   H     H_    0.655247 0.101586 0.226595 0.252802
H56   H     H_    0.624207 0.112639 0.067649 0.206665
C76   C     C_3   0.593667 0.207958 0.240186 -0.896601
H57   H     H_    0.558447 0.214798 0.187389 0.260817
H58   H     H_    0.617476 0.296284 0.229624 0.266254
H59   H     H_    0.586881 0.193691 0.350709 0.253651
O24   O     O_3   0.574301 0.689485 0.732883 -0.636402
H60   H     H_    0.581809 0.774290 0.698134 0.326361
O25   O     O_3   0.443296 0.316990 0.859112 -0.762576
H61   H     H_    0.435204 0.343885 0.767723 0.377998
O26   O     O_3   0.100684 0.147541 0.410179 -0.688720
H62   H     H_    0.072898 0.081780 0.397933 0.317663
O27   O     O_3   0.740593 0.293969 0.479247 -0.561095
C77   C     C_3   0.754792 0.288716 0.619035 0.031771
H63   H     H_    0.749321 0.190390 0.648029 0.178773
H64   H     H_    0.732295 0.339763 0.691529 0.110611
C78   C     C_3   0.809105 0.334212 0.639794 -0.351206
H65   H     H_    0.831320 0.283932 0.566587 0.241938
H66   H     H_    0.815836 0.434608 0.621115 0.217242
C79   C     C_3   0.825523 0.312997 0.785933 -0.864354
H67   H     H_    0.804099 0.363249 0.861278 0.265759
H68   H     H_    0.864833 0.347788 0.798083 0.257189
H69   H     H_    0.820593 0.212825 0.807599 0.261349
O28   O     O_3   0.346696 0.587093 0.715851 -0.590819
C80   C     C_3   0.341402 0.715183 0.725970 0.093187
H70   H     H_    0.358418 0.750788 0.824767 0.163602
H71   H     H_    0.302630 0.733297 0.732268 0.198715
C81   C     C_3   0.367351 0.788376 0.609250 -0.392348
H72   H     H_    0.405040 0.763512 0.599812 0.217269
H73   H     H_    0.348028 0.763992 0.510437 0.231575
C82   C     C_3   0.368937 0.927522 0.636236 -0.857490
H74   H     H_    0.331247 0.954216 0.643884 0.261269
H75   H     H_    0.388055 0.977498 0.550382 0.267608
H76   H     H_    0.388969 0.955562 0.733054 0.260420

loop_
_geom_bond_atom_site_label_1
_geom_bond_atom_site_label_2
_geom_bond_distance
_ccdc_geom_bond_type
C42   C43   1.389643 A    
O27   C77   1.422027 S    
O24   H60   0.992894 S    
C22   H3    1.083451 S    
O26   H62   0.991587 S    
C69   H39   1.103678 S    
O15   C65   1.412106 S    
C12   C15   1.408980 A    
C58   N4    1.389623 A    
C72   H46   1.110356 S    
C63   H23   1.111914 S    
C76   H57   1.109373 S    
C59   H13   1.113151 S    
C71   H43   1.111148 S    
C51   O22   1.351917 S    
Cu1   Cu2   2.740548 S    
C78   H66   1.108846 S    
C31   C32   1.420164 A    
C77   H63   1.109594 S    
Cu1   O7    1.930942 S    
C10   O19   1.389100 S    
C62   H20   1.115366 S    
C55   C56   1.454083 A    
C23   C24   1.407471 A    
Cu2   N3    2.060125 S    
O2    C1    1.319989 A    
C57   O21   1.381469 S    
C25   C26   1.413645 A    
O7    C4    1.317349 A    
C29   H2    1.078329 S    
C5    C13   1.415376 A    
C74   H54   1.114334 S    
C5    O9    1.348774 S    
C61   H19   1.108770 S    
C41   C46   1.429168 A    
C65   C66   1.527137 S    
Cu1   O5    1.982874 S    
C21   C22   1.389906 A    
C28   C32   1.420006 A    
C82   H75   1.110381 S    
C1    C47   1.464513 S    
O5    C3    1.315135 A    
O28   C80   1.420195 S    
C63   H22   1.111765 S    
C75   C76   1.523309 S    
C67   H31   1.107543 S    
H8    C48   1.083501 S    
C33   C36   1.411177 A    
C2    C16   1.480598 S    
C7    C8    1.416944 A    
C14   O26   1.383336 S    
C43   H10   1.079084 S    
C66   H30   1.110384 S    
C61   H18   1.111119 S    
C70   H42   1.100651 S    
C64   H24   1.110889 S    
C18   C20   1.420242 A    
C12   C13   1.414340 A    
C44   H11   1.078808 S    
C77   C78   1.532502 S    
C6    O11   1.350136 S    
C55   N4    1.401854 A    
C38   C39   1.403328 A    
C62   H21   1.114280 S    
C9    C10   1.399326 A    
C74   C75   1.522112 S    
C75   H56   1.106080 S    
C38   O14   1.383259 S    
C64   H25   1.110474 S    
C17   C30   1.407750 A    
C23   C27   1.403059 A    
C4    C17   1.481122 S    
C73   H49   1.110832 S    
C65   H28   1.117351 S    
C65   H27   1.109126 S    
C76   H58   1.108298 S    
C77   H64   1.115943 S    
C79   H67   1.111127 S    
C78   C79   1.526441 S    
C10   C11   1.401233 A    
C31   O17   1.381811 S    
C60   H16   1.112498 S    
C26   O12   1.347717 S    
C3    C50   1.484336 S    
C47   C48   1.399360 A    
C37   C40   1.388901 A    
C56   N3    1.404552 A    
C73   H48   1.110749 S    
C15   C37   1.398633 A    
C72   C73   1.526226 S    
O25   H61   0.979325 S    
C57   C58   1.440288 A    
C53   H12   1.083353 S    
C8    C16   1.412804 A    
O3    Cu1   1.932040 S    
C13   C14   1.412644 A    
N3    C57   1.362390 A    
C9    H1    1.081462 S    
C71   C72   1.532343 S    
C20   C24   1.417440 A    
O1    C1    1.306479 A    
C67   H33   1.107612 S    
C82   H76   1.110686 S    
C7    C11   1.410621 A    
C48   C49   1.397220 A    
C68   H37   1.115110 S    
C80   H70   1.111107 S    
C24   C25   1.407526 A    
C7    O13   1.381904 S    
O4    Cu2   1.930945 S    
C70   H40   1.110671 S    
C59   H14   1.115900 S    
Cu1   N4    2.058895 S    
Cu2   O8    1.932035 S    
C66   C67   1.516272 S    
C61   H17   1.111416 S    
C40   H7    1.078039 S    
N1    C6    1.366958 A    
C27   O10   1.348330 S    
C18   C21   1.413241 A    
C60   H15   1.112243 S    
N1    C11   1.439867 S    
C49   C50   1.410264 A    
C39   O16   1.379839 S    
C19   C35   1.426289 A    
O23   C74   1.408761 S    
C71   H44   1.117139 S    
C81   H72   1.104752 S    
C25   C39   1.414348 A    
O3    C2    1.320488 A    
N2    C27   1.375206 A    
C9    C16   1.404091 A    
O8    C4    1.317763 A    
C21   H4    1.079142 S    
C60   C61   1.526249 S    
C18   C33   1.418820 A    
C75   H55   1.107641 S    
C35   C40   1.411173 A    
C64   H26   1.110972 S    
C17   C29   1.396067 A    
C80   C81   1.536187 S    
C69   C70   1.527347 S    
C28   C29   1.401465 A    
N2    C32   1.476311 S    
C81   H73   1.111220 S    
C68   H36   1.103812 S    
C46   C47   1.419204 A    
C26   N2    1.374811 A    
C76   H59   1.104907 S    
C30   C31   1.422350 A    
C59   C60   1.529339 S    
C8    O28   1.388475 S    
C12   C34   1.420245 A    
C5    N1    1.369088 A    
C33   C34   1.412573 A    
O1    Cu1   1.970343 S    
O2    Cu2   1.982874 S    
C6    C15   1.400767 A    
C45   C46   1.410549 A    
O6    C3    1.320976 A    
C45   C50   1.421915 A    
C79   H68   1.110470 S    
C62   C63   1.527878 S    
C58   O25   1.376335 S    
O19   C71   1.419391 S    
C73   H47   1.110987 S    
C41   O18   1.397455 S    
C81   C82   1.526817 S    
C80   H71   1.108555 S    
C69   H38   1.110769 S    
O16   H34   0.990712 S    
C68   C69   1.539513 S    
C78   H65   1.111007 S    
C72   H45   1.109907 S    
C19   C20   1.418218 A    
C52   O23   1.380599 S    
C51   C52   1.388493 A    
C37   H6    1.083425 S    
O4    C2    1.313560 A    
O18   C68   1.419375 S    
O14   C62   1.413094 S    
C53   C54   1.384438 A    
C42   H9    1.078246 S    
C36   H5    1.078681 S    
O20   H50   0.990886 S    
C41   C42   1.405924 A    
C82   H74   1.110727 S    
C67   H32   1.097964 S    
C79   H69   1.110867 S    
C28   O27   1.385768 S    
C52   C53   1.345006 A    
C30   O15   1.379035 S    
C51   C56   1.450292 A    
O22   H52   0.994309 S    
C49   O20   1.382574 S    
Cu2   O6    1.970344 S    
C34   C35   1.420518 A    
C74   H53   1.107111 S    
C70   H41   1.110740 S    
C43   C44   1.390850 A    
O21   H51   0.988624 S    
C44   C45   1.410506 A    
C22   C23   1.397515 A    
C19   C38   1.427833 A    
C54   C55   1.444426 A    
O13   C59   1.410401 S    
C14   C36   1.405151 A    
C63   C64   1.525975 S    
C66   H29   1.108602 S    
O17   H35   0.988667 S    
C54   O24   1.354084 S    
