data_mof_unit_20597.cif
_audit_creation_date              2012-12-11T18:11:17-0500
_audit_creation_method            fapswitch 2.2
_symmetry_space_group_name_H-M    P1
_symmetry_Int_Tables_number       1
_space_group_crystal_system       triclinic
_cell_length_a                    8.185494
_cell_length_b                    12.669332
_cell_length_c                    18.717469
_cell_angle_alpha                 99.380125
_cell_angle_beta                  91.11867
_cell_angle_gamma                 98.726117
_cell_volume                      1891.01779945

loop_
_atom_site_label
_atom_site_type_symbol
_atom_type_description
_atom_site_fract_x
_atom_site_fract_y
_atom_site_fract_z
_atom_type_partial_charge
Ba1   Ba    Ba6+2 0.852780 0.548340 0.465070 1.638664
Ba2   Ba    Ba6+2 0.337060 0.451750 0.534940 1.642358
C1    C     C_3   0.594176 0.904338 0.256576 -0.387941
C2    C     C_3   0.643364 0.821323 0.299663 0.352079
C3    C     C_3   0.461056 0.274548 0.314301 0.307515
C4    C     C_3   0.443376 0.238984 0.232539 -0.390399
C5    C     C_3   0.021938 0.147494 0.730098 0.367972
C6    C     C_3   0.052702 0.070381 0.782011 -0.346631
C7    C     C_3   0.562113 0.184546 0.707955 0.384506
C8    C     C_3   0.577515 0.093859 0.750700 -0.401368
C9    C     C_R   0.989964 0.451184 0.048949 0.003426
C10   C     C_R   0.897648 0.391319 0.096262 -0.090450
C11   C     C_R   0.759413 0.419553 0.955748 -0.102666
C12   C     C_3   0.146468 0.761064 0.264692 0.314942
C13   C     C_R   0.926110 0.458917 0.978720 0.019620
C14   C     C_R   0.701195 0.420839 0.885680 -0.095356
C15   C     C_R   0.806059 0.461650 0.834991 -0.034450
C16   C     C_R   0.970180 0.510317 0.857835 0.008200
C17   C     C_R   0.030248 0.509806 0.930157 0.027610
C18   C     C_R   0.752738 0.453587 0.761752 -0.016871
C19   C     C_R   0.862834 0.491618 0.712102 -0.299875
C20   C     C_R   0.021001 0.546913 0.733999 0.049500
C21   C     C_R   0.074426 0.558859 0.808248 -0.030555
C22   C     C_R   0.153838 0.500815 0.071889 0.015068
C23   C     C_3   0.151731 0.790141 0.188453 -0.246712
C24   C     C_R   0.214794 0.498358 0.143797 -0.005078
C25   C     C_R   0.112250 0.446689 0.192611 -0.039638
C26   C     C_R   0.958294 0.388148 0.165802 -0.020016
C27   C     C_R   0.228517 0.617514 0.834710 -0.028123
C28   C     C_R   0.287614 0.617226 0.904936 -0.091042
C29   C     C_R   0.194156 0.559480 0.953039 0.011361
C30   C     C_R   0.257483 0.552783 0.023585 0.014006
C31   C     C_R   0.423619 0.593389 0.046900 -0.096539
C32   C     C_R   0.378840 0.546958 0.166681 -0.041465
C33   C     C_R   0.482341 0.590588 0.116587 -0.087262
C34   C     C_3   0.239223 0.786067 0.617698 0.275115
C35   C     C_R   0.434415 0.550818 0.239124 -0.008511
C36   C     C_R   0.326628 0.508739 0.288158 -0.296044
C37   C     C_R   0.167733 0.454827 0.266318 0.038297
C38   C     C_R   0.760087 0.183224 0.532099 -0.267512
C39   C     C_R   0.428538 0.806693 0.468772 -0.286282
C40   C     C_R   0.402060 0.984001 0.443987 -0.108031
C41   C     C_R   0.337664 0.875289 0.439496 -0.012453
C42   C     C_R   0.577400 0.847726 0.508682 0.066240
C43   C     C_R   0.640523 0.960187 0.517350 -0.053898
C44   C     C_R   0.552517 0.028313 0.483110 -0.064060
C45   C     C_3   0.241008 0.907550 0.629804 -0.342501
C46   C     C_R   0.615434 0.139665 0.490332 0.043212
C47   C     C_R   0.851463 0.116953 0.562993 -0.036886
C48   C     C_R   0.789996 0.006622 0.557631 -0.098008
C49   C     C_3   0.962433 0.213562 0.382777 0.282111
C50   C     C_3   0.950626 0.091317 0.367889 -0.335421
C51   C     C_3   0.728888 0.709695 0.683631 0.306457
C52   C     C_3   0.740217 0.747395 0.765309 -0.395975
H1    H     H_    0.739394 0.862002 0.342028 0.080078
H2    H     H_    0.307059 0.945012 0.681943 0.122062
H3    H     H_    0.303663 0.944063 0.585883 0.079497
H4    H     H_    0.112315 0.924638 0.631138 0.123315
H5    H     H_    0.842454 0.235479 0.399818 -0.003406
H6    H     H_    0.057546 0.245707 0.426984 0.087484
H7    H     H_    0.857415 0.057006 0.323419 0.114064
H8    H     H_    0.913157 0.057058 0.416832 0.087706
H9    H     H_    0.072326 0.068808 0.351936 0.139248
H10   H     H_    0.849950 0.689812 0.665699 0.015617
H11   H     H_    0.632355 0.636857 0.670898 0.063673
H12   H     H_    0.544702 0.969048 0.293121 0.088925
H13   H     H_    0.838895 0.818763 0.779717 0.122387
H14   H     H_    0.769551 0.682018 0.793768 0.060789
H15   H     H_    0.620250 0.770046 0.783898 0.120397
H16   H     H_    0.532790 0.788936 0.327223 -0.055126
H17   H     H_    0.498036 0.864412 0.214239 0.116065
H18   H     H_    0.340872 0.294718 0.334025 0.016577
H19   H     H_    0.557531 0.347602 0.326226 0.060577
H20   H     H_    0.345348 0.167082 0.218737 0.134020
H21   H     H_    0.409326 0.305447 0.206191 0.057116
H22   H     H_    0.562371 0.218039 0.211465 0.121986
H23   H     H_    0.702643 0.940799 0.229358 0.170275
H24   H     H_    0.201560 0.877585 0.191718 0.124630
H25   H     H_    0.896107 0.118053 0.705366 -0.032211
H26   H     H_    0.178492 0.094088 0.808438 0.127592
H27   H     H_    0.959972 0.071502 0.824578 0.076511
H28   H     H_    0.040962 0.986326 0.752078 0.107849
H29   H     H_    0.688572 0.218616 0.694014 -0.098701
H30   H     H_    0.487114 0.150609 0.656978 0.073427
H31   H     H_    0.668518 0.123838 0.797010 0.106795
H32   H     H_    0.618961 0.024674 0.715213 0.086019
H33   H     H_    0.066655 0.681561 0.263736 0.062283
H34   H     H_    0.456910 0.065667 0.772695 0.129932
H35   H     H_    0.822370 0.481840 0.655714 0.070384
H36   H     H_    0.572621 0.388355 0.871884 0.109313
H37   H     H_    0.881156 0.339617 0.198303 0.096862
H38   H     H_    0.307125 0.663675 0.801378 0.092480
H39   H     H_    0.610631 0.623509 0.130381 0.114566
H40   H     H_    0.369319 0.514585 0.343941 0.073917
H41   H     H_    0.669049 0.388221 0.991194 0.072544
H42   H     H_    0.778039 0.343661 0.080650 0.061719
H43   H     H_    0.407562 0.664615 0.920068 0.063443
H44   H     H_    0.274145 0.753185 0.281201 -0.074113
H45   H     H_    0.513554 0.626758 0.012078 0.080901
H46   H     H_    0.329449 0.033116 0.418661 0.104432
H47   H     H_    0.862884 0.958526 0.583466 0.095315
H48   H     H_    0.808846 0.268354 0.535737 0.062356
H49   H     H_    0.377951 0.721753 0.464286 0.070613
H50   H     H_    0.236312 0.743023 0.155885 0.005397
H51   H     H_    0.365503 0.768945 0.608425 0.011949
H52   H     H_    0.156651 0.750179 0.569301 0.073915
O1    O     O_2   0.873090 0.425890 0.325140 -0.464000
O2    O     O_3   0.688791 0.793973 0.650386 -0.645436
O3    O     O_3   0.086768 0.842538 0.312799 -0.592866
O4    O     O_2   0.316610 0.574140 0.674900 -0.465953
O5    O     O_3   0.067290 0.565720 0.585630 -0.496760
O6    O     O_3   0.530210 0.372990 0.631200 -0.469043
O7    O     O_3   0.185243 0.747034 0.680248 -0.643638
O8    O     O_3   0.611340 0.366290 0.463630 -0.478275
O9    O     O_3   0.108550 0.314140 0.595200 -0.464090
O10   O     O_2   0.178959 0.120880 0.540742 -0.477295
O11   O     O_3   0.143387 0.146010 0.677954 -0.571109
O12   O     O_3   0.122420 0.434370 0.414380 -0.497939
O13   O     O_3   0.578370 0.633800 0.536380 -0.489367
O14   O     O_2   0.341510 0.231850 0.465510 -0.464517
O15   O     O_3   0.505874 0.189703 0.346208 -0.649482
O16   O     O_2   0.410097 0.455049 0.755607 -0.482234
O17   O     O_3   0.481663 0.261657 0.750050 -0.584131
O18   O     O_3   0.659500 0.627100 0.368810 -0.473570
O19   O     O_2   0.776016 0.546203 0.244010 -0.500840
O20   O     O_3   0.002164 0.253146 0.318826 -0.637180
O21   O     O_3   0.709217 0.741970 0.252349 -0.584254
O22   O     O_2   0.848200 0.768190 0.534530 -0.472870
O23   O     O_3   0.081160 0.685950 0.404810 -0.480712
O24   O     O_2   0.998152 0.878621 0.447271 -0.485220
P1    P     P_3+3 0.041040 0.394770 0.336330 0.973074
P2    P     P_3+3 0.672880 0.754030 0.556100 0.967322
P3    P     P_3+3 0.126549 0.823211 0.401746 0.958966
P4    P     P_3+3 0.148670 0.605320 0.663680 0.975609
P5    P     P_3+3 0.066073 0.173949 0.595983 0.960848
P6    P     P_3+3 0.644436 0.614070 0.275010 0.951151
P7    P     P_3+3 0.522420 0.230151 0.440379 0.933997
P8    P     P_3+3 0.543868 0.388437 0.725412 0.970284
C53   C     C_3   0.031054 0.262070 0.772353 -0.291512
H53   H     H_    0.007924 0.317449 0.734675 0.083076
H54   H     H_    0.936025 0.263844 0.813845 0.052316
H55   H     H_    0.155261 0.291176 0.799579 0.150595
C54   C     C_2   0.984618 0.763817 0.150119 0.585888
H56   H     H_    0.922795 0.680444 0.138491 -0.010733
O25   O     O_2   0.918224 0.835204 0.130951 -0.573785

loop_
_geom_bond_atom_site_label_1
_geom_bond_atom_site_label_2
_ccdc_geom_bond_type
C12   O3    S    
C8    H31   S    
C14   H36   S    
C32   C35   A    
C53   H54   S    
C5    O11   S    
Ba1   O22   S    
Ba1   P2    S    
C17   C29   A    
C2    H16   S    
Ba2   O12   S    
C5    C6    S    
O10   P5    D    
C19   H35   S    
C43   C44   A    
C13   C17   A    
C28   H43   S    
C8    H34   S    
C24   C25   A    
Ba2   P4    S    
O9    P5    S    
C46   P7    S    
C20   P4    S    
C6    H28   S    
C21   C27   A    
C35   C36   A    
C22   C24   A    
C12   H33   S    
Ba1   Ba2   S    
C3    H18   S    
Ba1   O23   S    
C50   H7    S    
C40   C44   A    
C3    C4    S    
C51   H10   S    
C52   H14   S    
O15   P7    S    
C38   C47   A    
C3    O15   S    
C9    C22   A    
C15   C18   A    
O20   P1    S    
C34   C45   S    
C54   O25   D    
C32   C33   A    
Ba1   O13   S    
O8    P7    S    
C18   P8    S    
C41   P3    S    
O12   P1    S    
C31   C33   A    
C9    C13   A    
C24   C32   A    
Ba2   O4    S    
C25   C37   A    
C14   C15   A    
C12   H44   S    
C51   H11   S    
C7    C8    S    
C47   P5    S    
C19   C20   A    
C39   C41   A    
C23   C54   S    
C34   O7    S    
O22   P2    D    
C4    H20   S    
C33   H39   S    
C53   H53   S    
C44   C46   A    
Ba2   O5    S    
O18   P6    S    
O3    P3    S    
C16   C21   A    
O6    P8    S    
C4    H21   S    
O21   P6    S    
O16   P8    D    
O1    P1    D    
Ba2   O14   S    
C16   C17   A    
C52   H13   S    
C51   C52   S    
C34   H52   S    
C23   H24   S    
C6    H27   S    
C53   H55   S    
C31   H45   S    
C1    H17   S    
C22   C30   A    
C27   C28   A    
C40   H46   S    
C45   H3    S    
Ba2   O9    S    
C29   C30   A    
O17   P8    S    
C28   C29   A    
C9    C10   A    
Ba2   O6    S    
C36   H40   S    
C15   C16   A    
C35   P6    S    
O5    P4    S    
Ba1   O1    S    
O23   P3    S    
O19   P6    D    
C10   C26   A    
O7    P4    S    
C11   C13   A    
C2    H1    S    
C39   C42   A    
O4    P4    D    
O24   P3    D    
C49   H5    S    
Ba1   O8    S    
C1    C2    S    
C1    H23   S    
C42   C43   A    
C5    H25   S    
C38   C46   A    
C8    H32   S    
C2    O21   S    
C34   H51   S    
C49   O20   S    
Ba1   P1    S    
C50   H9    S    
O13   P2    S    
Ba2   O13   S    
C7    H29   S    
C23   H50   S    
C4    H22   S    
O14   P7    D    
C42   P2    S    
C30   C31   A    
Ba1   O18   S    
C49   C50   S    
C50   H8    S    
Ba1   O5    S    
C45   H4    S    
C5    C53   S    
Ba2   O8    S    
C51   O2    S    
C36   C37   A    
C52   H15   S    
C37   P1    S    
C43   C48   A    
C7    O17   S    
C26   H37   S    
Ba1   O12   S    
C12   C23   S    
C3    H19   S    
O2    P2    S    
C7    H30   S    
C38   H48   S    
C1    H12   S    
C39   H49   S    
C18   C19   A    
C11   H41   S    
C48   H47   S    
C47   C48   A    
C40   C41   A    
C11   C14   A    
C25   C26   A    
C6    H26   S    
C20   C21   A    
C10   H42   S    
C49   H6    S    
C27   H38   S    
C54   H56   S    
C45   H2    S    
O11   P5    S    
