data_mof_unit_34325.cif
_audit_creation_date              2013-03-05T16:13:33-0500
_audit_creation_method            fapswitch 2.2
_symmetry_space_group_name_H-M    P1
_symmetry_Int_Tables_number       1
_space_group_crystal_system       triclinic
_cell_length_a                    10.667939
_cell_length_b                    9.920102
_cell_length_c                    10.713445
_cell_angle_alpha                 89.536611
_cell_angle_beta                  91.147687
_cell_angle_gamma                 89.283121
_cell_volume                      1133.41660611

loop_
_atom_site_label
_atom_site_type_symbol
_atom_site_description
_atom_site_fract_x
_atom_site_fract_y
_atom_site_fract_z
_atom_type_partial_charge
O1    O     O_R   0.316770 0.614620 0.499990 -0.571925
O2    O     O_R   0.683230 0.614620 0.500010 -0.589644
O3    O     O_R   0.316800 0.385290 0.500000 -0.625297
O4    O     O_R   0.683200 0.385290 0.500000 -0.639744
C1    C     C_R   0.260142 0.500351 0.499957 0.902932
C2    C     C_R   0.739646 0.499183 0.500233 0.866593
O5    O     O_R   0.500000 0.614690 0.316780 -0.598114
O6    O     O_R   0.500000 0.614690 0.683220 -0.567393
O7    O     O_R   0.500020 0.385360 0.316780 -0.621646
O8    O     O_R   0.499980 0.385360 0.683220 -0.616304
C3    C     C_R   0.500610 0.500374 0.260086 0.932545
C4    C     C_R   0.504434 0.499674 0.739535 0.873799
Zn1   Zn    Zn3+2 0.500000 0.653120 0.500000 1.085162
Zn2   Zn    Zn3+2 0.500000 0.346880 0.500000 0.990526
C5    C     C_R   0.484727 0.618683 0.060377 -0.019845
C6    C     C_R   0.494454 0.620429 0.933595 0.073058
C7    C     C_R   0.511569 0.501124 0.128083 -0.042932
C8    C     C_R   0.519741 0.501323 0.871126 -0.108451
C9    C     C_R   0.557777 0.386636 0.066835 -0.168340
C10   C     C_R   0.560560 0.386170 0.937482 -0.148141
H1    H     H_    0.586002 0.296210 0.117929 0.183510
H2    H     H_    0.588706 0.294998 0.889981 0.193328
C11   C     C_3   0.387745 0.718174 0.914930 0.040764
C12   C     C_3   0.373264 0.714088 0.055765 0.081949
H3    H     H_    0.307664 0.676414 0.859885 0.142138
H4    H     H_    0.391747 0.811388 0.102924 0.183908
C13   C     C_R   0.066817 0.396200 0.563065 -0.148465
C14   C     C_R   0.938035 0.394849 0.562183 -0.140787
H5    H     H_    0.118874 0.317686 0.613319 0.181431
H6    H     H_    0.890289 0.315607 0.611916 0.167840
C15   C     C_R   0.871937 0.497825 0.499256 -0.033571
C16   C     C_R   0.127425 0.499908 0.500196 -0.064634
C17   C     C_R   0.932431 0.600315 0.435300 -0.106475
C18   C     C_R   0.060811 0.600513 0.434967 -0.049953
H7    H     H_    0.880514 0.678394 0.384286 0.184459
H8    H     H_    0.107237 0.676752 0.381612 0.243966
C19   C     C_R   0.600985 0.070895 0.544541 -0.107938
C20   C     C_R   0.398629 0.074850 0.457381 -0.103009
H9    H     H_    0.681069 0.124435 0.581614 0.174946
H10   H     H_    0.318095 0.131373 0.421628 0.190732
C21   C     C_R   0.601171 0.927733 0.546589 0.333486
C22   C     C_R   0.397813 0.932144 0.456917 0.343727
N1    N     N_R   0.500000 0.857200 0.500000 -0.186188
N2    N     N_R   0.500000 0.142810 0.500000 -0.131945
N3    N     N_R   0.428967 0.849179 0.868377 0.244357
O9    O     O_R   0.368024 0.907404 0.776015 -0.361331
O10   O     O_R   0.526379 0.908153 0.917369 -0.358695
N4    N     N_R   0.252927 0.654489 0.088868 0.234916
O11   O     O_R   0.150919 0.726883 0.075917 -0.316042
O12   O     O_R   0.244831 0.530289 0.127708 -0.393293
N5    N     N_R   0.707093 0.859145 0.602140 0.223671
O13   O     O_R   0.819616 0.894091 0.571534 -0.380643
O14   O     O_R   0.692859 0.786981 0.702524 -0.310957
N6    N     N_R   0.288601 0.868631 0.408712 0.209809
O15   O     O_R   0.178342 0.915753 0.436699 -0.376044
O16   O     O_R   0.298927 0.790436 0.313169 -0.395805

loop_
_geom_bond_atom_site_label_1
_geom_bond_atom_site_label_2
_geom_bond_distance
_ccdc_geom_bond_type
C20   H10   1.081906 S    
O7    Zn2   1.996662 S    
C15   C17   1.393746 A    
C20   N2    1.354947 A    
O6    Zn1   1.996566 S    
C11   N3    1.464118 S    
C13   H5    1.084122 S    
C21   N1    1.380773 A    
C8    C10   1.400690 A    
C9    C10   1.386771 A    
O6    C4    1.286239 A    
Zn1   N1    2.024494 S    
C11   C12   1.520057 S    
C1    C16   1.415931 S    
C19   N2    1.360849 A    
N4    O12   1.301709 A    
C17   C18   1.369645 A    
C19   H9    1.082073 S    
O4    Zn2   1.995837 S    
N3    O9    1.300391 A    
C22   N6    1.421476 S    
O5    C3    1.290772 A    
O7    C3    1.288352 A    
C16   C18   1.393002 A    
O2    C2    1.286951 A    
O3    Zn2   1.986479 S    
O8    C4    1.289770 A    
O1    C1    1.291138 A    
C14   H6    1.084155 S    
N4    O11   1.300762 A    
C7    C9    1.405147 A    
C10   H2    1.083464 S    
C2    C15   1.411412 S    
C6    C11   1.495385 S    
C18   H8    1.075992 S    
N3    O10   1.302302 A    
C19   C21   1.420154 A    
N6    O16   1.294919 A    
O4    C2    1.286907 A    
O1    Zn1   1.996332 S    
C22   N1    1.381357 A    
N5    O14   1.299597 A    
C5    C6    1.364280 A    
C12   N4    1.468734 S    
C20   C22   1.415843 A    
O5    Zn1   2.002620 S    
C11   H3    1.114379 S    
Zn2   N2    2.024396 S    
O8    Zn2   2.002722 S    
C4    C8    1.416220 S    
C13   C14   1.373911 A    
C5    C7    1.392052 A    
O2    Zn1   1.986951 S    
N6    O15   1.301769 A    
C5    C12   1.510233 S    
C17   H7    1.084292 S    
C13   C16   1.397501 A    
C9    H1    1.083361 S    
C21   N5    1.428719 S    
C6    C8    1.388808 A    
C3    C7    1.421330 S    
N5    O13   1.301136 A    
C12   H4    1.111070 S    
O3    C1    1.284868 A    
C14   C15   1.395356 A    
