data_mof_unit_22662.cif
_audit_creation_date              2013-03-05T15:48:01-0500
_audit_creation_method            fapswitch 2.2
_symmetry_space_group_name_H-M    P1
_symmetry_Int_Tables_number       1
_space_group_crystal_system       triclinic
_cell_length_a                    10.151272
_cell_length_b                    10.537104
_cell_length_c                    10.554793
_cell_angle_alpha                 89.951626
_cell_angle_beta                  94.209206
_cell_angle_gamma                 81.489581
_cell_volume                      1113.47200114

loop_
_atom_site_label
_atom_site_type_symbol
_atom_site_description
_atom_site_fract_x
_atom_site_fract_y
_atom_site_fract_z
_atom_type_partial_charge
O1    O     O_R   0.568940 0.489500 0.307530 -0.615293
O2    O     O_R   0.431060 0.510500 0.692470 -0.610320
O3    O     O_R   0.348880 0.522990 0.340350 -0.593673
O4    O     O_R   0.651120 0.477010 0.659650 -0.582750
C1    C     C_R   0.445928 0.499663 0.266120 0.937761
C2    C     C_R   0.553883 0.483078 0.733975 0.974984
O5    O     O_R   0.610000 0.297210 0.483560 -0.622543
O6    O     O_R   0.390000 0.702790 0.516440 -0.617695
O7    O     O_R   0.389940 0.330700 0.516390 -0.610885
O8    O     O_R   0.610060 0.669300 0.483610 -0.588874
C3    C     C_R   0.499598 0.257510 0.499798 0.912857
C4    C     C_R   0.500660 0.742386 0.501194 0.963406
Zn1   Zn    Zn3+2 0.646930 0.477640 0.478080 0.981446
Zn2   Zn    Zn3+2 0.353070 0.522360 0.521920 0.973988
C5    C     C_3   0.623045 0.024435 0.475335 -0.227909
C6    C     C_3   0.378142 0.975386 0.528191 -0.222194
C7    C     C_3   0.530680 0.952839 0.386057 -0.297914
C8    C     C_3   0.470448 0.047090 0.617188 -0.288203
H1    H     H_    0.552849 0.911788 0.291781 0.184281
H2    H     H_    0.448753 0.085180 0.712432 0.174596
H3    H     H_    0.723255 0.046679 0.455900 0.193000
H4    H     H_    0.278030 0.953143 0.547985 0.200013
C9    C     C_3   0.500948 0.876815 0.502389 -0.152389
C10   C     C_3   0.500247 0.122902 0.501072 -0.131192
C11   C     C_3   0.590714 0.947488 0.589462 0.386888
C12   C     C_3   0.410484 0.052436 0.414162 0.383545
C13   C     C_2   0.420420 0.476163 0.131834 -0.304655
C14   C     C_2   0.578730 0.450764 0.868290 -0.346417
C15   C     C_2   0.506363 0.392817 0.068896 0.205988
C16   C     C_2   0.489883 0.395723 0.931381 0.149653
H5    H     H_    0.668133 0.476782 0.918428 0.155221
H6    H     H_    0.333510 0.531846 0.081507 0.136829
H7    H     H_    0.889951 0.581189 0.579282 0.201310
H8    H     H_    0.110290 0.418217 0.421229 0.197885
N1    N     N_2   0.157310 0.552180 0.551120 -0.197140
N2    N     N_2   0.842690 0.447820 0.448880 -0.194459
C17   C     C_2   0.073302 0.488951 0.489785 -0.108065
C18   C     C_2   0.926834 0.510662 0.510526 -0.102403
H9    H     H_    0.881123 0.381559 0.384357 0.182591
H10   H     H_    0.118798 0.618538 0.615512 0.182349
N3    N     N_R   0.690564 0.891287 0.687986 0.204710
O9    O     O_R   0.763632 0.964536 0.751340 -0.380544
O10   O     O_R   0.702042 0.770397 0.718537 -0.419274
N4    N     N_R   0.311550 0.114772 0.318122 0.209483
O11   O     O_R   0.185506 0.107986 0.325740 -0.396427
O12   O     O_R   0.348969 0.176854 0.223880 -0.428810
C19   C     C_3   0.368070 0.346610 0.869872 -0.761670
H11   H     H_    0.329210 0.281447 0.936044 0.256985
H12   H     H_    0.287332 0.427832 0.845275 0.243217
H13   H     H_    0.393754 0.291508 0.783561 0.226138
C20   C     C_3   0.622768 0.301900 0.131029 -0.742452
H14   H     H_    0.660949 0.227514 0.062841 0.239183
H15   H     H_    0.706242 0.354768 0.161459 0.231062
H16   H     H_    0.591265 0.251649 0.213568 0.254779

loop_
_geom_bond_atom_site_label_1
_geom_bond_atom_site_label_2
_geom_bond_distance
_ccdc_geom_bond_type
O6    Zn2   1.993098 S    
O7    Zn2   2.000430 S    
C14   H5    1.087314 S    
C17   C18   1.502713 S    
C13   C15   1.353886 D    
C15   C16   1.448577 S    
O7    C3    1.280360 A    
N3    O9    1.300214 A    
C3    C10   1.417461 S    
H7    C18   1.085150 S    
C5    H3    1.110381 S    
O6    C4    1.275549 A    
C20   H16   1.109880 S    
C6    C9    1.540823 S    
N2    C18   1.295367 D    
N1    H10   1.030805 S    
C12   N4    1.456649 S    
C19   H12   1.110128 S    
C7    C9    1.537772 S    
O5    C3    1.275628 A    
N3    O10   1.300022 A    
C4    C9    1.416989 S    
O2    C2    1.281761 A    
O3    Zn2   1.913766 S    
O8    C4    1.279923 A    
C8    C10   1.534925 S    
C7    C12   1.533877 S    
C14   C16   1.354843 D    
C5    C10   1.539995 S    
N1    C17   1.295409 D    
N4    O12   1.299821 A    
C19   H13   1.107227 S    
C8    H2    1.107799 S    
C9    C11   1.519416 S    
C6    C12   1.533200 S    
O2    Zn2   1.908916 S    
C8    C11   1.533409 S    
O1    C1    1.281419 A    
C5    C11   1.533394 S    
O4    C2    1.299584 A    
O1    Zn1   1.908916 S    
C20   H15   1.109766 S    
C20   H14   1.111110 S    
H8    C17   1.085387 S    
C16   C19   1.513434 S    
O5    Zn1   1.993096 S    
N4    O11   1.300335 A    
Zn1   N2    2.011961 S    
C6    C8    1.553309 S    
C15   C20   1.514681 S    
C11   N3    1.458092 S    
Zn2   N1    2.011961 S    
C5    C7    1.554697 S    
C6    H4    1.110391 S    
C7    H1    1.110263 S    
C13   H6    1.087316 S    
C1    C13   1.450163 S    
N2    H9    1.030858 S    
C2    C14   1.452785 S    
C19   H11   1.111159 S    
O4    Zn1   1.913766 S    
C10   C12   1.517168 S    
O3    C1    1.298756 A    
O8    Zn1   2.000432 S    
