data_mof_unit_23431.cif
_audit_creation_date              2012-12-11T21:14:56-0500
_audit_creation_method            fapswitch 2.2
_symmetry_space_group_name_H-M    P1
_symmetry_Int_Tables_number       1
_space_group_crystal_system       triclinic
_cell_length_a                    8.209698
_cell_length_b                    18.78275
_cell_length_c                    27.012181
_cell_angle_alpha                 99.641189
_cell_angle_beta                  92.578308
_cell_angle_gamma                 88.167383
_cell_volume                      4101.04528043

loop_
_atom_site_label
_atom_site_type_symbol
_atom_type_description
_atom_site_fract_x
_atom_site_fract_y
_atom_site_fract_z
_atom_type_partial_charge
Ba1   Ba    Ba6+2 0.160810 0.465630 0.521640 1.647739
Ba2   Ba    Ba6+2 0.649380 0.534380 0.478400 1.640933
C1    C     C_3   0.443048 0.257617 0.696854 -0.259455
C2    C     C_3   0.469244 0.283350 0.647236 0.302642
C3    C     C_3   0.470062 0.313894 0.398109 0.304239
C4    C     C_3   0.482748 0.232565 0.381320 -0.385171
C5    C     C_3   0.866054 0.722410 0.378187 0.330660
C6    C     C_3   0.879103 0.796938 0.363859 -0.337939
C7    C     C_3   0.350851 0.695492 0.350915 0.328009
C8    C     C_3   0.373622 0.712013 0.298527 0.514940
C9    C     C_R   0.993811 0.048256 0.477648 0.008779
C10   C     C_R   0.078757 0.095107 0.452912 0.031813
C11   C     C_R   0.225731 0.071152 0.430333 -0.075930
C12   C     C_3   0.972233 0.271699 0.624267 0.392713
C13   C     C_R   0.287430 0.001316 0.431958 -0.070093
C14   C     C_R   0.201758 0.953515 0.455344 0.030323
C15   C     C_R   0.054320 0.976877 0.478304 0.013704
C16   C     C_R   0.260427 0.882568 0.455303 -0.086652
C17   C     C_R   0.171689 0.832951 0.476605 -0.043084
C18   C     C_R   0.024660 0.856590 0.500674 -0.004202
C19   C     C_R   0.967239 0.928922 0.501627 -0.005108
C20   C     C_R   0.223510 0.759916 0.473699 -0.005475
C21   C     C_R   0.126956 0.711491 0.492650 -0.294977
C22   C     C_R   0.986220 0.734134 0.518608 0.044992
C23   C     C_3   0.984850 0.200219 0.643721 -0.357279
C24   C     C_R   0.934658 0.808121 0.523595 -0.044304
C25   C     C_R   0.847619 0.072362 0.501039 -0.004589
C26   C     C_R   0.789859 0.144583 0.501764 -0.004598
C27   C     C_R   0.878552 0.192758 0.478212 -0.049570
C28   C     C_R   0.017258 0.165398 0.451518 -0.035639
C29   C     C_R   0.794743 0.835127 0.549807 -0.040497
C30   C     C_R   0.734355 0.905746 0.548935 0.031373
C31   C     C_R   0.820638 0.952933 0.524834 0.009413
C32   C     C_R   0.760397 0.024388 0.524294 0.014739
C33   C     C_R   0.586871 0.929642 0.571230 -0.078074
C34   C     C_3   0.840258 0.620605 0.631100 0.300432
C35   C     C_R   0.525710 0.999610 0.569820 -0.072208
C36   C     C_R   0.612377 0.047616 0.546917 0.032422
C37   C     C_R   0.642551 0.168118 0.525579 -0.041965
C38   C     C_R   0.553640 0.118497 0.546839 -0.106015
C39   C     C_R   0.589540 0.240837 0.527702 -0.008234
C40   C     C_R   0.684459 0.289131 0.508049 -0.292588
C41   C     C_R   0.826095 0.266629 0.482648 0.049967
C42   C     C_R   0.293591 0.446589 0.174049 0.589384
C43   C     C_R   0.172939 0.564869 0.175265 0.581820
C44   C     C_2   0.026994 0.524231 0.269014 -0.069470
C45   C     C_3   0.836797 0.637910 0.688131 -0.360500
C46   C     C_3   0.991658 0.519012 0.323012 -0.052006
C47   C     C_1   0.279112 0.491449 0.336176 0.019194
C48   C     C_2   0.313913 0.493868 0.289151 -0.105816
C49   C     C_2   0.180452 0.510024 0.252338 0.196533
C50   C     C_R   0.295593 0.502427 0.098650 -0.078982
C51   C     C_R   0.336260 0.443841 0.123745 -0.033396
C52   C     C_R   0.418485 0.383387 0.098077 -0.060130
C53   C     C_R   0.212370 0.563138 0.124647 -0.033664
C54   C     C_2   0.146894 0.524179 0.355516 -0.286222
C55   C     C_2   0.646445 0.470169 0.636658 -0.285278
C56   C     C_3   0.978648 0.367956 0.365413 0.295486
C57   C     C_R   0.468059 0.436863 0.971517 0.020859
C58   C     C_R   0.333837 0.556528 0.971122 0.020759
C59   C     C_R   0.422068 0.495523 0.946104 0.049395
C60   C     C_R   0.557450 0.377945 0.945001 -0.100810
C61   C     C_R   0.595110 0.375536 0.895176 -0.058687
C62   C     C_R   0.548603 0.432324 0.869490 -0.024694
C63   C     C_R   0.464086 0.492875 0.894926 -0.081449
C64   C     C_R   0.419901 0.550330 0.868988 -0.033483
C65   C     C_R   0.464733 0.547325 0.818584 0.593526
C66   C     C_R   0.584388 0.428948 0.818594 0.583779
C67   C     C_3   0.016825 0.336637 0.311251 -0.361069
C68   C     C_2   0.731398 0.450490 0.723821 -0.093058
C69   C     C_3   0.746952 0.424939 0.668238 -0.064264
C70   C     C_1   0.517192 0.507284 0.655543 0.042445
C71   C     C_2   0.472482 0.508338 0.702481 -0.089031
C72   C     C_2   0.589066 0.482266 0.740754 0.189752
C73   C     C_R   0.423596 0.438729 0.022201 0.021004
C74   C     C_R   0.337885 0.500194 0.047575 0.050278
C75   C     C_R   0.293893 0.559362 0.022460 0.019405
C76   C     C_R   0.461142 0.380724 0.048625 -0.099378
C77   C     C_R   0.171815 0.621310 0.099742 -0.050646
C78   C     C_3   0.331290 0.686343 0.593481 0.315530
C79   C     C_R   0.287557 0.612538 0.943416 -0.097931
C80   C     C_R   0.330621 0.609635 0.893792 -0.057109
C81   C     C_R   0.211759 0.619684 0.050016 -0.098381
C82   C     C_3   0.328740 0.767664 0.611049 -0.385806
H1    H     H_    0.461957 0.343417 0.653661 0.034993
H2    H     H_    0.742586 0.680527 0.699560 0.135325
H3    H     H_    0.808019 0.588935 0.703553 0.066458
H4    H     H_    0.957875 0.656979 0.704079 0.136234
H5    H     H_    0.091052 0.390377 0.385428 0.019361
H6    H     H_    0.883076 0.411213 0.365860 0.040187
H7    H     H_    0.107043 0.291024 0.310644 0.150187
H8    H     H_    0.068976 0.377905 0.292163 0.079940
H9    H     H_    0.903553 0.316371 0.290072 0.121861
H10   H     H_    0.205087 0.668626 0.583859 0.004309
H11   H     H_    0.406937 0.673704 0.559892 0.061843
H12   H     H_    0.320527 0.275462 0.710580 0.126459
H13   H     H_    0.246380 0.782108 0.642995 0.132718
H14   H     H_    0.284576 0.796118 0.580004 0.054319
H15   H     H_    0.453969 0.785709 0.623502 0.120060
H16   H     H_    0.592155 0.264133 0.634669 -0.047939
H17   H     H_    0.536508 0.281210 0.725138 0.115201
H18   H     H_    0.594187 0.334038 0.409400 0.022076
H19   H     H_    0.390887 0.324846 0.430945 0.062165
H20   H     H_    0.567557 0.219605 0.349942 0.138443
H21   H     H_    0.529807 0.206117 0.413094 0.055168
H22   H     H_    0.360490 0.211182 0.368504 0.117403
H23   H     H_    0.938947 0.156323 0.614283 0.073231
H24   H     H_    0.758027 0.722708 0.401456 0.110339
H25   H     H_    0.977693 0.711167 0.400430 -0.034723
H26   H     H_    0.889128 0.838682 0.398292 0.071669
H27   H     H_    0.989436 0.798401 0.341543 0.174394
H28   H     H_    0.768415 0.809731 0.341220 0.152610
H29   H     H_    0.219649 0.702611 0.359208 -0.040179
H30   H     H_    0.390051 0.638489 0.351076 -0.022894
H31   H     H_    0.306142 0.672474 0.270486 0.018955
H32   H     H_    0.505154 0.707862 0.289976 0.042969
H33   H     H_    0.038212 0.266399 0.588884 0.101059
H34   H     H_    0.293844 0.106642 0.411693 0.066753
H35   H     H_    0.401469 0.984395 0.414355 0.087260
H36   H     H_    0.165859 0.655337 0.488943 0.067426
H37   H     H_    0.374155 0.866371 0.437549 0.120367
H38   H     H_    0.081870 0.198615 0.430352 0.101570
H39   H     H_    0.728486 0.801398 0.570170 0.097855
H40   H     H_    0.517810 0.894017 0.589440 0.066383
H41   H     H_    0.411028 0.016381 0.587072 0.088227
H42   H     H_    0.439232 0.134448 0.564195 0.108406
H43   H     H_    0.841636 0.282380 0.615214 -0.104679
H44   H     H_    0.643010 0.344805 0.510429 0.069893
H45   H     H_    0.437889 0.483574 0.277031 0.116219
H46   H     H_    0.450963 0.337368 0.116286 0.125278
H47   H     H_    0.824818 0.433828 0.749500 0.125048
H48   H     H_    0.662494 0.328567 0.876820 0.123973
H49   H     H_    0.601615 0.332235 0.961444 0.070890
H50   H     H_    0.522673 0.331530 0.032280 0.071517
H51   H     H_    0.926458 0.532775 0.242974 0.103646
H52   H     H_    0.108905 0.669006 0.118808 0.134066
H53   H     H_    0.215936 0.659714 0.958618 0.071826
H54   H     H_    0.113130 0.187520 0.653858 0.146499
H55   H     H_    0.291976 0.654323 0.874688 0.124284
H56   H     H_    0.349215 0.529032 0.713411 0.145774
H57   H     H_    0.177499 0.667503 0.034626 0.074240
H58   H     H_    0.148957 0.552201 0.394108 0.069811
H59   H     H_    0.660437 0.458425 0.596192 0.084665
H60   H     H_    0.910682 0.203134 0.677298 0.117042
H61   H     H_    0.717927 0.604064 0.615712 0.009257
H62   H     H_    0.929613 0.575614 0.620792 0.081844
N1    N     N_R   0.215063 0.507175 0.199631 -0.428801
N2    N     N_R   0.547284 0.486844 0.793554 -0.420728
O1    O     O_2   0.106080 0.324280 0.466820 -0.469169
O2    O     O_3   0.396327 0.652830 0.632652 -0.623904
O3    O     O_3   0.041034 0.326792 0.660374 -0.579199
O4    O     O_2   0.704230 0.675760 0.533200 -0.468220
O5    O     O_3   0.951180 0.586390 0.529420 -0.490737
O6    O     O_3   0.434080 0.629720 0.443130 -0.471668
O7    O     O_3   0.884449 0.682483 0.612956 -0.638413
O8    O     O_3   0.351080 0.462080 0.440130 -0.477497
O9    O     O_3   0.839200 0.593040 0.416790 -0.485638
O10   O     O_2   0.659784 0.562514 0.332265 -0.500870
O11   O     O_3   0.851071 0.670618 0.334389 -0.590525
O12   O     O_3   0.859130 0.413620 0.470620 -0.483394
O13   O     O_3   0.459240 0.537930 0.559910 -0.492063
O14   O     O_2   0.583120 0.462390 0.379940 -0.461668
O15   O     O_3   0.403175 0.346137 0.358218 -0.632637
O16   O     O_2   0.563955 0.756619 0.477683 -0.500119
O17   O     O_3   0.446007 0.742298 0.385760 -0.601348
O18   O     O_2   0.324930 0.394556 0.194981 -0.594570
O19   O     O_2   0.646125 0.373402 0.796343 -0.624203
O20   O     O_2   0.102533 0.618092 0.197748 -0.579723
O21   O     O_2   0.429723 0.598899 0.797176 -0.599673
O22   O     O_3   0.376230 0.370290 0.556910 -0.470563
O23   O     O_2   0.253171 0.243561 0.518294 -0.496222
O24   O     O_3   0.920368 0.312271 0.387397 -0.642228
O25   O     O_3   0.347882 0.255533 0.611759 -0.598461
O26   O     O_2   0.227190 0.537650 0.620070 -0.463887
O27   O     O_3   0.971110 0.406970 0.583250 -0.483346
O28   O     O_2   0.078033 0.467390 0.675315 -0.489340
P1    P     P_3+3 0.929380 0.335110 0.452880 0.977097
P2    P     P_3+3 0.398530 0.559060 0.613740 0.996376
P3    P     P_3+3 0.960807 0.409550 0.647805 0.965364
P4    P     P_3+3 0.880940 0.664900 0.547160 0.975632
P5    P     P_3+3 0.834160 0.585029 0.351288 0.970746
P6    P     P_3+3 0.393497 0.276847 0.553495 0.940025
P7    P     P_3+3 0.399989 0.439995 0.376940 0.962541
P8    P     P_3+3 0.416354 0.723023 0.445799 0.935637
C83   C     C_1   0.458637 0.178616 0.691034 0.292370
N3    N     N_1   0.471195 0.116370 0.686415 -0.295533
F1    F     F_    0.314284 0.780983 0.295399 -0.675065

loop_
_geom_bond_atom_site_label_1
_geom_bond_atom_site_label_2
_ccdc_geom_bond_type
O24   P1    S    
C36   C38   A    
C3    H19   S    
C57   C73   A    
C39   C40   A    
O23   P6    D    
C56   O24   S    
C17   C18   A    
C70   P2    S    
C78   C82   S    
Ba2   O14   S    
C11   H34   S    
C5    C6    S    
C37   C39   A    
C51   C52   A    
O7    P4    S    
C78   O2    S    
C77   H52   S    
Ba1   O27   S    
C35   C36   A    
Ba2   P4    S    
C7    H30   S    
C3    O15   S    
C60   H49   S    
C72   N2    S    
C26   C27   A    
C33   C35   A    
C22   C24   A    
Ba1   Ba2   S    
C67   H9    S    
C6    H28   S    
C3    C4    S    
C5    O11   S    
C75   C81   A    
C13   C14   A    
Ba1   O22   S    
C42   N1    Am   
C52   C76   A    
C34   C45   S    
C16   C17   A    
C71   C72   S    
C69   P3    S    
C20   P8    S    
C44   H51   S    
C47   P7    S    
Ba1   P1    S    
C42   C51   A    
O28   P3    D    
C41   P1    S    
C28   H38   S    
Ba2   O12   S    
C14   C15   A    
Ba1   P2    S    
O6    P8    S    
C12   O3    S    
C22   P4    S    
C21   C22   A    
Ba1   O1    S    
C1    H12   S    
C45   H4    S    
C4    H20   S    
C67   H8    S    
C7    C8    S    
O26   P2    D    
C66   N2    Am   
C50   C53   A    
C40   H44   S    
O2    P2    S    
C54   H58   S    
C1    H17   S    
C64   C65   A    
O5    P4    S    
Ba1   O13   S    
C24   C29   A    
Ba2   O6    S    
C43   N1    Am   
C27   C41   A    
C82   H15   S    
O9    P5    S    
C1    C83   S    
Ba2   O13   S    
C56   H5    S    
O8    P7    S    
C8    F1    S    
C35   H41   S    
C25   C32   A    
Ba2   O4    S    
C52   H46   S    
C44   C46   S    
Ba1   O26   S    
C57   C59   A    
C55   H59   S    
O15   P7    S    
C45   H2    S    
C17   C20   A    
C74   C75   A    
C6    H27   S    
C21   H36   S    
C81   H57   S    
C55   C70   D    
C29   H39   S    
O27   P3    S    
C2    H1    S    
C26   C37   A    
C48   C49   S    
C44   C49   D    
C79   C80   A    
C12   H43   S    
C5    H25   S    
C58   C59   A    
C45   H3    S    
O4    P4    D    
Ba1   O8    S    
C79   H53   S    
C73   C74   A    
C30   C33   A    
C68   C72   D    
C80   H55   S    
O16   P8    D    
C48   H45   S    
C6    H26   S    
C64   C80   A    
C53   C77   A    
C58   C79   A    
O3    P3    S    
C29   C30   A    
C9    C25   A    
C12   H33   S    
C38   H42   S    
O11   P5    S    
C60   C61   A    
O1    P1    D    
C31   C32   A    
C4    H22   S    
C42   O18   D    
C61   H48   S    
C55   C69   S    
C78   H11   S    
Ba1   O5    S    
C56   H6    S    
C49   N1    S    
C68   C69   S    
C5    H24   S    
C34   H62   S    
O25   P6    S    
C47   C48   D    
Ba2   O5    S    
C2    O25   S    
C2    H16   S    
C39   P6    S    
C23   H60   S    
C40   C41   A    
C82   H13   S    
C78   H10   S    
C1    C2    S    
C62   C66   A    
C37   C38   A    
C8    H32   S    
C50   C51   A    
C23   H23   S    
C46   C54   S    
C3    H18   S    
C33   H40   S    
C57   C60   A    
Ba2   O8    S    
C10   C28   A    
C32   C36   A    
O17   P8    S    
Ba1   O12   S    
C70   C71   D    
C50   C74   A    
C9    C15   A    
C9    C10   A    
C56   C67   S    
C71   H56   S    
C47   C54   D    
C82   H14   S    
C58   C75   A    
C11   C13   A    
C23   H54   S    
C7    H29   S    
O14   P7    D    
C30   C31   A    
C77   C81   A    
C83   N3    T    
C46   P5    S    
C18   C24   A    
Ba2   O9    S    
C62   C63   A    
C7    O17   S    
C68   H47   S    
C4    H21   S    
C13   H35   S    
C12   C23   S    
C65   O21   D    
C73   C76   A    
C15   C19   A    
O12   P1    S    
C43   O20   D    
C16   H37   S    
C27   C28   A    
C61   C62   A    
C76   H50   S    
C66   O19   D    
C59   C63   A    
C34   H61   S    
C19   C31   A    
C18   C19   A    
C43   C53   A    
C14   C16   A    
C63   C64   A    
C65   N2    Am   
C20   C21   A    
C10   C11   A    
O13   P2    S    
C67   H7    S    
O22   P6    S    
C8    H31   S    
C34   O7    S    
O10   P5    D    
C25   C26   A    
