data_mof_unit_14568.cif
_audit_creation_date              2012-12-11T15:09:42-0500
_audit_creation_method            fapswitch 2.2
_symmetry_space_group_name_H-M    P1
_symmetry_Int_Tables_number       1
_space_group_crystal_system       triclinic
_cell_length_a                    21.025249
_cell_length_b                    7.127482
_cell_length_c                    14.047842
_cell_angle_alpha                 90.001204
_cell_angle_beta                  98.560519
_cell_angle_gamma                 89.999731
_cell_volume                      2081.71534541

loop_
_atom_site_label
_atom_site_type_symbol
_atom_type_description
_atom_site_fract_x
_atom_site_fract_y
_atom_site_fract_z
_atom_type_partial_charge
O1    O     O_R   0.447130 0.507140 0.597350 -0.521157
O2    O     O_R   0.552870 0.007140 0.402650 -0.521176
O3    O     O_R   0.578910 0.181280 0.586990 -0.535705
O4    O     O_R   0.421090 0.681280 0.413010 -0.535715
C1    C     C_R   0.604453 0.344530 0.607469 0.757810
C2    C     C_R   0.395547 0.844530 0.392529 0.757815
O5    O     O_R   0.449230 0.177860 0.608640 -0.545939
O6    O     O_R   0.550770 0.677860 0.391360 -0.545909
O7    O     O_R   0.422260 0.000770 0.424450 -0.527961
O8    O     O_R   0.577740 0.500770 0.575550 -0.528006
C3    C     C_R   0.430996 0.346354 0.631984 0.796049
C4    C     C_R   0.568995 0.846356 0.368005 0.796035
O9    O     O_3   0.491310 0.336980 0.439550 -0.382085
O10   O     O_3   0.508690 0.836980 0.560450 -0.382101
V1    V     V_3+5 0.501610 0.064760 0.511210 1.533769
V2    V     V_3+5 0.498390 0.564760 0.488790 1.533786
C5    C     C_R   0.625827 0.956053 0.136033 -0.151897
C6    C     C_R   0.374195 0.455645 0.864041 -0.151888
H1    H     H_    0.534710 0.925792 0.183923 0.117701
H2    H     H_    0.465303 0.425430 0.816112 0.117686
H3    H     H_    0.710411 0.057683 0.024075 0.119815
H4    H     H_    0.289633 0.557057 0.976084 0.119820
H5    H     H_    0.604140 0.006803 0.065923 0.120222
H6    H     H_    0.395894 0.506200 0.934186 0.120219
C7    C     C_R   0.612804 0.859333 0.296690 -0.139093
C8    C     C_R   0.387192 0.359310 0.703307 -0.139052
C9    C     C_R   0.919545 0.735145 0.290024 -0.161273
C10   C     C_R   0.080440 0.235281 0.709937 -0.161300
C11   C     C_R   0.879714 0.649140 0.347231 -0.097839
C12   C     C_R   0.120257 0.149335 0.652685 -0.097817
C13   C     C_R   0.813827 0.681215 0.330035 -0.033792
C14   C     C_R   0.186148 0.181337 0.669892 -0.033722
C15   C     C_R   0.787011 0.815092 0.261693 0.095555
C16   C     C_R   0.212986 0.315070 0.738306 0.095556
C17   C     C_R   0.826607 0.885040 0.195812 0.060270
C18   C     C_R   0.173402 0.384928 0.804227 0.060247
C19   C     C_R   0.720430 0.863300 0.249559 -0.050622
C20   C     C_R   0.279572 0.363216 0.750463 -0.050639
C21   C     C_R   0.692505 0.937464 0.158882 0.101441
C22   C     C_R   0.307514 0.437152 0.841188 0.101438
C23   C     C_R   0.731399 0.995130 0.091871 -0.177816
C24   C     C_R   0.268632 0.494690 0.908245 -0.177792
C25   C     C_R   0.797764 0.977584 0.112005 -0.192945
C26   C     C_R   0.202263 0.477260 0.888096 -0.192902
C27   C     C_R   0.680482 0.846006 0.323352 0.363182
C28   C     C_R   0.319511 0.346072 0.676648 0.363168
C29   C     C_R   0.586309 0.910267 0.203198 -0.252612
C30   C     C_R   0.413701 0.410002 0.796833 -0.252612
C31   C     C_R   0.893397 0.845924 0.211389 -0.087053
C32   C     C_R   0.106605 0.345925 0.788619 -0.087003
H7    H     H_    0.970279 0.700022 0.301168 0.124293
H8    H     H_    0.029701 0.200227 0.698777 0.124285
H9    H     H_    0.784045 0.596623 0.369086 0.183956
H10   H     H_    0.215918 0.096804 0.630787 0.183934
H11   H     H_    0.899617 0.550680 0.402415 0.142593
H12   H     H_    0.100338 0.050988 0.597450 0.142582
H13   H     H_    0.825855 0.029042 0.058933 0.128668
H14   H     H_    0.174181 0.528622 0.941203 0.128622
C33   C     C_1   0.166560 0.857160 0.168451 -0.177050
C34   C     C_1   0.833440 0.357158 0.831549 -0.177044
C35   C     C_1   0.218947 0.854908 0.219606 0.027690
C36   C     C_1   0.781054 0.354906 0.780393 0.027669
C37   C     C_1   0.280703 0.853510 0.279600 0.037497
C38   C     C_1   0.719297 0.353509 0.720398 0.037545
C39   C     C_1   0.333104 0.851216 0.330697 -0.136061
C40   C     C_1   0.666896 0.351214 0.669300 -0.135882
O11   O     O_R   0.922300 0.202240 0.924350 -0.536192
O12   O     O_R   0.077700 0.702240 0.075650 -0.536195
O13   O     O_R   0.050780 0.535130 0.891350 -0.543602
O14   O     O_R   0.949220 0.035130 0.108650 -0.543620
C41   C     C_R   0.067291 0.366944 0.865585 0.690056
C42   C     C_R   0.932708 0.866947 0.134416 0.690041
O15   O     O_R   0.921100 0.531560 0.912990 -0.534352
O16   O     O_R   0.078900 0.031560 0.087010 -0.534353
O17   O     O_R   0.947120 0.708470 0.097370 -0.538165
O18   O     O_R   0.052880 0.208470 0.902630 -0.538164
C43   C     C_R   0.895888 0.363571 0.893398 0.712363
C44   C     C_R   0.104111 0.863571 0.106602 0.712383
O19   O     O_3   0.008710 0.375800 0.060400 -0.373524
O20   O     O_3   0.991290 0.875800 0.939600 -0.373509
V3    V     V_3+5 0.998380 0.648080 0.988790 1.446173
V4    V     V_3+5 0.001620 0.148080 0.011210 1.446153
S1    S     S_3+6 0.713105 0.848107 0.449200 -0.028717
O21   O     O_2   0.712475 0.651850 0.488313 -0.360691
O22   O     O_2   0.780526 0.924259 0.465707 -0.329311
O23   O     O_3   0.669336 0.984227 0.511876 -0.498215
H15   H     H_    0.686611 0.959751 0.580271 0.354467
S2    S     S_3+6 0.286878 0.348445 0.550804 -0.028752
O24   O     O_2   0.287520 0.152289 0.511560 -0.360622
O25   O     O_2   0.219451 0.424568 0.534350 -0.329405
O26   O     O_3   0.330629 0.484785 0.488214 -0.498210
H16   H     H_    0.313271 0.460735 0.419804 0.354503

loop_
_geom_bond_atom_site_label_1
_geom_bond_atom_site_label_2
_ccdc_geom_bond_type
C20   C22   A    
C37   C39   T    
C9    C11   A    
O11   C43   A    
O2    C4    A    
C2    O7    A    
C18   C32   A    
C21   C23   A    
O5    C3    A    
C5    H5    S    
C6    H6    S    
O12   V3    S    
C41   O18   A    
O20   V3    S    
H1    C29   S    
C34   C36   T    
C5    C21   A    
C14   H10   S    
C35   C37   S    
C6    C22   A    
C36   C38   S    
C10   C32   A    
C2    C39   S    
C26   H14   S    
C31   C42   S    
O1    C3    A    
C17   C31   A    
C13   C15   A    
C17   C25   A    
C7    C29   A    
C8    C30   A    
C22   C24   A    
O6    V2    S    
C23   C25   A    
C27   S1    S    
C24   C26   A    
O16   V4    S    
C42   O17   A    
C33   C44   S    
O15   V3    S    
C9    H7    S    
C28   S2    S    
O12   C44   A    
C34   C43   S    
C33   C35   T    
O13   C41   A    
O20   V4    S    
O18   V4    S    
O26   H16   S    
O19   V3    S    
C25   H13   S    
O23   H15   S    
O17   V3    S    
C11   H11   S    
C3    C8    S    
C12   H12   S    
C15   C19   A    
C14   C16   A    
O4    V2    S    
C32   C41   S    
S1    O21   D    
S2    O26   S    
O6    C4    A    
O1    V2    S    
C13   H9    S    
O2    V1    S    
H2    C30   S    
H3    C23   S    
O4    C2    A    
S1    O22   D    
S2    O25   D    
C18   C26   A    
C19   C27   A    
C7    C27   A    
O3    V1    S    
C16   C20   A    
C5    C29   A    
C1    C40   S    
O3    C1    A    
C6    C30   A    
O19   V4    S    
C4    C7    S    
C10   C12   A    
O7    V1    S    
C1    O8    A    
C11   C13   A    
O8    V2    S    
C12   C14   A    
C10   H8    S    
H4    C24   S    
O5    V1    S    
C15   C17   A    
C16   C18   A    
O14   V4    S    
C20   C28   A    
O13   V3    S    
C8    C28   A    
S1    O23   S    
S2    O24   D    
O11   V4    S    
C19   C21   A    
O16   C44   A    
O9    V2    S    
O15   C43   A    
O10   V1    S    
O14   C42   A    
C9    C31   A    
C38   C40   T    
