data_mof_unit_28557.cif
_audit_creation_date              2013-03-05T15:54:21-0500
_audit_creation_method            fapswitch 2.2
_symmetry_space_group_name_H-M    P1
_symmetry_Int_Tables_number       1
_space_group_crystal_system       triclinic
_cell_length_a                    14.959466
_cell_length_b                    14.836632
_cell_length_c                    15.121587
_cell_angle_alpha                 109.321405
_cell_angle_beta                  109.053029
_cell_angle_gamma                 109.357458
_cell_volume                      2605.10474687

loop_
_atom_site_label
_atom_site_type_symbol
_atom_site_description
_atom_site_fract_x
_atom_site_fract_y
_atom_site_fract_z
_atom_type_partial_charge
C1    C     C_R   0.002171 0.803432 0.095832 -0.150307
H1    H     H_    0.981888 0.830776 0.158419 0.108013
N1    N     N_R   0.995640 0.706130 0.053910 -0.046572
C2    C     C_R   0.785907 0.204498 0.695075 -0.130343
H2    H     H_    0.810469 0.176861 0.636177 0.114108
N2    N     N_R   0.848310 0.293860 0.791110 -0.043029
C3    C     C_R   0.047807 0.592792 0.777598 0.488688
N3    N     N_R   0.054010 0.556790 0.847890 -0.085842
C4    C     C_R   0.686495 0.409345 0.934804 -0.123106
H3    H     H_    0.623074 0.324904 0.888649 0.097144
N4    N     N_R   0.789940 0.443190 0.997130 -0.038974
C5    C     C_R   0.951029 0.408251 0.686876 -0.121797
H4    H     H_    0.908032 0.323946 0.623637 0.124498
N5    N     N_R   0.997630 0.443170 0.791110 -0.067211
C6    C     C_R   0.777578 0.593162 0.026260 -0.124494
H5    H     H_    0.798825 0.678418 0.063168 0.095529
N6    N     N_R   0.846320 0.556810 0.053910 -0.039633
C7    C     C_R   0.695454 0.202936 0.787785 -0.135354
H6    H     H_    0.637592 0.174274 0.813619 0.102035
N7    N     N_R   0.791080 0.293860 0.847890 -0.040008
C8    C     C_R   0.094747 0.806569 0.007337 -0.038127
H7    H     H_    0.159544 0.839436 0.991150 0.178796
N8    N     N_R   0.052880 0.706130 0.997130 -0.054417
C9    C     C_R   0.063610 0.868543 0.068142 0.074297
C10   C     C_R   0.690619 0.148490 0.692335 0.068655
C11   C     C_R   0.980793 0.501059 0.677393 0.011843
C12   C     C_R   0.675729 0.501946 0.950703 0.010838
C13   C     C_R   0.998461 0.589201 0.300211 -0.124631
H8    H     H_    0.029951 0.673172 0.358959 0.097335
N9    N     N_R   0.002370 0.556830 0.208890 -0.040430
C14   C     C_R   0.209330 0.408433 0.904753 -0.078459
H9    H     H_    0.180367 0.323586 0.850798 0.101658
N10   N     N_R   0.153680 0.443190 0.946090 -0.049553
C15   C     C_R   0.314038 0.759059 0.222554 0.330103
N11   N     N_R   0.208920 0.706140 0.152110 -0.091084
C16   C     C_R   0.979640 0.257422 0.069464 -0.151790
H10   H     H_    0.954841 0.256303 0.128358 0.118003
N12   N     N_R   0.947120 0.293870 0.002870 -0.047357
C17   C     C_R   0.065905 0.249062 0.973352 -0.088264
H11   H     H_    0.114721 0.233503 0.937903 0.155743
N13   N     N_R   0.004360 0.293870 0.946090 -0.057034
C18   C     C_R   0.220860 0.754661 0.312900 -0.185623
H12   H     H_    0.200266 0.773779 0.376389 0.131728
N14   N     N_R   0.151690 0.706140 0.208890 -0.062541
C19   C     C_R   0.905795 0.406397 0.206599 -0.158757
H13   H     H_    0.850622 0.321597 0.178195 0.112638
N15   N     N_R   0.945990 0.443210 0.152110 -0.042753
C20   C     C_R   0.298112 0.590255 0.992455 -0.076497
H14   H     H_    0.349123 0.673303 0.014386 0.176589
N16   N     N_R   0.210060 0.556810 0.002870 -0.056438
Ni1   Ni    Ni4+2 0.999010 0.630300 0.130220 0.207416
Ni2   Ni    Ni4+2 0.000990 0.369700 0.869780 0.229739
Ni3   Ni    Ni4+2 0.130280 0.630280 0.000000 0.296000
Ni4   Ni    Ni4+2 0.869720 0.369720 0.000000 0.215170
C21   C     C_R   0.937907 0.495622 0.298706 0.118891
C22   C     C_R   0.299554 0.499394 0.930926 0.020487
C23   C     C_R   0.323208 0.789086 0.323462 -0.079088
C24   C     C_R   0.053245 0.227097 0.052816 0.130377
C25   C     C_3   0.473044 0.400304 0.831508 -0.404704
H15   H     H_    0.467025 0.322396 0.827763 0.160891
H16   H     H_    0.479425 0.401613 0.760613 0.179781
C26   C     C_3   0.368289 0.400312 0.825401 -0.347664
H17   H     H_    0.323938 0.403709 0.752544 0.214540
H18   H     H_    0.315037 0.321824 0.817389 0.159702
H19   H     H_    0.564505 0.424327 0.038180 0.177559
H20   H     H_    0.408605 0.418554 0.025434 0.210374
C27   C     C_3   0.563954 0.498138 0.035101 -0.377921
C28   C     C_3   0.574275 0.606134 0.935829 -0.401079
C29   C     C_3   0.573766 0.501744 0.937184 0.353684
H21   H     H_    0.645216 0.682160 0.008606 0.158309
H22   H     H_    0.579110 0.608468 0.864667 0.180285
C30   C     C_3   0.396827 0.500259 0.927904 0.310335
C31   C     C_3   0.459447 0.495173 0.028517 -0.371244
C32   C     C_3   0.470600 0.606419 0.932756 -0.362155
H23   H     H_    0.425848 0.612495 0.861958 0.199990
H24   H     H_    0.495852 0.680729 0.006380 0.178323
H25   H     H_    0.634343 0.571516 0.111425 0.167610
H26   H     H_    0.479421 0.565647 0.102853 0.186048
C33   C     C_R   0.539945 0.964654 0.605094 0.113867
C34   C     C_R   0.595775 0.057602 0.600781 0.037492
C35   C     C_R   0.551268 0.069527 0.511533 -0.186812
H27   H     H_    0.589441 0.145809 0.511685 0.155017
C36   C     C_R   0.458672 0.980956 0.420473 -0.107922
H28   H     H_    0.424551 0.989100 0.350272 0.163416
C37   C     C_R   0.414388 0.880939 0.419175 0.087332
C38   C     C_R   0.448964 0.875630 0.513577 0.115522
C39   C     C_3   0.479804 0.796117 0.535166 -0.411085
C40   C     C_3   0.580489 0.894555 0.636483 -0.458053
H29   H     H_    0.422210 0.743492 0.551610 0.200774
H30   H     H_    0.497945 0.751233 0.474455 0.217345
H31   H     H_    0.581129 0.898831 0.711510 0.198084
H32   H     H_    0.657426 0.907068 0.634976 0.210738
C41   C     C_R   0.877972 0.516810 0.431720 0.106346
C42   C     C_R   0.938979 0.487370 0.388553 -0.002832
C43   C     C_R   0.003044 0.446551 0.431965 -0.319148
H33   H     H_    0.046208 0.418735 0.394074 0.183465
C44   C     C_R   0.021304 0.453337 0.530269 0.391947
C45   C     C_R   0.970093 0.498086 0.580665 -0.137117
C46   C     C_R   0.892764 0.521057 0.527445 0.073705
C47   C     C_3   0.881484 0.621419 0.564833 0.361312
C48   C     C_3   0.864754 0.616122 0.458106 -0.583139
H34   H     H_    0.956805 0.695298 0.635507 0.130663
H35   H     H_    0.781605 0.596209 0.404005 0.243217
H36   H     H_    0.931784 0.686264 0.466909 0.174029
C49   C     C_R   0.042897 0.028441 0.150440 0.179311
C50   C     C_R   0.098715 0.984971 0.108633 -0.042908
C51   C     C_R   0.176900 0.052098 0.092959 -0.262206
H37   H     H_    0.230607 0.026953 0.072101 0.191875
C52   C     C_R   0.177315 0.146639 0.092027 0.475162
C53   C     C_R   0.095548 0.169821 0.102430 -0.113157
C54   C     C_R   0.040427 0.118862 0.146512 0.134272
C55   C     C_3   0.923776 0.073210 0.121243 -0.476600
C56   C     C_3   0.927361 0.974846 0.126335 -0.493123
H38   H     H_    0.913852 0.122856 0.186974 0.205945
H39   H     H_    0.866984 0.051921 0.039114 0.199710
H40   H     H_    0.920469 0.968659 0.195364 0.199561
H41   H     H_    0.872782 0.898046 0.047345 0.203171
N17   N     N_R   0.398560 0.807164 0.200893 0.205453
O1    O     O_R   0.495206 0.823007 0.255270 -0.416462
O2    O     O_R   0.383652 0.850710 0.139284 -0.424375
Cl1   Cl    Cl    0.139709 0.721896 0.805560 -0.682046
N18   N     N_R   0.096852 0.422392 0.580343 0.234151
O3    O     O_R   0.165263 0.480961 0.683025 -0.412736
O4    O     O_R   0.107312 0.344210 0.521276 -0.418981
Cl2   Cl    Cl    0.762756 0.593800 0.578680 -0.615350
Cl3   Cl    Cl    0.276233 0.227420 0.071316 -0.688299

loop_
_geom_bond_atom_site_label_1
_geom_bond_atom_site_label_2
_geom_bond_distance
_ccdc_geom_bond_type
C15   N17   1.429082 S    
N9    Ni1   1.860455 S    
C30   C32   1.556429 S    
C41   C42   1.383581 A    
N11   Ni3   1.893106 S    
C10   C34   1.400696 S    
N1    N8    1.396575 A    
C54   C55   1.503261 S    
C27   H25   1.114086 S    
C39   C40   1.517669 S    
N6    Ni1   1.879720 S    
C55   H38   1.112161 S    
C35   H27   1.084424 S    
C3    N3    1.329633 A    
C17   N13   1.341225 A    
C19   H13   1.082220 S    
N10   Ni2   1.879717 S    
C13   H8    1.080999 S    
C26   H17   1.112751 S    
C3    C11   1.375648 A    
C32   H24   1.111209 S    
C49   C56   1.496057 S    
C16   H10   1.073509 S    
C15   N11   1.326039 A    
C16   C24   1.382989 A    
C50   C51   1.407495 A    
C28   C32   1.537833 S    
C6    H5    1.078433 S    
C44   C45   1.411361 A    
C7    H6    1.081363 S    
C6    N6    1.326412 A    
C1    H1    1.080441 S    
N17   O1    1.300869 A    
C33   C40   1.493890 S    
C26   H18   1.110855 S    
C53   C54   1.405335 A    
N5    Ni2   1.860455 S    
C40   H32   1.112616 S    
C28   C29   1.553241 S    
C22   C30   1.466687 S    
C15   C23   1.385137 A    
C51   H37   1.081859 S    
C14   N10   1.326928 A    
C27   C31   1.518501 S    
C14   C22   1.374734 A    
C4    H3    1.076058 S    
C41   C46   1.367297 A    
N13   Ni2   1.859722 S    
C12   C29   1.470158 S    
C56   H40   1.111769 S    
C20   N16   1.326624 A    
C49   C54   1.374340 A    
C25   H15   1.109848 S    
C48   H35   1.111675 S    
C8    H7    1.076038 S    
C51   C52   1.405385 A    
C7    C10   1.364765 A    
C18   N14   1.325537 A    
C3    Cl1   1.754044 S    
C21   C42   1.399383 S    
C18   C23   1.377868 A    
C55   C56   1.504053 S    
C35   C36   1.375602 A    
C13   C21   1.371366 A    
N8    Ni3   1.863402 S    
C19   N15   1.319980 A    
C25   H16   1.112706 S    
N16   Ni3   1.863962 S    
C32   H23   1.112826 S    
C47   Cl2   1.784217 S    
N9    N15   1.384616 A    
N12   N13   1.396576 A    
N7    Ni4   1.893108 S    
C41   C48   1.491643 S    
C17   H11   1.076729 S    
N1    Ni1   1.859723 S    
C38   C39   1.492803 S    
C30   C31   1.546054 S    
H19   C27   1.113997 S    
N10   N16   1.384615 A    
C37   C38   1.389564 A    
C17   C24   1.397417 A    
C5    C11   1.371401 A    
C1    N1    1.325127 A    
C44   N18   1.441096 S    
C6    C12   1.389838 A    
C36   H28   1.083535 S    
N12   Ni4   1.863401 S    
C40   H31   1.111814 S    
C31   H26   1.114425 S    
C47   H34   1.110437 S    
C26   C30   1.552754 S    
N11   N14   1.396453 A    
C4    N4    1.324604 A    
N4    Ni4   1.863962 S    
C11   C45   1.402418 S    
N15   Ni4   1.893037 S    
C56   H41   1.112491 S    
N14   Ni1   1.880042 S    
C2    N2    1.326090 A    
C20   H14   1.073100 S    
C36   C37   1.400630 A    
C25   C29   1.556337 S    
C48   H36   1.111577 S    
C8    N8    1.342639 A    
C8    C9    1.382724 A    
C9    C50   1.457199 S    
C18   H12   1.080690 S    
N18   O4    1.301439 A    
C16   N12   1.325920 A    
C2    C10   1.370257 A    
C4    C12   1.387331 A    
C27   C29   1.551092 S    
C20   C22   1.373255 A    
N4    N6    1.384615 A    
C25   C26   1.539453 S    
N3    N5    1.384615 A    
C24   C53   1.467606 S    
C14   H9    1.079852 S    
C5    N5    1.319681 A    
C34   C35   1.394769 A    
N3    Ni3   1.893038 S    
C43   C44   1.382783 A    
N2    N7    1.396454 A    
C49   C50   1.394519 A    
C46   C47   1.495696 S    
C39   H29   1.111821 S    
C52   C53   1.417018 A    
H20   C31   1.114226 S    
C28   H22   1.112750 S    
C13   N9    1.331723 A    
C47   C48   1.520777 S    
C23   C37   1.409283 S    
C7    N7    1.323920 A    
C33   C38   1.371532 A    
C42   C43   1.397598 A    
N17   O2    1.301239 A    
C33   C34   1.391071 A    
C52   Cl3   1.760533 S    
C2    H2    1.080852 S    
C5    H4    1.079942 S    
C19   C21   1.358166 A    
C1    C9    1.372441 A    
C28   H21   1.110029 S    
C45   C46   1.391775 A    
C39   H30   1.112584 S    
C43   H33   1.085038 S    
N2    Ni2   1.880042 S    
N18   O3    1.301351 A    
C55   H39   1.112468 S    
