data_mof_unit_19939.cif
_audit_creation_date              2012-12-10T17:31:13-0500
_audit_creation_method            fapswitch 2.2
_symmetry_space_group_name_H-M    P1
_symmetry_Int_Tables_number       1
_space_group_crystal_system       triclinic
_cell_length_a                    11.980931
_cell_length_b                    12.89256
_cell_length_c                    15.249518
_cell_angle_alpha                 87.174955
_cell_angle_beta                  115.135815
_cell_angle_gamma                 93.497806
_cell_volume                      2127.77121107

loop_
_atom_site_label
_atom_site_type_symbol
_atom_type_description
_atom_site_fract_x
_atom_site_fract_y
_atom_site_fract_z
_atom_type_partial_charge
C1    C     C_R   0.477666 0.299423 0.499586 0.921985
C2    C     C_R   0.663842 0.969489 0.531117 0.555580
C3    C     C_R   0.348275 0.138065 0.474011 -0.298965
C4    C     C_R   0.651835 0.861790 0.526296 -0.301734
C5    C     C_R   0.568899 0.131993 0.521241 -0.241969
C6    C     C_R   0.431269 0.867910 0.479205 -0.246095
C7    C     C_R   0.558849 0.025502 0.513741 -0.006690
C8    C     C_R   0.441363 0.974375 0.486754 -0.008390
C9    C     C_R   0.006490 0.603375 0.413544 -0.302445
C10   C     C_R   0.993672 0.396967 0.586651 -0.317646
C11   C     C_R   0.126701 0.592934 0.421757 0.014690
C12   C     C_R   0.522361 0.700553 0.500486 0.924201
C13   C     C_R   0.873374 0.407171 0.578297 0.023859
C14   C     C_R   0.159129 0.455032 0.537469 -0.020829
C15   C     C_R   0.840939 0.545230 0.462712 -0.032525
C16   C     C_R   0.576299 0.497632 0.681132 0.869479
C17   C     C_R   0.424511 0.507971 0.318944 0.874155
C18   C     C_R   0.038685 0.462545 0.531531 0.089035
C19   C     C_R   0.961412 0.537810 0.468648 0.090429
C20   C     C_R   0.624845 0.518145 0.784651 -0.099325
C21   C     C_R   0.382333 0.534317 0.215698 -0.097589
C22   C     C_R   0.792754 0.559778 0.939410 -0.170509
C23   C     C_R   0.661427 0.618571 0.110652 0.537029
C24   C     C_R   0.225532 0.588138 0.059871 -0.171256
C25   C     C_R   0.751752 0.529212 0.843698 -0.189228
C26   C     C_R   0.259099 0.555500 0.156051 -0.192738
C27   C     C_R   0.540488 0.539541 0.821460 -0.183798
C28   C     C_R   0.471281 0.548988 0.179344 -0.186574
C29   C     C_R   0.579340 0.579197 0.913669 0.088192
C30   C     C_R   0.441455 0.589171 0.085924 0.090581
C31   C     C_R   0.707125 0.583000 0.975331 0.087192
C32   C     C_R   0.315597 0.602685 0.023782 0.086486
C33   C     C_R   0.493031 0.605335 0.948791 -0.134580
C34   C     C_R   0.368252 0.628713 0.887503 0.524468
C35   C     C_R   0.532533 0.605402 0.050058 -0.128305
C36   C     C_3   0.691736 0.750186 0.212967 -0.367996
C37   C     C_3   0.368085 0.756902 0.779876 -0.310022
C38   C     C_3   0.186627 0.976714 0.517557 -0.353006
C39   C     C_3   0.814353 0.021651 0.483159 -0.351801
C40   C     C_R   0.746994 0.607909 0.072218 -0.312565
C41   C     C_R   0.281420 0.627864 0.926114 -0.311790
C42   C     C_R   0.536000 0.811821 0.500842 -0.152165
C43   C     C_R   0.464103 0.188094 0.499439 -0.154345
C44   C     C_R   0.336339 0.030371 0.469259 0.556038
H1    H     H_    0.844739 0.615136 0.119469 0.163416
H2    H     H_    0.818782 0.514315 0.816100 0.156121
H3    H     H_    0.890973 0.564944 0.985311 0.128890
H4    H     H_    0.129328 0.600823 0.013513 0.129512
H5    H     H_    0.341658 0.828149 0.458269 0.212879
H6    H     H_    0.658501 0.171769 0.542188 0.212552
H7    H     H_    0.733148 0.817598 0.544309 0.175915
H8    H     H_    0.266904 0.182195 0.455946 0.175832
H9    H     H_    0.780416 0.602732 0.414756 0.154774
H10   H     H_    0.219663 0.397605 0.585573 0.118895
H11   H     H_    0.592589 0.768874 0.180506 0.180839
H12   H     H_    0.186107 0.642468 0.878426 0.169393
H13   H     H_    0.742309 0.798832 0.177999 0.174026
H14   H     H_    0.731354 0.770567 0.290501 0.183244
H15   H     H_    0.470513 0.766325 0.811992 0.167895
H16   H     H_    0.329428 0.812163 0.812467 0.158725
H17   H     H_    0.333632 0.777180 0.701500 0.194511
H18   H     H_    0.256439 0.937501 0.582828 0.156726
H19   H     H_    0.098248 0.930469 0.495902 0.197311
H20   H     H_    0.171268 0.055714 0.535352 0.164244
H21   H     H_    0.903046 0.067428 0.504877 0.197160
H22   H     H_    0.745125 0.060614 0.417375 0.167482
H23   H     H_    0.839172 0.356419 0.620926 0.133997
H24   H     H_    0.829512 0.942223 0.466166 0.159418
H25   H     H_    0.160907 0.643616 0.379081 0.132298
H26   H     H_    0.949518 0.662199 0.364591 0.179240
H27   H     H_    0.050830 0.338285 0.635722 0.147446
H28   H     H_    0.563628 0.524968 0.223753 0.210527
H29   H     H_    0.443709 0.522162 0.778047 0.209373
H30   H     H_    0.189018 0.546202 0.183375 0.153023
N1    N     N_R   0.799120 0.480200 0.517090 -0.104855
N2    N     N_R   0.200880 0.519800 0.482910 -0.096576
O1    O     O_R   0.580150 0.341050 0.504560 -0.625486
O2    O     O_3   0.328582 0.653545 0.789927 -0.617445
O3    O     O_3   0.220913 0.980688 0.439655 -0.617552
O4    O     O_3   0.779260 0.019181 0.560604 -0.617445
O5    O     O_R   0.419850 0.658950 0.495440 -0.624410
O6    O     O_R   0.388090 0.353760 0.493600 -0.624492
O7    O     O_R   0.611910 0.646240 0.506400 -0.624338
O8    O     O_R   0.650890 0.490020 0.640860 -0.617095
O9    O     O_R   0.349110 0.509980 0.359140 -0.617196
O10   O     O_R   0.458830 0.502730 0.629890 -0.609056
O11   O     O_R   0.541170 0.497270 0.370110 -0.612380
O12   O     O_3   0.706468 0.643441 0.207199 -0.639108
Zn1   Zn    Zn3+2 0.628240 0.491510 0.507320 0.944693
Zn2   Zn    Zn3+2 0.371760 0.508490 0.492680 0.948561

loop_
_geom_bond_atom_site_label_1
_geom_bond_atom_site_label_2
_ccdc_geom_bond_type
C15   N1    A    
C21   C26   A    
C20   C25   A    
C27   C29   A    
C1    O1    A    
C39   H24   S    
C14   C18   A    
C2    C7    A    
C7    C8    A    
C36   O12   S    
C15   C19   A    
O1    Zn1   S    
C30   C35   A    
C17   O9    A    
C15   H9    S    
C24   C26   A    
C36   H14   S    
C11   N2    A    
C38   O3    S    
C23   C40   A    
C29   C33   A    
C16   O8    A    
C31   C40   A    
C18   C19   A    
C12   C42   S    
C33   C35   A    
C1    C43   S    
C13   N1    A    
C22   C25   A    
C32   C41   A    
C10   H27   S    
C22   H3    S    
C5    C43   A    
C16   O10   A    
C39   H21   S    
C28   H28   S    
C34   C41   A    
C9    C19   A    
C38   H20   S    
C40   H1    S    
O7    Zn1   S    
O9    Zn2   S    
C3    C44   A    
C22   C31   A    
C4    H7    S    
C24   H4    S    
C9    H26   S    
C36   H13   S    
O10   Zn2   S    
C5    C7    A    
C6    C8    A    
C1    O6    A    
C17   C21   S    
C12   O7    A    
C14   N2    A    
C2    C4    A    
C24   C32   A    
C41   H12   S    
C16   C20   S    
C3    C43   A    
C33   C34   A    
C9    C11   A    
C37   H15   S    
O5    Zn2   S    
C14   H10   S    
C21   C28   A    
C23   C35   A    
C23   O12   S    
O11   Zn1   S    
C39   H22   S    
C5    H6    S    
O8    Zn1   S    
C38   H19   S    
C13   H23   S    
C17   O11   A    
C44   O3    S    
C8    C44   A    
C10   C13   A    
C37   H17   S    
C3    H8    S    
C11   H25   S    
C20   C27   A    
C37   O2    S    
O6    Zn2   S    
C39   O4    S    
C28   C30   A    
C29   C31   A    
C36   H11   S    
C34   O2    S    
C30   C32   A    
C4    C42   A    
C10   C18   A    
C26   H30   S    
C12   O5    A    
C6    H5    S    
C37   H16   S    
C2    O4    S    
N1    Zn1   S    
C6    C42   A    
C27   H29   S    
C25   H2    S    
N2    Zn2   S    
C38   H18   S    
