data_mof_unit_30077.cif
_audit_creation_date              2013-03-05T15:51:40-0500
_audit_creation_method            fapswitch 2.2
_symmetry_space_group_name_H-M    P1
_symmetry_Int_Tables_number       1
_space_group_crystal_system       triclinic
_cell_length_a                    30.162894
_cell_length_b                    22.508827
_cell_length_c                    18.188035
_cell_angle_alpha                 89.90169
_cell_angle_beta                  123.895441
_cell_angle_gamma                 89.911555
_cell_volume                      10249.8328227

loop_
_atom_site_label
_atom_site_type_symbol
_atom_site_description
_atom_site_fract_x
_atom_site_fract_y
_atom_site_fract_z
_atom_type_partial_charge
C1    C     C_R   0.544821 0.580736 0.742618 -0.112443
C2    C     C_R   0.461548 0.402583 0.274559 -0.133268
C3    C     C_R   0.467557 0.607137 0.292576 -0.114855
C4    C     C_R   0.545014 0.420098 0.743291 -0.145446
C5    C     C_R   0.044724 0.080828 0.742480 -0.112756
C6    C     C_R   0.961509 0.902758 0.274372 -0.133447
C7    C     C_R   0.967552 0.107111 0.292537 -0.114884
C8    C     C_R   0.045001 0.920079 0.743269 -0.145456
H1    H     H_    0.518718 0.577252 0.765594 0.086125
H2    H     H_    0.489075 0.396851 0.255172 0.085212
H3    H     H_    0.499002 0.618302 0.283665 0.095430
H4    H     H_    0.518939 0.424318 0.766218 0.088312
H5    H     H_    0.018586 0.077330 0.765387 0.086126
H6    H     H_    0.989042 0.897109 0.254975 0.085242
H7    H     H_    0.998998 0.118259 0.283621 0.095414
H8    H     H_    0.018923 0.924301 0.766191 0.088352
N1    N     N_R   0.532910 0.558440 0.665240 -0.038933
N2    N     N_R   0.467090 0.441560 0.334760 -0.039156
N3    N     N_R   0.467090 0.558440 0.334760 -0.042087
N4    N     N_R   0.532910 0.441560 0.665240 -0.039740
N5    N     N_R   0.032910 0.058440 0.665240 -0.038883
N6    N     N_R   0.967090 0.941560 0.334760 -0.039149
N7    N     N_R   0.967090 0.058440 0.334760 -0.042081
N8    N     N_R   0.032910 0.941560 0.665240 -0.039733
C9    C     C_R   0.644136 0.583597 0.575334 -0.012833
C10   C     C_R   0.368692 0.395935 0.426061 -0.061744
C11   C     C_R   0.355624 0.582977 0.425840 -0.041396
C12   C     C_R   0.630001 0.394603 0.576283 -0.052202
C13   C     C_R   0.144140 0.083585 0.575331 -0.012737
C14   C     C_R   0.868740 0.895889 0.426050 -0.061687
C15   C     C_R   0.855634 0.083008 0.425830 -0.041412
C16   C     C_R   0.130014 0.894614 0.576280 -0.051985
H9    H     H_    0.678220 0.580139 0.643156 0.108651
H10   H     H_    0.338748 0.385914 0.358155 0.120457
H11   H     H_    0.320791 0.578596 0.358900 0.114132
H12   H     H_    0.656667 0.382849 0.645233 0.123743
H13   H     H_    0.178225 0.080116 0.643152 0.108775
H14   H     H_    0.838844 0.885836 0.358134 0.120595
H15   H     H_    0.820802 0.078646 0.358884 0.114060
H16   H     H_    0.156723 0.882879 0.645231 0.123320
N9    N     N_R   0.597030 0.558910 0.545540 -0.055104
N10   N     N_R   0.402970 0.441090 0.454460 -0.053798
N11   N     N_R   0.402970 0.558910 0.454460 -0.055056
N12   N     N_R   0.597030 0.441090 0.545540 -0.056571
N13   N     N_R   0.097030 0.058910 0.545540 -0.055128
N14   N     N_R   0.902970 0.941090 0.454460 -0.053801
N15   N     N_R   0.902970 0.058910 0.454460 -0.055036
N16   N     N_R   0.097030 0.941090 0.545540 -0.056536
C17   C     C_R   0.595751 0.583979 0.428205 -0.138004
C18   C     C_R   0.419673 0.393974 0.573896 -0.131356
C19   C     C_R   0.405464 0.585198 0.573048 -0.117183
C20   C     C_R   0.582793 0.394655 0.428609 -0.134703
C21   C     C_R   0.095751 0.083973 0.428202 -0.137911
C22   C     C_R   0.919695 0.893946 0.573886 -0.131329
C23   C     C_R   0.905466 0.085215 0.573041 -0.117302
C24   C     C_R   0.082764 0.894635 0.428596 -0.134576
H17   H     H_    0.585878 0.582038 0.361278 0.091528
H18   H     H_    0.437470 0.381886 0.642403 0.103981
H19   H     H_    0.416756 0.584793 0.640879 0.093888
H20   H     H_    0.569573 0.384015 0.361741 0.097461
H21   H     H_    0.085874 0.082032 0.361274 0.091504
H22   H     H_    0.937490 0.881855 0.642390 0.103922
H23   H     H_    0.916747 0.084811 0.640865 0.093835
H24   H     H_    0.069498 0.883957 0.361717 0.097597
N17   N     N_R   0.566200 0.559270 0.454460 -0.044436
N18   N     N_R   0.433800 0.440730 0.545540 -0.048237
N19   N     N_R   0.433800 0.559270 0.545540 -0.045330
N20   N     N_R   0.566200 0.440730 0.454460 -0.047198
N21   N     N_R   0.066200 0.059270 0.454460 -0.044443
N22   N     N_R   0.933800 0.940730 0.545540 -0.048241
N23   N     N_R   0.933800 0.059270 0.545540 -0.045317
N24   N     N_R   0.066200 0.940730 0.454460 -0.047232
C25   C     C_R   0.393260 0.608856 0.292625 -0.104594
C26   C     C_R   0.618781 0.419059 0.743520 -0.147339
C27   C     C_R   0.618476 0.582339 0.741784 -0.080900
C28   C     C_R   0.387145 0.401585 0.272954 -0.146696
C29   C     C_R   0.893252 0.108848 0.292577 -0.104550
C30   C     C_R   0.118774 0.919028 0.743512 -0.147428
C31   C     C_R   0.118427 0.082496 0.741771 -0.081080
C32   C     C_R   0.887110 0.901671 0.272798 -0.147080
H25   H     H_    0.355735 0.620753 0.282998 0.125665
H26   H     H_    0.660153 0.422910 0.765989 0.101989
H27   H     H_    0.659606 0.579989 0.762426 0.095704
H28   H     H_    0.345849 0.396278 0.249848 0.109957
H29   H     H_    0.855714 0.120751 0.282901 0.125651
H30   H     H_    0.160149 0.922832 0.765985 0.101905
H31   H     H_    0.159574 0.080463 0.762437 0.096427
H32   H     H_    0.845810 0.896312 0.249661 0.110425
N25   N     N_R   0.421050 0.559750 0.334770 -0.046167
N26   N     N_R   0.578950 0.440250 0.665230 -0.046253
N27   N     N_R   0.578950 0.559750 0.665230 -0.044066
N28   N     N_R   0.421050 0.440250 0.334770 -0.043073
N29   N     N_R   0.921050 0.059750 0.334770 -0.046144
N30   N     N_R   0.078950 0.940250 0.665230 -0.046226
N31   N     N_R   0.078950 0.059750 0.665230 -0.044113
N32   N     N_R   0.921050 0.940250 0.334770 -0.043072
C33   C     C_R   0.598690 0.595657 0.793249 0.050834
C34   C     C_R   0.413303 0.373574 0.239175 0.063519
C35   C     C_R   0.422240 0.640802 0.266913 0.053628
C36   C     C_R   0.598937 0.405580 0.794729 0.069873
C37   C     C_R   0.098553 0.095839 0.793124 0.050905
C38   C     C_R   0.913235 0.873824 0.238846 0.063618
C39   C     C_R   0.922231 0.140771 0.266840 0.053619
C40   C     C_R   0.098917 0.905538 0.794700 0.069829
C41   C     C_R   0.644711 0.600638 0.503159 0.103707
C42   C     C_R   0.378963 0.364459 0.499302 0.096652
C43   C     C_R   0.356036 0.601102 0.498514 0.114977
C44   C     C_R   0.621661 0.363960 0.504121 0.098291
C45   C     C_R   0.144715 0.100621 0.503154 0.103670
C46   C     C_R   0.879013 0.864401 0.499285 0.096409
C47   C     C_R   0.856048 0.101143 0.498501 0.115048
C48   C     C_R   0.121657 0.863966 0.504111 0.098494
Ni1   Ni    Ni4+2 0.483090 0.500000 0.604440 0.212662
Ni2   Ni    Ni4+2 0.516910 0.500000 0.395560 0.216937
Ni3   Ni    Ni4+2 0.983090 0.000000 0.604440 0.212661
Ni4   Ni    Ni4+2 0.016910 0.000000 0.395560 0.216927
Ni5   Ni    Ni4+2 0.586780 0.500000 0.604440 0.226966
Ni6   Ni    Ni4+2 0.413220 0.500000 0.395560 0.237736
Ni7   Ni    Ni4+2 0.086780 0.000000 0.604440 0.226998
Ni8   Ni    Ni4+2 0.913220 0.000000 0.395560 0.237769
C49   C     C_R   0.223128 0.670073 0.421942 -0.250920
C50   C     C_R   0.717969 0.235427 0.580276 -0.252833
C51   C     C_R   0.778252 0.668644 0.581689 -0.240361
C52   C     C_R   0.282365 0.236658 0.424230 -0.271960
C53   C     C_R   0.723163 0.170181 0.421893 -0.251070
C54   C     C_R   0.218131 0.735621 0.580222 -0.252918
C55   C     C_R   0.278261 0.168603 0.581660 -0.240161
C56   C     C_R   0.782473 0.736527 0.424209 -0.272118
H33   H     H_    0.194962 0.701128 0.371670 0.165051
H34   H     H_    0.759632 0.225995 0.630383 0.170168
H35   H     H_    0.806401 0.699248 0.632358 0.168453
H36   H     H_    0.240565 0.227661 0.374781 0.166979
H37   H     H_    0.695028 0.201272 0.371654 0.165041
H38   H     H_    0.259835 0.726274 0.630177 0.170407
H39   H     H_    0.306424 0.199188 0.632348 0.168481
H40   H     H_    0.740691 0.727497 0.374695 0.166937
C57   C     C_R   0.268503 0.654616 0.424052 0.372273
C58   C     C_R   0.697969 0.291565 0.578417 0.348039
C59   C     C_R   0.732806 0.653112 0.579266 0.346211
C60   C     C_R   0.302098 0.292991 0.426765 0.335984
C61   C     C_R   0.768557 0.154733 0.424055 0.372223
C62   C     C_R   0.198097 0.791760 0.578262 0.347794
C63   C     C_R   0.232827 0.153059 0.579269 0.346166
C64   C     C_R   0.802199 0.792852 0.426680 0.336157
C65   C     C_R   0.308253 0.619232 0.494861 -0.041812
C66   C     C_R   0.645361 0.306382 0.507861 -0.035443
C67   C     C_R   0.692984 0.618396 0.507907 -0.038011
C68   C     C_R   0.355161 0.307046 0.496215 -0.031244
C69   C     C_R   0.808265 0.119293 0.494826 -0.041871
C70   C     C_R   0.145405 0.806425 0.507874 -0.035501
C71   C     C_R   0.192985 0.118374 0.507889 -0.037981
C72   C     C_R   0.855230 0.806970 0.496203 -0.031292
C73   C     C_R   0.300810 0.598885 0.560296 -0.173762
C74   C     C_R   0.613818 0.264190 0.442190 -0.197945
C75   C     C_R   0.700652 0.598690 0.442466 -0.172583
C76   C     C_R   0.387073 0.264032 0.560701 -0.191973
C77   C     C_R   0.800766 0.098883 0.560170 -0.173896
C78   C     C_R   0.113832 0.764122 0.442431 -0.198074
C79   C     C_R   0.200622 0.098707 0.442397 -0.172395
C80   C     C_R   0.887120 0.764009 0.560809 -0.191970
H41   H     H_    0.330095 0.570490 0.613729 0.134469
H42   H     H_    0.573052 0.274325 0.388785 0.138036
H43   H     H_    0.671483 0.570760 0.388621 0.131217
H44   H     H_    0.428100 0.273491 0.613284 0.138253
H45   H     H_    0.830020 0.070443 0.613567 0.134493
H46   H     H_    0.073014 0.774164 0.389153 0.138193
H47   H     H_    0.171439 0.070799 0.388532 0.131260
H48   H     H_    0.928124 0.773508 0.613452 0.138186
C81   C     C_R   0.256587 0.617280 0.559670 -0.146492
C82   C     C_R   0.635330 0.209454 0.442605 -0.156278
C83   C     C_R   0.744894 0.617288 0.443388 -0.157410
C84   C     C_R   0.365694 0.209201 0.560091 -0.157248
C85   C     C_R   0.756517 0.117252 0.559484 -0.146513
C86   C     C_R   0.135372 0.709388 0.442918 -0.156153
C87   C     C_R   0.244847 0.117327 0.443283 -0.157276
C88   C     C_R   0.865741 0.709189 0.560253 -0.157362
H49   H     H_    0.753884 0.106056 0.614888 0.135739
H50   H     H_    0.112332 0.679489 0.387527 0.136485
H51   H     H_    0.247400 0.106936 0.387603 0.129320
H52   H     H_    0.889111 0.678742 0.615102 0.137264
H53   H     H_    0.254007 0.606156 0.615147 0.135748
H54   H     H_    0.612332 0.179659 0.387056 0.136408
H55   H     H_    0.747476 0.606855 0.387749 0.129115
H56   H     H_    0.389089 0.178700 0.614854 0.137341
C89   C     C_R   0.218838 0.655054 0.492438 0.080443
C90   C     C_R   0.688243 0.195971 0.509816 0.082142
C91   C     C_R   0.782564 0.654547 0.511010 0.085342
C92   C     C_R   0.312608 0.196271 0.493519 0.085205
C93   C     C_R   0.718804 0.155077 0.492294 0.080552
C94   C     C_R   0.188341 0.696022 0.509991 0.082034
C95   C     C_R   0.282533 0.154560 0.510926 0.085175
C96   C     C_R   0.812679 0.696212 0.493618 0.085191
C97   C     C_R   0.408711 0.700201 0.224431 0.121475
C98   C     C_R   0.630976 0.390114 0.890229 0.124980
C99   C     C_R   0.631172 0.611225 0.888474 0.123224
C100  C     C_R   0.397238 0.317557 0.188897 0.129762
C101  C     C_R   0.908698 0.200134 0.224265 0.121527
C102  C     C_R   0.130919 0.890017 0.890176 0.125048
C103  C     C_R   0.130813 0.111625 0.888259 0.123225
C104  C     C_R   0.897099 0.818035 0.188109 0.129692
C105  C     C_R   0.421754 0.778178 0.145912 -0.184576
C106  C     C_R   0.636842 0.357215 0.022682 -0.188836
C107  C     C_R   0.638944 0.644028 0.022408 -0.190948
C108  C     C_R   0.409978 0.241107 0.108526 -0.186895
C109  C     C_R   0.921650 0.277927 0.145402 -0.184531
C110  C     C_R   0.136675 0.856850 0.022424 -0.188879
C111  C     C_R   0.137924 0.145908 0.021026 -0.191181
C112  C     C_R   0.909387 0.742480 0.106129 -0.186905
C113  C     C_R   0.438232 0.725175 0.193801 -0.151657
C114  C     C_R   0.606547 0.377896 0.935509 -0.166706
C115  C     C_R   0.607859 0.622536 0.935767 -0.156928
C116  C     C_R   0.424559 0.295342 0.152646 -0.173941
C117  C     C_R   0.938131 0.224964 0.193372 -0.151739
C118  C     C_R   0.106424 0.877588 0.935288 -0.166720
C119  C     C_R   0.107079 0.124160 0.934560 -0.157117
C120  C     C_R   0.923974 0.796524 0.150715 -0.174053
C121  C     C_R   0.364793 0.731581 0.211979 -0.221487
C122  C     C_R   0.686629 0.385046 0.935839 -0.244892
C123  C     C_R   0.686458 0.617330 0.931726 -0.235967
C124  C     C_R   0.356722 0.283513 0.183582 -0.240065
C125  C     C_R   0.864865 0.231617 0.211971 -0.221561
C126  C     C_R   0.186591 0.885093 0.935919 -0.245094
C127  C     C_R   0.186243 0.116789 0.932372 -0.235029
C128  C     C_R   0.856998 0.783532 0.183407 -0.240055
C129  C     C_R   0.346794 0.784432 0.162185 0.081574
C130  C     C_R   0.717807 0.363812 0.023265 0.085402
C131  C     C_R   0.718188 0.639887 0.017798 0.083659
C132  C     C_R   0.340914 0.229153 0.138539 0.082989
C133  C     C_R   0.846840 0.284416 0.162044 0.081536
C134  C     C_R   0.217724 0.863747 0.023294 0.085400
C135  C     C_R   0.217717 0.140041 0.018094 0.083720
C136  C     C_R   0.841102 0.729402 0.137748 0.082893
C137  C     C_R   0.374891 0.806368 0.126233 0.171320
C138  C     C_R   0.691821 0.347413 0.065311 0.151839
C139  C     C_R   0.693364 0.655828 0.061867 0.163438
C140  C     C_R   0.367313 0.208836 0.098703 0.173318
C141  C     C_R   0.874859 0.306213 0.125871 0.171307
C142  C     C_R   0.191675 0.847168 0.065171 0.151856
C143  C     C_R   0.192512 0.156988 0.061193 0.163157
C144  C     C_R   0.867105 0.709754 0.096896 0.173075
C145  C     C_R   0.298066 0.811842 0.138410 0.034578
C146  C     C_R   0.773035 0.351595 0.065424 0.070397
C147  C     C_R   0.772182 0.655169 0.054927 0.066878
C148  C     C_R   0.295811 0.197935 0.123823 0.056199
C149  C     C_R   0.798156 0.311904 0.138354 0.034576
C150  C     C_R   0.272976 0.851598 0.065557 0.070529
C151  C     C_R   0.271863 0.154992 0.055748 0.067216
C152  C     C_R   0.796260 0.697790 0.123419 0.056272
C153  C     C_R   0.803276 0.375349 0.034813 -0.188356
C154  C     C_R   0.272330 0.798901 0.181813 -0.153870
C155  C     C_R   0.271759 0.210508 0.170229 -0.176811
C156  C     C_R   0.801423 0.632746 0.021603 -0.186261
C157  C     C_R   0.303274 0.875471 0.035128 -0.188618
C158  C     C_R   0.772480 0.299103 0.181903 -0.153719
C159  C     C_R   0.772550 0.709656 0.170569 -0.176140
C160  C     C_R   0.301419 0.131991 0.023329 -0.185924
C161  C     C_R   0.854261 0.354018 0.066834 -0.189934
C162  C     C_R   0.220313 0.818069 0.146915 -0.181390
C163  C     C_R   0.221310 0.188471 0.140638 -0.195508
C164  C     C_R   0.849005 0.659083 0.044051 -0.187178
C165  C     C_R   0.354304 0.854218 0.067272 -0.190138
C166  C     C_R   0.720497 0.318371 0.147105 -0.181354
C167  C     C_R   0.722344 0.687047 0.141558 -0.195239
C168  C     C_R   0.349259 0.157950 0.046307 -0.187871
H57   H     H_    0.875981 0.372195 0.040536 0.146051
H58   H     H_    0.201300 0.806393 0.180890 0.167598
H59   H     H_    0.203176 0.200326 0.175969 0.156435
H60   H     H_    0.869604 0.642254 0.014992 0.145133
H61   H     H_    0.376076 0.872498 0.041132 0.145994
H62   H     H_    0.701534 0.306821 0.181204 0.167484
H63   H     H_    0.704507 0.698246 0.177571 0.155318
H64   H     H_    0.370142 0.140621 0.018008 0.144771
H65   H     H_    0.705063 0.392834 0.900493 0.123120
H66   H     H_    0.342404 0.712180 0.235578 0.149416
H67   H     H_    0.336238 0.301050 0.211858 0.123328
H68   H     H_    0.704035 0.610066 0.895005 0.125712
H69   H     H_    0.205078 0.893100 0.900707 0.122917
H70   H     H_    0.842564 0.212329 0.235822 0.149564
H71   H     H_    0.836920 0.800543 0.212689 0.123384
H72   H     H_    0.204157 0.108094 0.896503 0.124329
H73   H     H_    0.563816 0.381919 0.902985 0.115400
H74   H     H_    0.472976 0.703000 0.203672 0.119823
H75   H     H_    0.456785 0.319925 0.157255 0.116211
H76   H     H_    0.565409 0.617272 0.905119 0.117217
H77   H     H_    0.063675 0.881484 0.902653 0.115402
H78   H     H_    0.972800 0.202700 0.203089 0.119720
H79   H     H_    0.955840 0.821532 0.154760 0.116406
H80   H     H_    0.064498 0.119673 0.903229 0.117590
H81   H     H_    0.444020 0.795309 0.120009 0.136970
H82   H     H_    0.616775 0.345757 0.054984 0.127615
H83   H     H_    0.619734 0.655046 0.056270 0.129718
H84   H     H_    0.430800 0.225449 0.079247 0.132164
H85   H     H_    0.943847 0.294945 0.119304 0.136871
H86   H     H_    0.116559 0.845238 0.054592 0.127625
H87   H     H_    0.118415 0.157792 0.054111 0.130038
H88   H     H_    0.929856 0.727363 0.075992 0.132249
H89   H     H_    0.788249 0.410794 0.986446 0.135833
H90   H     H_    0.292036 0.774486 0.243358 0.205726
H91   H     H_    0.291209 0.237378 0.229384 0.148411
H92   H     H_    0.787826 0.595027 0.977525 0.134855
H93   H     H_    0.288265 0.910952 0.986823 0.135677
H94   H     H_    0.792211 0.274734 0.243489 0.205549
H95   H     H_    0.792103 0.736339 0.229910 0.147836
H96   H     H_    0.287937 0.094076 0.979640 0.134449
N33   N     N_R   0.276015 0.680577 0.359506 0.212020
O1    O     O_R   0.320767 0.706848 0.384840 -0.440511
O2    O     O_R   0.235557 0.686652 0.277767 -0.440132
N34   N     N_R   0.733608 0.334581 0.642657 0.220630
O3    O     O_R   0.738588 0.386672 0.616887 -0.399145
O4    O     O_R   0.767517 0.318545 0.724578 -0.406543
N35   N     N_R   0.725365 0.678491 0.644128 0.221440
O5    O     O_R   0.681221 0.706388 0.619007 -0.385560
O6    O     O_R   0.765685 0.682789 0.726228 -0.405918
N36   N     N_R   0.265771 0.336853 0.364658 0.220846
O7    O     O_R   0.261540 0.388333 0.392737 -0.388917
O8    O     O_R   0.230763 0.322119 0.282716 -0.421712
N37   N     N_R   0.776119 0.180734 0.359586 0.212061
O9    O     O_R   0.820910 0.206941 0.384998 -0.440462
O10   O     O_R   0.735681 0.186901 0.277852 -0.440084
N38   N     N_R   0.233761 0.834917 0.642189 0.220813
O11   O     O_R   0.238378 0.887052 0.616096 -0.399076
O12   O     O_R   0.268040 0.818987 0.724022 -0.406237
N39   N     N_R   0.225416 0.178409 0.644178 0.221430
O13   O     O_R   0.181296 0.206344 0.619109 -0.385570
O14   O     O_R   0.265747 0.182652 0.726278 -0.405406
N40   N     N_R   0.765880 0.836651 0.364422 0.220788
O15   O     O_R   0.761508 0.888124 0.392352 -0.388946
O16   O     O_R   0.730998 0.821850 0.282460 -0.421046

loop_
_geom_bond_atom_site_label_1
_geom_bond_atom_site_label_2
_geom_bond_distance
_ccdc_geom_bond_type
N21   Ni4   1.836413 S    
C156  H92   1.080931 S    
C157  H93   1.080532 S    
C31   H31   1.078507 S    
C9    C41   1.376346 A    
C89   C94   1.457520 S    
C2    C34   1.384927 A    
C92   C95   1.458282 S    
C143  C163  1.396458 A    
C45   C71   1.465944 S    
C46   C72   1.465308 S    
C116  H75   1.081214 S    
C13   H13   1.081476 S    
C28   C34   1.392090 A    
C74   C82   1.389620 A    
C39   C101  1.481189 S    
C78   C86   1.389628 A    
C154  H90   1.078461 S    
C3    N3    1.341465 A    
N40   O15   1.301562 A    
N29   Ni8   1.836881 S    
C4    H4    1.080377 S    
C67   C75   1.405515 A    
C153  C161  1.390181 A    
C5    H5    1.080638 S    
C134  C150  1.418475 A    
C23   C47   1.389639 A    
C110  C118  1.394780 A    
C7    H7    1.077536 S    
C21   N21   1.344300 A    
C8    H8    1.080378 S    
C28   H28   1.076649 S    
C40   C102  1.482106 S    
C47   C69   1.462650 S    
C25   H25   1.077654 S    
C44   C66   1.462154 S    
C118  H77   1.080947 S    
C5    C37   1.390509 A    
C146  C149  1.415856 A    
N13   N21   1.375058 A    
N39   O13   1.301493 A    
N26   Ni5   1.836881 S    
C161  H57   1.083987 S    
C9    N9    1.328896 A    
C26   C36   1.392542 A    
N31   Ni7   1.839124 S    
N36   O7    1.301576 A    
C12   N12   1.330837 A    
C73   H41   1.082529 S    
C106  C138  1.401434 A    
C66   C74   1.404617 A    
C108  C116  1.392474 A    
C110  C142  1.401355 A    
C55   C63   1.391896 A    
C8    C40   1.388312 A    
N15   N23   1.375108 A    
C159  C167  1.393825 A    
C160  C168  1.388947 A    
C108  H84   1.084084 S    
C133  C141  1.417080 A    
C102  C118  1.404776 A    
C156  C164  1.388469 A    
C137  C165  1.395319 A    
C13   C45   1.376359 A    
C24   N24   1.345216 A    
C146  C153  1.412352 A    
N6    N32   1.389160 A    
C135  C151  1.415824 A    
N9    N17   1.375058 A    
C150  C157  1.412389 A    
N22   Ni3   1.836413 S    
C35   C97   1.481291 S    
C148  C151  1.413441 A    
C62   N38   1.436935 S    
C26   N26   1.336536 A    
C129  C137  1.416995 A    
C32   H32   1.076765 S    
C33   C99   1.480830 S    
C12   C44   1.377335 A    
C79   H47   1.082221 S    
C6    C38   1.384496 A    
C159  H95   1.080179 S    
N14   N22   1.375057 A    
C3    H3    1.077537 S    
N11   Ni6   1.836978 S    
C100  C116  1.403474 A    
C5    N5    1.341311 A    
C54   H38   1.084404 S    
C19   C43   1.389625 A    
C147  C152  1.413091 A    
C106  H82   1.083819 S    
C157  C165  1.390296 A    
C111  H87   1.083951 S    
C129  C145  1.419595 A    
C112  H88   1.083915 S    
C23   N23   1.340866 A    
C71   C79   1.405525 A    
C136  C152  1.419187 A    
N18   Ni1   1.836413 S    
N1    N27   1.389163 A    
C99   C123  1.398723 A    
N1    Ni1   1.835479 S    
C97   C121  1.402492 A    
C14   H14   1.072103 S    
C103  C119  1.404949 A    
N14   Ni8   1.835014 S    
C30   N30   1.336629 A    
C101  C125  1.402517 A    
N4    Ni1   1.829426 S    
C130  C146  1.418370 A    
C98   C114  1.404798 A    
C51   C59   1.391919 A    
C17   H17   1.080857 S    
C52   H36   1.084514 S    
C49   C57   1.391256 A    
C54   C94   1.399895 A    
N28   Ni6   1.839126 S    
C20   H20   1.075123 S    
C21   H21   1.080849 S    
C70   C78   1.404547 A    
C53   C61   1.391256 A    
N33   O2    1.301293 A    
C23   H23   1.081377 S    
C24   H24   1.075146 S    
C164  H60   1.084031 S    
C165  H61   1.083958 S    
C158  H94   1.078478 S    
C27   N27   1.330948 A    
C58   N34   1.436816 S    
C151  C160  1.412960 A    
N6    Ni4   1.835481 S    
C29   H29   1.077693 S    
C7    C39   1.394329 A    
C82   H54   1.083427 S    
C124  H67   1.075388 S    
C107  C115  1.397295 A    
C125  H70   1.074636 S    
C24   C48   1.391505 A    
N16   N24   1.375108 A    
C105  C113  1.393125 A    
N34   O4    1.301422 A    
C160  H96   1.080779 S    
C30   C40   1.392579 A    
C163  H59   1.084166 S    
C77   H45   1.082537 S    
C52   C92   1.399298 A    
N5    N31   1.389163 A    
C75   H43   1.082224 S    
C76   C84   1.390568 A    
C55   C95   1.399220 A    
N7    N29   1.389069 A    
C32   C38   1.392007 A    
C56   C96   1.399265 A    
N38   O12   1.301346 A    
C6    H6    1.075596 S    
C34   C100  1.473932 S    
C19   N19   1.340841 A    
C126  H69   1.073224 S    
C91   C96   1.458349 S    
N15   Ni8   1.836978 S    
C133  C149  1.419662 A    
C122  H65   1.073207 S    
N35   O6    1.301353 A    
C48   C70   1.461989 S    
C125  C133  1.405784 A    
C162  H58   1.083955 S    
C57   N33   1.437261 S    
C10   N10   1.333506 A    
C139  C167  1.396776 A    
C83   H55   1.083490 S    
C114  H73   1.080944 S    
C74   H42   1.083373 S    
C132  C148  1.419033 A    
C37   C103  1.480671 S    
C1    N1    1.341864 A    
C130  C138  1.415602 A    
C14   N14   1.333485 A    
C63   N39   1.437210 S    
C64   C72   1.416156 A    
C58   C66   1.414802 A    
C7    N7    1.341346 A    
C63   C71   1.416130 A    
C104  C120  1.403210 A    
C122  C130  1.403353 A    
C134  C142  1.415702 A    
C3    C35   1.394427 A    
C138  C166  1.395822 A    
C59   N35   1.437231 S    
C126  C134  1.403445 A    
N11   N19   1.375108 A    
C15   C47   1.377398 A    
C31   C37   1.395269 A    
N40   O16   1.301412 A    
N9    Ni5   1.835014 S    
C13   N13   1.328890 A    
C121  C129  1.405728 A    
C148  C155  1.414889 A    
N5    Ni3   1.835479 S    
C10   C42   1.381377 A    
C152  C159  1.415073 A    
C64   N40   1.436494 S    
N34   O3    1.301625 A    
C80   H48   1.082978 S    
C14   C46   1.381403 A    
C57   C65   1.414835 A    
C55   H39   1.084433 S    
C56   H40   1.084509 S    
N36   O8    1.301419 A    
C6    N6    1.339792 A    
C27   C33   1.394899 A    
C124  C132  1.401853 A    
C107  H83   1.083826 S    
N37   O10   1.301274 A    
C155  C163  1.393220 A    
N7    Ni4   1.829425 S    
N27   Ni5   1.839124 S    
C86   H50   1.083385 S    
C111  C143  1.402566 A    
N13   Ni7   1.835014 S    
C109  C117  1.392977 A    
C168  H64   1.084119 S    
C15   N15   1.330912 A    
C16   N16   1.330848 A    
C112  C144  1.400646 A    
C26   H26   1.078607 S    
C127  C135  1.399818 A    
N16   Ni7   1.836982 S    
C145  C150  1.415864 A    
C18   H18   1.080316 S    
C1    H1    1.080622 S    
C50   C58   1.391565 A    
N10   Ni6   1.835014 S    
C17   C41   1.392097 A    
C22   H22   1.080308 S    
N3    Ni2   1.829425 S    
C54   C62   1.391637 A    
C155  H91   1.080232 S    
C31   N31   1.331709 A    
C38   C104  1.473192 S    
C166  H62   1.083950 S    
C105  C137  1.400338 A    
C11   C43   1.377426 A    
C110  H86   1.083830 S    
C60   N36   1.436541 S    
C82   C90   1.398146 A    
C111  C119  1.396630 A    
C42   C68   1.465177 S    
C144  C164  1.393950 A    
C109  C141  1.400271 A    
C81   H53   1.083371 S    
C86   C94   1.398109 A    
C154  C162  1.391723 A    
C140  C168  1.394094 A    
C141  C161  1.395256 A    
C103  C127  1.399034 A    
C101  C117  1.404649 A    
C78   H46   1.083359 S    
C16   C48   1.377305 A    
C51   H35   1.084426 S    
C52   C60   1.391425 A    
C145  C154  1.412119 A    
C49   H33   1.084421 S    
C149  C158  1.412179 A    
N24   Ni4   1.830400 S    
C11   H11   1.081635 S    
C62   C70   1.414730 A    
C90   C93   1.457617 S    
C158  C166  1.391853 A    
C25   N25   1.337737 A    
C131  C147  1.415154 A    
C27   H27   1.078458 S    
C29   N29   1.337840 A    
C123  H68   1.071897 S    
C50   C90   1.399916 A    
C11   N11   1.330930 A    
C12   H12   1.078321 S    
N33   O1    1.301445 A    
C73   C81   1.390010 A    
C18   C42   1.391897 A    
C21   C45   1.392082 A    
C115  H76   1.081130 S    
C68   C76   1.404851 A    
C123  C131  1.399138 A    
C69   C77   1.404627 A    
C77   C85   1.390013 A    
C153  H89   1.080552 S    
N35   O5    1.301483 A    
C72   C80   1.404866 A    
C2    N2    1.340201 A    
N17   Ni2   1.836413 S    
C60   C68   1.416119 A    
C61   C69   1.414816 A    
C98   C122  1.401784 A    
C107  C139  1.402885 A    
C22   C46   1.391973 A    
C17   N17   1.344322 A    
C102  C126  1.401833 A    
C128  C136  1.401878 A    
C87   C95   1.398138 A    
C43   C65   1.462716 S    
C88   C96   1.398186 A    
C117  H78   1.080670 S    
C41   C67   1.465944 S    
C61   N37   1.437316 S    
C119  H80   1.081115 S    
C135  C143  1.415199 A    
C120  H79   1.081229 S    
C85   C93   1.398307 A    
C108  C140  1.400904 A    
C8    N8    1.341901 A    
C10   H10   1.072118 S    
C22   N22   1.341588 A    
C32   N32   1.338518 A    
C20   N20   1.345227 A    
C65   C73   1.404638 A    
C30   H30   1.078608 S    
C112  C120  1.392154 A    
C79   C87   1.390354 A    
C80   C88   1.390596 A    
C106  C114  1.394904 A    
C100  C124  1.400481 A    
C121  H66   1.074500 S    
C104  C128  1.400432 A    
C1    C33   1.390961 A    
C87   H51   1.083489 S    
C127  H72   1.071989 S    
C128  H71   1.075515 S    
N4    N26   1.389072 A    
C113  H74   1.080662 S    
N39   O14   1.301355 A    
C99   C115  1.405010 A    
N3    N25   1.389069 A    
N8    N30   1.389072 A    
C56   C64   1.391418 A    
N30   Ni7   1.836883 S    
C84   H56   1.083338 S    
C88   H52   1.083332 S    
C97   C113  1.404633 A    
C85   H49   1.083378 S    
N23   Ni3   1.830397 S    
C18   N18   1.341550 A    
C20   C44   1.391561 A    
C28   N28   1.338293 A    
C59   C67   1.416131 A    
C4    C36   1.388369 A    
N2    N28   1.389160 A    
N12   N20   1.375108 A    
C19   H19   1.081379 S    
C109  H85   1.083929 S    
C2    H2    1.075530 S    
N2    Ni2   1.835481 S    
C136  C144  1.418747 A    
C53   H37   1.084412 S    
C25   C35   1.398756 A    
C105  H81   1.083861 S    
C147  C156  1.412754 A    
N32   Ni8   1.839126 S    
C4    N4    1.341991 A    
C36   C98   1.482165 S    
C131  C139  1.414686 A    
C83   C91   1.398165 A    
N38   O11   1.301549 A    
N19   Ni1   1.830397 S    
C81   C89   1.398282 A    
N12   Ni5   1.836982 S    
C84   C92   1.398166 A    
C167  H63   1.084082 S    
C15   H15   1.081639 S    
C142  C162  1.395756 A    
C16   H16   1.078360 S    
C51   C91   1.399239 A    
N37   O9    1.301435 A    
C132  C140  1.418329 A    
C29   C39   1.398792 A    
C49   C89   1.399554 A    
C75   C83   1.390366 A    
N25   Ni6   1.836880 S    
C76   H44   1.082986 S    
N8    Ni3   1.829426 S    
C9    H9    1.081475 S    
N10   N18   1.375057 A    
C53   C93   1.399599 A    
C50   H34   1.084428 S    
N20   Ni2   1.830400 S    
