data_mof_unit_41282.cif
_audit_creation_date              2012-12-10T17:26:17-0500
_audit_creation_method            fapswitch 2.2
_symmetry_space_group_name_H-M    P1
_symmetry_Int_Tables_number       1
_space_group_crystal_system       triclinic
_cell_length_a                    10.088872
_cell_length_b                    10.824486
_cell_length_c                    27.677899
_cell_angle_alpha                 89.998965
_cell_angle_beta                  81.419601
_cell_angle_gamma                 95.361975
_cell_volume                      2975.40805785

loop_
_atom_site_label
_atom_site_type_symbol
_atom_type_description
_atom_site_fract_x
_atom_site_fract_y
_atom_site_fract_z
_atom_type_partial_charge
C1    C     C_R   0.556271 0.732738 0.495403 0.945905
C2    C     C_R   0.407039 0.577449 0.132393 -0.023419
C3    C     C_R   0.504217 0.504444 0.646405 -0.133107
C4    C     C_R   0.497051 0.500080 0.353357 -0.133680
C5    C     C_R   0.423643 0.594585 0.029634 0.047841
C6    C     C_R   0.583956 0.433713 0.969774 0.047341
C7    C     C_R   0.566421 0.419821 0.021272 0.042092
C8    C     C_R   0.432033 0.601527 0.978076 0.042366
C9    C     C_R   0.489344 0.502471 0.050897 0.068527
C10   C     C_R   0.513656 0.522081 0.948476 0.067886
C11   C     C_R   0.351906 0.677018 0.060957 -0.221886
C12   C     C_R   0.443650 0.267258 0.501944 0.954490
C13   C     C_R   0.670650 0.362619 0.938577 -0.217929
C14   C     C_R   0.343926 0.668327 0.111285 -0.164684
C15   C     C_R   0.680367 0.371688 0.888218 -0.164318
C16   C     C_R   0.500333 0.498893 0.593963 0.933964
C17   C     C_R   0.499864 0.501690 0.405986 0.923122
C18   C     C_R   0.360986 0.685086 0.954827 -0.217655
C19   C     C_R   0.622186 0.324646 0.044382 -0.219126
C20   C     C_2   0.588205 0.864610 0.488447 -0.337379
C21   C     C_2   0.411410 0.135355 0.498754 -0.350584
C22   C     C_2   0.487222 0.933900 0.485507 -0.133440
C23   C     C_R   0.524112 0.530173 0.896923 -0.048306
C24   C     C_2   0.511848 0.066017 0.484061 -0.144032
C25   C     C_2   0.927015 0.510026 0.503951 -0.096876
C26   C     C_2   0.073003 0.490029 0.496025 -0.100376
C27   C     C_R   0.458251 0.616298 0.824304 0.521810
C28   C     C_R   0.534480 0.397386 0.174909 0.520387
C29   C     C_R   0.608319 0.457268 0.816441 0.484601
C30   C     C_R   0.403968 0.571041 0.183007 0.484482
C31   C     C_R   0.401600 0.468292 0.731051 -0.050092
C32   C     C_R   0.603191 0.536769 0.269048 -0.049972
C33   C     C_R   0.393468 0.457665 0.680940 0.319137
C34   C     C_R   0.478743 0.493428 0.102430 -0.048857
C35   C     C_R   0.610858 0.542866 0.319302 0.320173
C36   C     C_R   0.621684 0.559290 0.661959 -0.267890
C37   C     C_R   0.376997 0.454452 0.337076 -0.265958
C38   C     C_R   0.629622 0.569696 0.711296 -0.084628
C39   C     C_R   0.369236 0.449559 0.287602 -0.086641
C40   C     C_R   0.520590 0.525065 0.745799 0.223870
C41   C     C_R   0.481263 0.489894 0.253646 0.224795
C42   C     C_R   0.721498 0.579603 0.232469 0.152793
C43   C     C_R   0.718441 0.684023 0.202681 -0.138931
C44   C     C_R   0.828743 0.721923 0.167293 -0.136288
C45   C     C_R   0.451671 0.614226 0.875121 -0.022328
C46   C     C_R   0.942896 0.656320 0.161561 -0.095778
C47   C     C_R   0.947013 0.552734 0.191249 -0.110800
C48   C     C_R   0.836664 0.514217 0.226553 -0.035584
C49   C     C_R   0.287352 0.419372 0.768210 0.150698
C50   C     C_R   0.166288 0.476000 0.774462 -0.026953
C51   C     C_R   0.060536 0.433028 0.810859 -0.112562
C52   C     C_R   0.075082 0.333582 0.841232 -0.105705
C53   C     C_R   0.195013 0.276466 0.835071 -0.130641
C54   C     C_R   0.300800 0.318909 0.798643 -0.141049
C55   C     C_R   0.540968 0.401075 0.124124 -0.022783
C56   C     C_R   0.371121 0.691317 0.904373 -0.143525
C57   C     C_R   0.609974 0.315969 0.094824 -0.143665
C58   C     C_R   0.605764 0.453105 0.867049 -0.022204
Cl1   Cl    Cl    0.758975 0.613827 0.338828 -0.594739
Cl2   Cl    Cl    0.249447 0.376823 0.662071 -0.592451
H1    H     H_    0.707153 0.595790 0.635785 0.172159
H2    H     H_    0.276045 0.413772 0.275452 0.156179
H3    H     H_    0.313613 0.755968 0.888400 0.186903
H4    H     H_    0.656191 0.242542 0.110753 0.187379
H5    H     H_    0.289098 0.734554 0.133618 0.187665
H6    H     H_    0.745815 0.313307 0.865897 0.183463
H7    H     H_    0.302683 0.751660 0.047968 0.139681
H8    H     H_    0.734089 0.299677 0.951789 0.138105
H9    H     H_    0.293888 0.745762 0.974404 0.139683
H10   H     H_    0.674475 0.253616 0.024610 0.141344
H11   H     H_    0.615374 0.106044 0.474024 0.192012
H12   H     H_    0.289021 0.421235 0.362757 0.174830
H13   H     H_    0.383444 0.893856 0.487583 0.191452
H14   H     H_    0.630846 0.735926 0.206882 0.165428
H15   H     H_    0.825731 0.802202 0.144315 0.141924
H16   H     H_    0.028082 0.685737 0.134113 0.129848
H17   H     H_    0.035538 0.502075 0.186784 0.144572
H18   H     H_    0.840397 0.433087 0.249035 0.155078
H19   H     H_    0.154616 0.554146 0.751543 0.157004
H20   H     H_    0.967613 0.477227 0.815697 0.153910
H21   H     H_    0.993594 0.300818 0.869587 0.124862
H22   H     H_    0.206120 0.199435 0.858596 0.142329
H23   H     H_    0.308168 0.094911 0.508850 0.160796
H24   H     H_    0.393223 0.273909 0.794260 0.164692
H25   H     H_    0.691703 0.905074 0.486463 0.156930
H26   H     H_    0.109741 0.422581 0.469520 0.157105
H27   H     H_    0.890288 0.577504 0.530444 0.156607
H28   H     H_    0.119380 0.614442 0.544916 0.173588
H29   H     H_    0.880606 0.385532 0.455093 0.172573
H30   H     H_    0.720678 0.612816 0.722906 0.157848
N1    N     N_R   0.531910 0.535374 0.796462 -0.343244
N2    N     N_R   0.470498 0.484205 0.202861 -0.344183
N3    N     N_2   0.842700 0.448890 0.480020 -0.181433
N4    N     N_2   0.157300 0.551110 0.519980 -0.182763
O1    O     O_R   0.431060 0.692470 0.504020 -0.620277
O2    O     O_2   0.593468 0.309380 0.196278 -0.569502
O3    O     O_2   0.338241 0.652780 0.212128 -0.555581
O4    O     O_2   0.683215 0.381439 0.787467 -0.559707
O5    O     O_R   0.568940 0.307530 0.495980 -0.618858
O6    O     O_R   0.651120 0.659650 0.491200 -0.601838
O7    O     O_R   0.348880 0.340350 0.508800 -0.600669
O8    O     O_R   0.389980 0.516390 0.577660 -0.560359
O9    O     O_R   0.610020 0.483610 0.422340 -0.561372
O10   O     O_R   0.610040 0.483570 0.564830 -0.626910
O11   O     O_R   0.389960 0.516430 0.435170 -0.631139
O12   O     O_2   0.389810 0.696651 0.802803 -0.570000
Zn1   Zn    Zn3+2 0.353060 0.521910 0.508560 0.990591
Zn2   Zn    Zn3+2 0.646940 0.478090 0.491440 0.991841

loop_
_geom_bond_atom_site_label_1
_geom_bond_atom_site_label_2
_ccdc_geom_bond_type
O7    Zn1   S    
C23   C58   A    
C25   N3    D    
C23   C45   A    
O10   Zn2   S    
C50   H19   S    
C54   H24   S    
C39   C41   A    
C53   C54   A    
C19   C57   A    
O5    Zn2   S    
O11   Zn1   S    
C30   O3    S    
C29   O4    S    
C5    C11   A    
N3    Zn2   S    
C11   C14   A    
C3    C33   A    
C49   C54   A    
C25   H27   S    
C31   C40   A    
C35   Cl1   S    
C48   H18   S    
C51   H20   S    
C12   O5    A    
C16   O10   A    
C21   H23   S    
C45   C56   A    
C11   H7    S    
C32   C41   A    
C31   C33   A    
C27   N1    A    
O9    Zn2   S    
C26   H26   S    
C2    C34   A    
C18   H9    S    
C4    C35   A    
C34   C55   A    
C31   C49   S    
C1    O6    A    
C46   H16   S    
C28   C55   A    
C44   C46   A    
H28   N4    S    
N4    Zn1   S    
O6    Zn2   S    
C51   C52   A    
C32   C35   A    
C30   N2    A    
C27   O12   S    
C25   C26   S    
C15   H6    S    
C12   C21   S    
C8    C18   A    
C53   H22   S    
C44   H15   S    
C43   C44   A    
C5    C9    A    
C17   O11   A    
C47   C48   A    
C1    O1    A    
C20   H25   S    
C50   C51   A    
C56   H3    S    
O8    Zn1   S    
C28   N2    A    
C42   C48   A    
C4    C37   A    
O1    Zn1   S    
C4    C17   S    
C16   O8    A    
C20   C22   D    
C33   Cl2   S    
C7    C19   A    
C26   N4    D    
C55   C57   A    
C9    C34   A    
C15   C58   A    
C22   C24   S    
C21   C24   D    
C42   C43   A    
C47   H17   S    
C36   H1    S    
C29   N1    A    
C52   C53   A    
C57   H4    S    
C7    C9    A    
C39   H2    S    
C46   C47   A    
C1    C20   S    
C6    C10   A    
C5    C8    A    
C6    C7    A    
C18   C56   A    
C10   C23   A    
C38   H30   S    
C2    C30   A    
C28   O2    S    
C13   C15   A    
C17   O9    A    
C12   O7    A    
C37   C39   A    
C6    C13   A    
C38   C40   A    
C27   C45   A    
C3    C36   A    
C43   H14   S    
C36   C38   A    
C14   H5    S    
C40   N1    S    
H29   N3    S    
C52   H21   S    
C2    C14   A    
C41   N2    S    
C29   C58   A    
C8    C10   A    
C49   C50   A    
C37   H12   S    
C32   C42   S    
C19   H10   S    
C22   H13   S    
C3    C16   S    
C24   H11   S    
C13   H8    S    
