data_mof_unit_32662.cif
_audit_creation_date              2012-12-10T17:42:45-0500
_audit_creation_method            fapswitch 2.2
_symmetry_space_group_name_H-M    P1
_symmetry_Int_Tables_number       1
_space_group_crystal_system       triclinic
_cell_length_a                    10.06281
_cell_length_b                    10.691027
_cell_length_c                    13.164412
_cell_angle_alpha                 93.130321
_cell_angle_beta                  72.127956
_cell_angle_gamma                 90.677253
_cell_volume                      1345.87918359

loop_
_atom_site_label
_atom_site_type_symbol
_atom_type_description
_atom_site_fract_x
_atom_site_fract_y
_atom_site_fract_z
_atom_type_partial_charge
C1    C     C_R   0.502842 0.739101 0.492300 0.848840
C2    C     C_R   0.382597 0.489525 0.819599 -0.247740
C3    C     C_R   0.279701 0.884339 0.440680 -0.188278
C4    C     C_R   0.423959 0.491943 0.702614 0.891242
C5    C     C_R   0.151001 0.943360 0.459271 -0.034689
C6    C     C_R   0.121154 0.053775 0.523601 -0.156746
C7    C     C_R   0.224798 0.111657 0.559939 0.472838
C8    C     C_R   0.363416 0.061099 0.524884 -0.044978
C9    C     C_R   0.382142 0.937650 0.482859 0.044237
C10   C     C_R   0.503198 0.872927 0.485419 -0.092599
C11   C     C_R   0.616645 0.938160 0.500930 -0.205318
C12   C     C_R   0.459950 0.571357 0.966580 -0.003678
C13   C     C_R   0.610954 0.065775 0.513779 -0.142145
C14   C     C_R   0.486105 0.128619 0.523643 -0.128745
C15   C     C_R   0.813194 0.667617 0.652630 0.364827
C16   C     C_R   0.495010 0.261387 0.509490 0.865451
C17   C     C_R   0.862112 0.735556 0.729830 0.334894
C18   C     C_R   0.002369 0.735385 0.719958 -0.088362
C19   C     C_R   0.092046 0.659073 0.641891 -0.223416
C20   C     C_R   0.046966 0.579483 0.570890 0.014726
C21   C     C_R   0.902545 0.581165 0.572934 -0.047769
C22   C     C_R   0.951692 0.420611 0.433965 0.465804
C23   C     C_R   0.485446 0.496054 0.871273 -0.035160
C24   C     C_R   0.095255 0.420896 0.433039 0.388496
C25   C     C_R   0.576649 0.512624 0.298100 0.878361
C26   C     C_R   0.801558 0.541965 0.013487 -0.092313
C27   C     C_R   0.622353 0.545406 0.184951 -0.235522
C28   C     C_R   0.246468 0.519796 0.878364 -0.062653
C29   C     C_R   0.222518 0.609970 0.963361 0.392108
C30   C     C_R   0.335436 0.644519 0.001916 -0.018421
C31   C     C_1   0.877957 0.539130 0.170378 0.333071
C32   C     C_1   0.048312 0.886644 0.415833 0.176910
C33   C     C_1   0.056210 0.813257 0.791367 0.338314
C34   C     C_R   0.559983 0.567201 0.021785 -0.017139
C35   C     C_1   0.143819 0.427417 0.872992 0.271238
C36   C     C_1   0.329380 0.759662 0.066706 0.210460
C37   C     C_1   0.625382 0.316085 0.764915 0.207398
C38   C     C_R   0.698625 0.532813 0.963429 -0.004239
C39   C     C_R   0.727613 0.471599 0.862248 0.381753
C40   C     C_R   0.614479 0.432603 0.828519 -0.058484
C41   C     C_R   0.521249 0.572825 0.134058 0.405716
C42   C     C_R   0.765435 0.545465 0.124081 -0.114082
H1    H     H_    0.299922 0.798677 0.390921 0.166692
H2    H     H_    0.680084 0.764940 0.835028 0.341544
H3    H     H_    0.866782 0.403570 0.733128 0.342745
H4    H     H_    0.276549 0.343415 0.371899 0.404338
H5    H     H_    0.375489 0.650650 0.248334 0.329718
H6    H     H_    0.087881 0.722807 0.064462 0.350279
H7    H     H_    0.017447 0.094730 0.546164 0.164368
H8    H     H_    0.705362 0.114775 0.514964 0.192600
H9    H     H_    0.197470 0.662500 0.640729 0.233176
H10   H     H_    0.909025 0.532205 0.966847 0.231331
H11   H     H_    0.710635 0.891139 0.502099 0.188504
H12   H     H_    0.255143 0.219899 0.673445 0.326901
H13   H     H_    0.980162 0.282847 0.325123 0.370339
H14   H     H_    0.655708 0.779860 0.677702 0.325753
N1    N     N_R   0.856860 0.501200 0.500990 -0.131035
N2    N     N_R   0.142450 0.501280 0.501020 -0.156907
N3    N     N_1   0.968631 0.534444 0.206910 -0.143416
N4    N     N_1   0.966998 0.840228 0.380084 -0.204396
N5    N     N_1   0.099583 0.875986 0.848229 -0.157913
N6    N     N_1   0.066329 0.347816 0.869462 -0.105004
N7    N     N_1   0.324540 0.851740 0.118262 -0.183382
N8    N     N_1   0.634411 0.222160 0.715405 -0.214042
O1    O     O_R   0.385310 0.683220 0.500000 -0.666493
O2    O     O_3   0.903706 0.338661 0.368463 -0.724575
O3    O     O_3   0.679410 0.690441 0.656159 -0.721921
O4    O     O_3   0.773592 0.804222 0.815565 -0.754770
O5    O     O_3   0.862725 0.436433 0.805840 -0.763833
O6    O     O_3   0.184424 0.337412 0.361705 -0.766998
O7    O     O_3   0.381929 0.584315 0.191418 -0.729608
O8    O     O_3   0.092457 0.665635 0.001752 -0.798259
O9    O     O_R   0.614640 0.683250 0.500010 -0.551933
O10   O     O_R   0.328400 0.499950 0.653610 -0.622684
O11   O     O_R   0.557730 0.499970 0.653620 -0.545529
O12   O     O_R   0.385360 0.316750 0.499990 -0.612043
O13   O     O_R   0.614690 0.316780 0.500000 -0.572107
O14   O     O_R   0.442270 0.500030 0.346380 -0.603149
O15   O     O_R   0.671600 0.500050 0.346390 -0.571933
O16   O     O_3   0.184191 0.209872 0.635436 -0.728051
Zn1   Zn    Zn3+2 0.346880 0.499980 0.499990 0.974185
Zn2   Zn    Zn3+2 0.653120 0.500020 0.500010 1.043298

loop_
_geom_bond_atom_site_label_1
_geom_bond_atom_site_label_2
_ccdc_geom_bond_type
C31   C42   S    
C19   C20   A    
C27   C42   A    
C37   N8    T    
C22   N1    A    
C24   O6    S    
C7    C8    A    
C12   C23   A    
C3    H1    S    
C28   C29   A    
C18   C19   A    
C37   C40   S    
C38   C39   A    
C23   C40   A    
C16   O13   A    
C31   N3    T    
C22   O2    S    
C4    O11   A    
C28   C35   S    
C8    C9    A    
C1    O1    A    
C36   N7    T    
C9    C10   A    
C4    O10   A    
C11   H11   S    
C41   O7    S    
C29   O8    S    
C16   O12   A    
C25   O15   A    
C13   C14   A    
C34   C41   A    
H6    O8    S    
H12   O16   S    
H3    O5    S    
C25   O14   A    
N2    Zn1   S    
C39   C40   A    
C26   C38   A    
C2    C4    S    
C21   N1    A    
C29   C30   A    
C3    C9    A    
C26   H10   S    
C27   C41   A    
O1    Zn1   S    
C15   O3    S    
C17   C18   A    
C39   O5    S    
H5    O7    S    
C33   N5    T    
C22   C24   A    
H2    O4    S    
C32   N4    T    
O10   Zn1   S    
C12   C34   A    
O9    Zn2   S    
H13   O2    S    
C26   C42   A    
C15   C17   A    
C17   O4    S    
C8    C14   A    
C12   C30   A    
C34   C38   A    
C1    C10   S    
C3    C5    A    
O12   Zn1   S    
O15   Zn2   S    
O11   Zn2   S    
C6    C7    A    
C25   C27   S    
H14   O3    S    
C30   C36   S    
C1    O9    A    
C5    C32   S    
C11   C13   A    
O14   Zn1   S    
C5    C6    A    
O13   Zn2   S    
C35   N6    T    
C14   C16   S    
C6    H7    S    
C18   C33   S    
H4    O6    S    
C10   C11   A    
C13   H8    S    
C19   H9    S    
C15   C21   A    
C20   C21   A    
C24   N2    A    
C2    C23   A    
N1    Zn2   S    
C2    C28   A    
C20   N2    A    
C7    O16   S    
