data_mof_unit_67275.cif
_audit_creation_date              2013-03-05T16:01:58-0500
_audit_creation_method            fapswitch 2.2
_symmetry_space_group_name_H-M    P1
_symmetry_Int_Tables_number       1
_space_group_crystal_system       triclinic
_cell_length_a                    8.223772
_cell_length_b                    14.553791
_cell_length_c                    14.983892
_cell_angle_alpha                 95.693846
_cell_angle_beta                  97.732615
_cell_angle_gamma                 91.870334
_cell_volume                      1766.37846834

loop_
_atom_site_label
_atom_site_type_symbol
_atom_site_description
_atom_site_fract_x
_atom_site_fract_y
_atom_site_fract_z
_atom_type_partial_charge
P1    P     P_3+3 0.018620 0.416870 0.295980 0.457873
O1    O     O_2   0.841250 0.444240 0.280450 -0.378962
O2    O     O_3   0.112870 0.447390 0.393710 -0.374036
O3    O     O_3   0.597960 0.615760 0.327700 -0.354732
O4    O     O_2   0.682216 0.534795 0.174702 -0.367770
O5    O     O_3   0.015857 0.295711 0.280070 -0.608465
O6    O     O_3   0.628171 0.708127 0.172652 -0.503083
H1    H     H_    0.522043 0.794095 0.263875 0.095178
C1    C     C_3   0.555424 0.861376 0.144840 -0.425698
H2    H     H_    0.685852 0.884251 0.167370 0.242582
P2    P     P_3+3 0.635650 0.716500 0.560900 0.457137
P3    P     P_3+3 0.041511 0.781292 0.367311 0.492407
O7    O     O_2   0.802240 0.729720 0.532850 -0.370529
O8    O     O_3   0.017190 0.664840 0.371090 -0.367424
O9    O     O_2   0.941559 0.830191 0.436441 -0.380954
O10   O     O_3   0.660493 0.756321 0.675870 -0.609020
O11   O     O_3   0.951199 0.806592 0.260949 -0.475921
C2    C     C_3   0.029534 0.756549 0.195079 0.307753
H3    H     H_    0.971488 0.685666 0.179747 0.123479
H4    H     H_    0.162251 0.750389 0.217306 -0.054124
C3    C     C_3   0.012173 0.804410 0.108425 -0.068730
H5    H     H_    0.081673 0.765745 0.059558 0.137711
H6    H     H_    0.881280 0.802532 0.078583 0.159960
C4    C     C_3   0.207008 0.742213 0.641601 0.429953
H7    H     H_    0.334554 0.733658 0.628471 0.083841
H8    H     H_    0.119834 0.710614 0.582743 0.133095
C5    C     C_3   0.174956 0.844738 0.653355 -0.984801
H9    H     H_    0.251525 0.878710 0.714963 0.263223
H10   H     H_    0.204058 0.878090 0.593524 0.225434
H11   H     H_    0.043889 0.854062 0.660856 0.261679
Ba1   Ba    Ba6+2 0.833410 0.543320 0.453520 1.558759
C6    C     C_3   0.858859 0.257533 0.281796 0.390447
H12   H     H_    0.765049 0.289680 0.235784 0.126487
H13   H     H_    0.834689 0.269062 0.352374 0.079525
C7    C     C_3   0.853051 0.153238 0.252790 -0.437159
H14   H     H_    0.789085 0.116522 0.300658 0.148449
H15   H     H_    0.979225 0.128320 0.256213 0.245726
C8    C     C_3   0.731922 0.691608 0.729850 0.228857
H16   H     H_    0.863422 0.687778 0.721288 0.126636
H17   H     H_    0.669064 0.622025 0.712745 0.104468
C9    C     C_3   0.713755 0.726799 0.827613 -0.142776
H18   H     H_    0.723420 0.803706 0.836831 0.152894
H19   H     H_    0.590077 0.705148 0.842122 0.112532
P4    P     P_3+3 0.171070 0.583210 0.704020 0.470234
O12   O     O_2   0.348460 0.555790 0.719610 -0.384056
O13   O     O_3   0.076820 0.552690 0.606290 -0.410593
O14   O     O_3   0.591740 0.384320 0.672310 -0.367682
O15   O     O_3   0.187386 0.704315 0.722028 -0.545802
P5    P     P_3+3 0.146538 0.213896 0.626533 0.435277
O16   O     O_3   0.629090 0.386360 0.459240 -0.368601
O17   O     O_3   0.172500 0.335240 0.628910 -0.371705
O18   O     O_2   0.292217 0.173735 0.582872 -0.374854
O19   O     O_3   0.189251 0.179419 0.735974 -0.554581
Ba2   Ba    Ba6+2 0.356410 0.456750 0.546480 1.549249
P6    P     P_3+3 0.562130 0.604703 0.209393 0.473504
C10   C     C_3   0.514962 0.775310 0.189705 0.283648
H20   H     H_    0.388812 0.749993 0.160476 0.025503
H21   H     H_    0.477977 0.917890 0.167555 0.194146
O20   O     O_3   0.560600 0.613720 0.540760 -0.388273
C11   C     C_3   0.410671 0.313228 0.273996 0.390985
H22   H     H_    0.331472 0.343228 0.322333 0.151139
H23   H     H_    0.478045 0.370473 0.248812 0.080886
C12   C     C_3   0.303941 0.257823 0.194756 -0.994606
H24   H     H_    0.230559 0.202526 0.218739 0.282948
H25   H     H_    0.220157 0.303234 0.157689 0.235691
H26   H     H_    0.381550 0.223351 0.148357 0.248543
P7    P     P_3+3 0.557432 0.271860 0.430030 0.408765
O21   O     O_2   0.387470 0.270310 0.467210 -0.349646
O22   O     O_3   0.524540 0.253681 0.311484 -0.639501
C13   C     C_3   0.187865 0.254115 0.802930 0.302335
H27   H     H_    0.251097 0.316271 0.784089 0.142150
H28   H     H_    0.060004 0.270754 0.811700 -0.004557
C14   C     C_3   0.283785 0.230034 0.893133 0.003828
H29   H     H_    0.403017 0.205657 0.877204 0.228054
P8    P     P_3+3 0.632737 0.390747 0.788929 0.435349
C15   C     C_3   0.688341 0.218924 0.749581 0.413515
H30   H     H_    0.782383 0.255574 0.717234 0.007470
O23   O     O_2   0.489640 0.439858 0.827607 -0.407004
O24   O     O_3   0.624019 0.276745 0.816393 -0.577481
H31   H     H_    0.587970 0.191939 0.695415 0.138457
H32   H     H_    0.860337 0.170694 0.852349 0.182815
C16   C     C_3   0.776811 0.139902 0.792265 -0.489482
H33   H     H_    0.852764 0.106154 0.743854 0.186439
C17   C     C_R   0.349616 0.559197 0.168073 0.137524
H34   H     H_    0.320106 0.528918 0.302853 0.170630
H35   H     H_    0.478350 0.626322 0.029028 0.193186
C18   C     C_R   0.114386 0.475063 0.208192 0.308378
C19   C     C_R   0.921939 0.484118 0.767534 -0.519111
C20   C     C_R   0.833084 0.448661 0.829991 0.282397
C21   C     C_R   0.897898 0.453802 0.921379 -0.235370
C22   C     C_R   0.052474 0.498519 0.953851 0.077119
C23   C     C_R   0.140225 0.538550 0.889170 0.027733
C24   C     C_R   0.121412 0.505689 0.048425 0.067484
C25   C     C_R   0.278048 0.552198 0.075864 -0.000186
C26   C     C_R   0.359570 0.590944 0.010971 -0.231168
C27   C     C_R   0.290669 0.586310 0.920684 -0.045863
C28   C     C_R   0.043230 0.465909 0.116402 -0.314549
C29   C     C_R   0.264408 0.523629 0.232791 -0.480132
C30   C     C_R   0.073999 0.530037 0.794746 0.265449
H36   H     H_    0.928436 0.426199 0.100344 0.150111
H37   H     H_    0.869691 0.478053 0.696852 0.178008
H38   H     H_    0.823629 0.423547 0.965492 0.130579
H39   H     H_    0.358384 0.620697 0.875933 0.160101
C31   C     C_R   0.707915 0.934187 0.528618 -0.148409
C32   C     C_R   0.514839 0.794673 0.491149 0.298156
C33   C     C_R   0.360097 0.758891 0.450679 -0.478811
C34   C     C_R   0.259434 0.811150 0.396732 0.237299
C35   C     C_R   0.318799 0.892165 0.372809 -0.363395
C36   C     C_R   0.459174 0.939452 0.423567 0.053378
C37   C     C_R   0.563126 0.889015 0.482003 -0.029572
H40   H     H_    0.315087 0.691510 0.463711 0.157984
C38   C     C_R   0.634531 0.083605 0.471918 -0.058084
C39   C     C_R   0.748419 0.027879 0.521181 0.077372
C40   C     C_R   0.680673 0.181400 0.478847 0.209730
C41   C     C_R   0.833415 0.216298 0.525163 -0.473550
C42   C     C_R   0.946650 0.160125 0.566327 0.247909
C43   C     C_R   0.902755 0.066241 0.565788 -0.322294
C44   C     C_R   0.485457 0.036722 0.421223 0.145237
H41   H     H_    0.241864 0.919486 0.319074 0.202170
H42   H     H_    0.988797 0.023083 0.601416 0.158620
H43   H     H_    0.866338 0.289370 0.528725 0.173920
H44   H     H_    0.790369 0.897294 0.573095 0.168108
C45   C     C_3   0.762011 0.126785 0.156939 -0.234113
C46   C     C_3   0.856772 0.159728 0.084262 -0.870749
H45   H     H_    0.788610 0.136502 0.016350 0.233664
H46   H     H_    0.871298 0.236335 0.091312 0.247165
H47   H     H_    0.979907 0.129993 0.089530 0.295814
H48   H     H_    0.637907 0.155018 0.150503 0.181628
H49   H     H_    0.744661 0.050531 0.145651 0.235603
N1    N     N_R   0.840589 0.693116 0.891689 0.221532
O25   O     O_R   0.799530 0.649195 0.957361 -0.446591
O26   O     O_R   0.992216 0.722517 0.893755 -0.433718
C47   C     C_3   0.523581 0.842007 0.041125 -0.174691
C48   C     C_3   0.563713 0.927137 0.995318 -0.942184
H50   H     H_    0.494907 0.986898 0.019634 0.286457
H51   H     H_    0.697689 0.944915 0.008872 0.270644
H52   H     H_    0.527856 0.911916 0.921231 0.250088
H53   H     H_    0.599570 0.785131 0.018022 0.217568
H54   H     H_    0.392758 0.819599 0.018840 0.228200
N2    N     N_R   0.075438 0.900374 0.125474 0.247663
O27   O     O_R   0.009030 0.959172 0.179062 -0.438690
O28   O     O_R   0.182558 0.930568 0.077736 -0.453082
C49   C     C_3   0.315683 0.317243 0.962449 -0.412232
C50   C     C_3   0.487231 0.321873 0.017281 -0.811153
H55   H     H_    0.579197 0.346087 0.976546 0.286728
H56   H     H_    0.491537 0.371559 0.078818 0.253246
H57   H     H_    0.522344 0.253110 0.036903 0.233456
H58   H     H_    0.221134 0.319949 0.008703 0.193386
H59   H     H_    0.304375 0.381158 0.928558 0.221274
C51   C     C_3   0.201491 0.151597 0.936633 -0.362929
C52   C     C_3   0.187247 0.057225 0.880554 -0.777654
H60   H     H_    0.095795 0.056147 0.819194 0.268371
H61   H     H_    0.307767 0.038254 0.860910 0.253852
H62   H     H_    0.145420 0.003871 0.921422 0.282448
H63   H     H_    0.276647 0.142695 0.002311 0.217747
H64   H     H_    0.079189 0.171612 0.952355 0.187950
C53   C     C_3   0.665705 0.066284 0.823000 -0.269359
C54   C     C_3   0.564185 0.007138 0.744000 -0.861505
H65   H     H_    0.469907 0.047935 0.707614 0.284452
H66   H     H_    0.645588 0.977290 0.696775 0.263849
H67   H     H_    0.501572 0.949069 0.770083 0.236745
H68   H     H_    0.745958 0.019849 0.861935 0.206312
H69   H     H_    0.585283 0.098273 0.869599 0.210068
C55   C     C_3   0.342947 0.081188 0.365761 -0.317298
C56   C     C_3   0.179701 0.075635 0.405587 -0.760651
H70   H     H_    0.084053 0.033930 0.358070 0.244233
H71   H     H_    0.193461 0.042582 0.469618 0.268801
H72   H     H_    0.132149 0.145618 0.417983 0.252451
H73   H     H_    0.357834 0.149859 0.352339 0.253115
H74   H     H_    0.327918 0.049285 0.294524 0.169591

loop_
_geom_bond_atom_site_label_1
_geom_bond_atom_site_label_2
_geom_bond_distance
_ccdc_geom_bond_type
P1    C18   1.877262 S    
O5    C6    1.393337 S    
C32   C37   1.441556 A    
C12   H25   1.104365 S    
C53   C54   1.524516 S    
C41   H43   1.083137 S    
C14   C51   1.549812 S    
C5    H10   1.110459 S    
C2    C3    1.525626 S    
C14   H29   1.101441 S    
C55   H74   1.110233 S    
C7    H14   1.111722 S    
C15   O24   1.412291 S    
O6    P6    1.747931 S    
O8    Ba1   2.774691 S    
H1    C10   1.111080 S    
C48   H52   1.107802 S    
C38   C40   1.450980 A    
C40   C41   1.404007 A    
C45   H48   1.108389 S    
C45   C46   1.526643 S    
C56   H70   1.107450 S    
C35   C36   1.411651 A    
C44   C55   1.541779 S    
C24   C25   1.425431 A    
C11   C12   1.521093 S    
C55   C56   1.543697 S    
C7    H15   1.106685 S    
P7    C40   1.836895 S    
N2    O28   1.299028 A    
C2    H3    1.111845 S    
C14   C49   1.549792 S    
C9    N1    1.451678 S    
P4    C30   1.882722 S    
C31   H44   1.079546 S    
C33   C34   1.378473 A    
C49   C50   1.529939 S    
P1    Ba1   3.401098 S    
C42   C43   1.400770 A    
C11   H23   1.109958 S    
P1    O1    1.518375 D    
C9    H18   1.112996 S    
C52   H62   1.108992 S    
Ba1   O20   2.909542 S    
O7    Ba1   2.885414 S    
C21   H38   1.073629 S    
H34   C29   1.081704 S    
C54   H67   1.106078 S    
C26   C27   1.388863 A    
P5    O17   1.768195 S    
Ba1   O13   2.820053 S    
P3    O11   1.744383 S    
P2    C32   1.845017 S    
C52   H60   1.105203 S    
C4    C5    1.520837 S    
C13   H27   1.108104 S    
C1    H2    1.110062 S    
C53   H69   1.105245 S    
O3    Ba1   2.821395 S    
Ba2   O20   2.805932 S    
C18   C29   1.388018 A    
C12   H26   1.101592 S    
P2    Ba1   3.428316 S    
C47   H53   1.109346 S    
C56   H71   1.109358 S    
C51   H64   1.105090 S    
C3    H5    1.109652 S    
C45   H49   1.107479 S    
C5    H11   1.109938 S    
C54   H66   1.105912 S    
C9    H19   1.110507 S    
C35   H41   1.072169 S    
C55   H73   1.045366 S    
O6    C10   1.400700 S    
C50   H57   1.107129 S    
P2    O20   1.584165 S    
O19   C13   1.405685 S    
C38   C39   1.436027 A    
P4    O13   1.576542 S    
C36   C44   1.429671 A    
C19   H37   1.081933 S    
C17   C25   1.419530 A    
C33   H40   1.081933 S    
C23   C27   1.399408 A    
C49   H58   1.108191 S    
P7    O21   1.573050 D    
C4    O15   1.400345 S    
C6    C7    1.534252 S    
C4    H7    1.101640 S    
C8    C9    1.531508 S    
C50   H56   1.109775 S    
C43   H42   1.083558 S    
C15   C16   1.528530 S    
C22   C23   1.439550 A    
C16   C53   1.530400 S    
C48   H51   1.110353 S    
C12   H24   1.106812 S    
H32   C16   1.103005 S    
P1    O5    1.754757 S    
C11   H22   1.105524 S    
P1    O2    1.576542 S    
C6    H13   1.099814 S    
C54   H65   1.109709 S    
N1    O26   1.300413 A    
C22   C24   1.446035 A    
P2    O10   1.744922 S    
P3    O9    1.541468 D    
C34   C35   1.360304 A    
P5    O18   1.544555 D    
O13   Ba2   2.924937 S    
C13   C14   1.548228 S    
O11   C2    1.406659 S    
C1    C10   1.526977 S    
O16   Ba2   2.908592 S    
N2    O27   1.299011 A    
O2    Ba1   2.923968 S    
O14   Ba2   2.820818 S    
C39   C43   1.421549 A    
P3    O8    1.707511 S    
O12   Ba2   2.849813 S    
C47   H54   1.110920 S    
C56   H72   1.110314 S    
C51   H63   1.110896 S    
C3    H6    1.107034 S    
O3    P6    1.747839 S    
C47   C48   1.522517 S    
C10   H20   1.106611 S    
Ba1   O16   2.806430 S    
C24   C28   1.433528 A    
C28   H36   1.076461 S    
P4    O12   1.518802 D    
C31   C37   1.404230 A    
C46   H46   1.110400 S    
O16   P7    1.742849 S    
C1    H21   1.111291 S    
O4    P6    1.542529 D    
C15   H31   1.108874 S    
C4    H8    1.109543 S    
C50   H55   1.103737 S    
P3    C34   1.814800 S    
C48   H50   1.110911 S    
C32   C33   1.394544 A    
O17   Ba2   2.775219 S    
C17   C29   1.399345 A    
C6    H12   1.110770 S    
C7    C45   1.534152 S    
N1    O25   1.300410 A    
P6    C17   1.851535 S    
O14   P8    1.727079 S    
P4    O15   1.754373 S    
C36   C37   1.415406 A    
C8    H17   1.112267 S    
C15   H30   1.114803 S    
P2    O7    1.498118 D    
C21   C22   1.411716 A    
C8    H16   1.108553 S    
C11   O22   1.396969 S    
P5    O19   1.756143 S    
O2    Ba2   2.820702 S    
C2    H4    1.106651 S    
C52   H61   1.106992 S    
Ba1   Ba2   4.517901 S    
C25   C26   1.404437 A    
P8    O23   1.545266 D    
C19   C30   1.389530 A    
H35   C26   1.077447 S    
P8    C20   1.826814 S    
C31   C39   1.411792 A    
P4    Ba2   3.401767 S    
C49   H59   1.103844 S    
P5    C42   1.872249 S    
Ba2   O21   2.885482 S    
C19   C20   1.389729 A    
C16   H33   1.108529 S    
C27   H39   1.076601 S    
C46   H47   1.110322 S    
C5    H9    1.107172 S    
C38   C44   1.462013 A    
C51   C52   1.529778 S    
O1    Ba1   2.849131 S    
C13   H28   1.108627 S    
C3    N2    1.460328 S    
P7    O22   1.752461 S    
C20   C21   1.394795 A    
P8    O24   1.750123 S    
C53   H68   1.111931 S    
C41   C42   1.382450 A    
C23   C30   1.437775 A    
O10   C8    1.394882 S    
C46   H45   1.108982 S    
C18   C28   1.412016 A    
C1    C47   1.536844 S    
