data_mof_unit_42437.cif
_audit_creation_date              2013-03-05T15:51:32-0500
_audit_creation_method            fapswitch 2.2
_symmetry_space_group_name_H-M    P1
_symmetry_Int_Tables_number       1
_space_group_crystal_system       triclinic
_cell_length_a                    15.894901
_cell_length_b                    10.894814
_cell_length_c                    9.602401
_cell_angle_alpha                 92.363109
_cell_angle_beta                  90.758553
_cell_angle_gamma                 93.504561
_cell_volume                      1658.13867214

loop_
_atom_site_label
_atom_site_type_symbol
_atom_site_description
_atom_site_fract_x
_atom_site_fract_y
_atom_site_fract_z
_atom_type_partial_charge
O1    O     O_R   0.499990 0.319640 0.618810 -0.595288
O2    O     O_R   0.500000 0.319660 0.381240 -0.490190
C1    C     C_R   0.504812 0.262923 0.497111 0.808907
O3    O     O_R   0.379430 0.499990 0.618840 -0.563061
O4    O     O_R   0.379440 0.500020 0.381260 -0.539451
C2    C     C_R   0.340334 0.499205 0.499224 0.818363
Cu1   Cu    Cu3+1 0.499990 0.499990 0.640660 0.957792
Cu2   Cu    Cu3+1 0.500010 0.500010 0.359340 1.037716
O5    O     O_R   0.500000 0.680340 0.618760 -0.612574
O6    O     O_R   0.500010 0.680360 0.381190 -0.590677
O7    O     O_R   0.620560 0.499980 0.618740 -0.598333
O8    O     O_R   0.620570 0.500010 0.381160 -0.598338
C3    C     C_R   0.497973 0.737941 0.503722 0.815390
C4    C     C_R   0.659590 0.501068 0.500881 0.796276
C5    C     C_3   0.045751 0.427836 0.626536 -0.010599
C6    C     C_3   0.040235 0.404736 0.357816 0.759189
C7    C     C_3   0.940946 0.402454 0.379202 0.069241
H1    H     H_    0.046919 0.326405 0.615393 0.209271
H2    H     H_    0.912594 0.436989 0.282305 0.129738
C8    C     C_1   0.749011 0.500964 0.502884 -0.082950
C9    C     C_3   0.082085 0.484045 0.489227 -0.169129
C10   C     C_3   0.951581 0.456532 0.644035 0.256128
C11   C     C_3   0.916335 0.494446 0.500297 -0.208335
C12   C     C_3   0.958222 0.622857 0.465064 -0.044099
C13   C     C_3   0.055787 0.621168 0.482681 0.245371
C14   C     C_1   0.824327 0.499356 0.503092 0.164420
C15   C     C_1   0.174892 0.489577 0.493353 0.094820
C16   C     C_1   0.250604 0.495064 0.496953 -0.153775
H3    H     H_    0.075747 0.668532 0.583671 0.187045
H4    H     H_    0.947390 0.536868 0.718170 0.187202
H5    H     H_    0.944082 0.637456 0.353051 0.194624
C17   C     C_R   0.596044 0.140936 0.713183 -0.155923
H6    H     H_    0.624825 0.231205 0.694306 0.177695
C18   C     C_R   0.608289 0.094148 0.843866 -0.133708
H7    H     H_    0.643103 0.150515 0.923196 0.190040
C19   C     C_R   0.569954 0.980083 0.874728 0.406157
C20   C     C_R   0.530071 0.906207 0.766970 -0.243784
H8    H     H_    0.499419 0.820522 0.795580 0.202626
C21   C     C_R   0.524336 0.948108 0.629693 0.057513
C22   C     C_R   0.545618 0.073658 0.610465 0.065671
C23   C     C_R   0.513575 0.129416 0.491783 -0.222123
C24   C     C_R   0.477932 0.054685 0.379634 0.356525
H9    H     H_    0.446971 0.872087 0.301165 0.228186
C25   C     C_R   0.472107 0.928033 0.389724 -0.194328
C26   C     C_R   0.495735 0.872784 0.511616 -0.160168
C27   C     C_R   0.621052 0.652278 0.152095 -0.108944
H10   H     H_    0.622041 0.668930 0.261904 0.209090
C28   C     C_R   0.684409 0.718494 0.084099 -0.179970
H11   H     H_    0.731212 0.774082 0.145621 0.217495
C29   C     C_R   0.684217 0.720087 0.939544 0.297001
C30   C     C_R   0.619669 0.652561 0.864791 -0.226017
H12   H     H_    0.616967 0.667261 0.756460 0.225959
C31   C     C_R   0.559201 0.574570 0.929838 0.142513
C32   C     C_R   0.559534 0.574340 0.078924 0.139674
N1    N     N_R   0.500800 0.501210 0.147910 -0.228751
C33   C     C_R   0.442153 0.428418 0.070649 0.618102
H13   H     H_    0.400096 0.370082 0.856606 0.154736
C34   C     C_R   0.443844 0.428261 0.920464 -0.145718
N2    N     N_R   0.500820 0.501290 0.852040 -0.212498
O9    O     O_3   0.903803 0.352402 0.691867 -0.528394
C35   C     C_3   0.897671 0.358207 0.838569 -0.151229
H14   H     H_    0.859078 0.435265 0.873560 0.146940
H15   H     H_    0.960951 0.367318 0.890237 0.196726
H16   H     H_    0.865311 0.271376 0.871705 0.214125
N3    N     N_R   0.096309 0.466676 0.751807 0.108319
O10   O     O_R   0.097387 0.578856 0.804135 -0.370268
O11   O     O_R   0.140665 0.387158 0.812554 -0.410745
N4    N     N_R   0.446699 0.104387 0.254510 0.163167
O12   O     O_R   0.372248 0.066345 0.206730 -0.381988
O13   O     O_R   0.499329 0.159023 0.171078 -0.294737
N5    N     N_R   0.569894 0.940148 0.015317 0.129448
O14   O     O_R   0.624547 0.988664 0.107014 -0.315004
O15   O     O_R   0.512253 0.859409 0.054437 -0.391977
O16   O     O_3   0.385066 0.354781 0.144699 -0.528113
C36   C     C_3   0.315901 0.303324 0.064040 -0.253910
H17   H     H_    0.335871 0.229760 0.990268 0.200844
H18   H     H_    0.283028 0.375213 0.009460 0.151896
H19   H     H_    0.270022 0.258608 0.134525 0.193951
N6    N     N_R   0.746570 0.795310 0.868903 0.144630
O17   O     O_R   0.805342 0.860345 0.939269 -0.274155
O18   O     O_R   0.745313 0.799456 0.733610 -0.313258
O19   O     O_3   0.053291 0.469759 0.232551 -0.586940
C37   C     C_3   0.126381 0.442659 0.159105 -0.098055
H20   H     H_    0.123141 0.345559 0.118457 0.182945
H21   H     H_    0.184436 0.467574 0.221260 0.142003
H22   H     H_    0.129935 0.501001 0.067390 0.240015
O20   O     O_3   0.059498 0.277532 0.337504 -0.552798
C38   C     C_3   0.138808 0.241570 0.383400 -0.267940
H23   H     H_    0.145480 0.245209 0.498229 0.168432
H24   H     H_    0.192062 0.292524 0.335038 0.132399
H25   H     H_    0.143708 0.143672 0.349805 0.205521
N7    N     N_R   0.900722 0.277740 0.392756 0.202158
O21   O     O_R   0.838970 0.239421 0.308454 -0.313332
O22   O     O_R   0.928512 0.201713 0.481110 -0.232464
O23   O     O_3   0.096037 0.679675 0.369324 -0.538326
C39   C     C_3   0.115120 0.805939 0.401571 -0.195269
H26   H     H_    0.163692 0.818792 0.486215 0.149817
H27   H     H_    0.057740 0.853908 0.430555 0.211574
H28   H     H_    0.141556 0.849160 0.307769 0.200280
N8    N     N_R   0.924055 0.726029 0.545537 0.136214
O24   O     O_R   0.943644 0.748744 0.676473 -0.299649
O25   O     O_R   0.877582 0.801537 0.482407 -0.274605

loop_
_geom_bond_atom_site_label_1
_geom_bond_atom_site_label_2
_geom_bond_distance
_ccdc_geom_bond_type
C5    H1    1.107154 S    
N1    C33   1.375173 A    
C6    C9    1.612130 S    
C2    C16   1.424051 S    
C23   C24   1.413769 A    
O23   C39   1.411242 S    
O20   C38   1.413101 S    
C29   N6    1.441654 S    
C31   N2    1.377859 A    
Cu1   Cu2   2.701360 S    
C31   C32   1.431630 A    
Cu1   O7    1.930748 S    
C7    C11   1.572737 S    
C19   C20   1.404254 A    
C10   O9    1.421820 S    
O4    C2    1.299363 A    
O7    C4    1.297930 A    
C5    N3    1.470607 S    
C39   H28   1.109233 S    
C18   H7    1.082742 S    
C11   C14   1.467261 S    
C35   H15   1.112756 S    
O5    C3    1.293750 A    
N8    O24   1.301362 A    
C27   H10   1.062271 S    
C5    C10   1.557568 S    
C1    C23   1.468504 S    
C6    C7    1.593004 S    
N3    O11   1.301284 A    
C39   H27   1.111493 S    
C6    O20   1.443462 S    
C11   C12   1.563997 S    
C19   N5    1.435334 S    
C21   C26   1.424679 A    
C28   C29   1.388863 A    
C9    C15   1.472634 S    
O1    Cu1   1.967429 S    
C24   N4    1.433169 S    
C7    N7    1.477318 S    
C24   C25   1.384765 A    
O3    Cu1   1.924949 S    
Cu2   N1    2.031017 S    
Cu1   N2    2.029084 S    
C13   H3    1.112614 S    
C27   C28   1.388652 A    
C33   O16   1.395608 S    
O16   C36   1.410349 S    
C30   H12   1.059710 S    
C4    C8    1.421279 S    
C12   C13   1.559056 S    
O3    C2    1.298139 A    
C21   C22   1.409047 A    
N6    O18   1.301712 A    
N4    O12   1.301032 A    
C34   N2    1.362228 A    
O9    C35   1.412429 S    
C30   C31   1.412692 A    
C17   C18   1.389541 A    
C35   H16   1.109235 S    
C36   H17   1.111374 S    
C20   H8    1.073969 S    
C37   H20   1.110351 S    
C38   H25   1.109130 S    
Cu2   O8    1.924950 S    
C39   H26   1.112237 S    
C27   C32   1.414880 A    
N7    O22   1.301443 A    
C29   C30   1.397780 A    
C36   H18   1.112548 S    
N4    O13   1.300832 A    
C28   H11   1.083040 S    
C37   H21   1.105835 S    
O8    C4    1.298293 A    
C13   O23   1.423460 S    
H9    C25   1.082946 S    
N3    O10   1.301172 A    
C25   C26   1.395506 A    
N5    O15   1.300815 A    
N8    O25   1.301327 A    
C6    O19   1.432004 S    
Cu1   O5    1.984694 S    
C9    C13   1.579218 S    
C32   N1    1.383520 A    
C22   C23   1.416592 A    
C10   H4    1.110981 S    
C12   N8    1.472972 S    
O2    Cu2   1.984694 S    
C38   H24   1.102078 S    
O6    C3    1.312101 A    
O4    Cu2   1.930746 S    
C17   H6    1.082231 S    
O2    C1    1.298524 A    
C12   H5    1.115707 S    
N5    O14   1.301747 A    
C20   C21   1.416280 A    
C3    C26   1.470547 S    
H13   C34   1.078916 S    
C8    C14   1.198321 T    
N7    O21   1.301541 A    
C7    H2    1.117531 S    
C33   C34   1.442674 A    
C18   C19   1.395009 A    
C17   C22   1.414277 A    
C35   H14   1.113181 S    
C36   H19   1.106365 S    
N6    O17   1.301593 A    
C5    C9    1.578125 S    
C37   H22   1.107203 S    
C38   H23   1.105167 S    
Cu2   O6    1.967428 S    
O19   C37   1.407378 S    
C15   C16   1.201239 T    
C10   C11   1.563437 S    
O1    C1    1.304586 A    
