data_mof_unit_64543.cif
_audit_creation_date              2012-12-10T21:03:09-0500
_audit_creation_method            fapswitch 2.2
_symmetry_space_group_name_H-M    P1
_symmetry_Int_Tables_number       1
_space_group_crystal_system       triclinic
_cell_length_a                    25.881755
_cell_length_b                    42.990001
_cell_length_c                    25.184366
_cell_angle_alpha                 90.006008
_cell_angle_beta                  121.255976
_cell_angle_gamma                 90.00065
_cell_volume                      23954.4416662

loop_
_atom_site_label
_atom_site_type_symbol
_atom_type_description
_atom_site_fract_x
_atom_site_fract_y
_atom_site_fract_z
_atom_type_partial_charge
C1    C     C_R   0.000014 0.165770 0.500002 0.809110
C2    C     C_R   0.621535 0.250695 0.737157 -0.026115
C3    C     C_R   0.653609 0.131308 0.504032 -0.157336
C4    C     C_R   0.281182 0.277630 0.506645 -0.245025
C5    C     C_R   0.719174 0.722320 0.494014 -0.242491
C6    C     C_R   0.718846 0.277633 0.493405 -0.245402
C7    C     C_R   0.280823 0.722320 0.505981 -0.242401
C8    C     C_R   0.780826 0.777680 0.505986 -0.242398
C9    C     C_R   0.218818 0.222370 0.493354 -0.245354
C10   C     C_R   0.219177 0.777679 0.494019 -0.242493
C11   C     C_R   0.781154 0.222367 0.506595 -0.245075
C12   C     C_R   0.304569 0.249171 0.501588 -0.049612
C13   C     C_R   0.617245 0.751851 0.737108 -0.026668
C14   C     C_R   0.695434 0.750802 0.498418 -0.047982
C15   C     C_R   0.695430 0.249173 0.498412 -0.049371
C16   C     C_R   0.304567 0.750802 0.501583 -0.047990
C17   C     C_R   0.804565 0.749198 0.501582 -0.048018
C18   C     C_R   0.195431 0.250829 0.498412 -0.049416
C19   C     C_R   0.195433 0.749198 0.498417 -0.047955
C20   C     C_R   0.804570 0.250827 0.501588 -0.049567
C21   C     C_R   0.273701 0.221104 0.495632 0.025865
C22   C     C_R   0.725925 0.778912 0.503688 0.026668
C23   C     C_R   0.726269 0.221104 0.504316 0.025853
C24   C     C_R   0.378675 0.250456 0.262847 -0.025944
C25   C     C_R   0.274080 0.778912 0.496317 0.026668
C26   C     C_R   0.774075 0.721088 0.496312 0.026667
C27   C     C_R   0.226299 0.278896 0.504368 0.025816
C28   C     C_R   0.225920 0.721088 0.503683 0.026670
C29   C     C_R   0.773730 0.278896 0.495684 0.025903
C30   C     C_R   0.015126 0.115023 0.461808 -0.216575
C31   C     C_R   0.984455 0.884976 0.537808 -0.220395
C32   C     C_R   0.985440 0.114990 0.538423 -0.237364
C33   C     C_R   0.015461 0.885001 0.462225 -0.220201
C34   C     C_R   0.515463 0.614994 0.462218 -0.220216
C35   C     C_R   0.720683 0.250447 0.936995 0.309375
C36   C     C_R   0.485442 0.385014 0.538433 -0.237224
C37   C     C_R   0.484459 0.615028 0.537803 -0.220379
C38   C     C_R   0.515126 0.384973 0.461817 -0.216692
C39   C     C_R   0.015720 0.082390 0.461687 0.084320
C40   C     C_R   0.983975 0.917591 0.538020 0.092214
C41   C     C_R   0.985382 0.082441 0.538748 0.081154
C42   C     C_R   0.015910 0.917618 0.462058 0.092344
C43   C     C_R   0.515913 0.582378 0.462052 0.092351
C44   C     C_R   0.485385 0.417563 0.538758 0.081127
C45   C     C_R   0.483979 0.582414 0.538016 0.092207
C46   C     C_R   0.282373 0.751370 0.063028 0.309928
C47   C     C_R   0.515722 0.417605 0.461696 0.084309
C48   C     C_R   0.000520 0.065873 0.500279 0.069548
C49   C     C_R   0.999935 0.934118 0.500052 0.054228
C50   C     C_R   0.499941 0.565882 0.500049 0.054228
C51   C     C_R   0.500521 0.434127 0.500288 0.069560
C52   C     C_R   0.000157 0.131469 0.500060 -0.051303
C53   C     C_R   0.999971 0.868541 0.500009 -0.057896
C54   C     C_R   0.499973 0.631459 0.500003 -0.057896
C55   C     C_R   0.500157 0.368531 0.500069 -0.051306
C56   C     C_R   0.860114 0.250323 0.500491 0.793664
C57   C     C_R   0.279765 0.250004 0.063026 0.311541
C58   C     C_R   0.139900 0.749697 0.499536 0.793416
C59   C     C_R   0.139887 0.250324 0.499507 0.793283
C60   C     C_R   0.860098 0.749697 0.500464 0.793583
C61   C     C_R   0.360100 0.750303 0.500464 0.793503
C62   C     C_R   0.639886 0.249677 0.499509 0.793180
C63   C     C_R   0.639902 0.750303 0.499536 0.793496
C64   C     C_R   0.360113 0.249676 0.500493 0.793767
C65   C     C_R   0.500217 0.468472 0.500223 0.303001
C66   C     C_R   0.499965 0.531535 0.500104 0.284868
C67   C     C_R   0.999958 0.968465 0.500104 0.284867
C68   C     C_R   0.717635 0.751370 0.936972 0.309889
C69   C     C_R   0.000217 0.031527 0.500217 0.303002
C70   C     C_R   0.084946 0.249828 0.668518 0.811797
C71   C     C_R   0.916142 0.749535 0.331492 0.812609
C72   C     C_R   0.915048 0.249811 0.331477 0.812177
C73   C     C_R   0.083853 0.749536 0.668507 0.812513
C74   C     C_R   0.583858 0.750465 0.668508 0.812520
C75   C     C_R   0.415053 0.250172 0.331482 0.812314
C76   C     C_R   0.416147 0.750464 0.331493 0.812601
C77   C     C_R   0.584952 0.250189 0.668523 0.811666
C78   C     C_R   0.904196 0.237949 0.229604 -0.235464
C79   C     C_R   0.217627 0.748630 0.936971 0.309885
C80   C     C_R   0.115328 0.773711 0.770520 -0.232703
C81   C     C_R   0.095361 0.238479 0.770361 -0.236735
C82   C     C_R   0.884690 0.773703 0.229492 -0.232515
C83   C     C_R   0.384672 0.726289 0.229480 -0.232537
C84   C     C_R   0.595805 0.262052 0.770396 -0.236449
C85   C     C_R   0.615310 0.726297 0.770508 -0.232683
C86   C     C_R   0.404640 0.261520 0.229639 -0.235809
C87   C     C_R   0.871427 0.237932 0.164971 -0.204110
C88   C     C_R   0.147609 0.773435 0.835148 -0.203521
C89   C     C_R   0.127899 0.238768 0.834989 -0.204877
C90   C     C_R   0.779319 0.249555 0.063005 0.309538
C91   C     C_R   0.852410 0.773428 0.164863 -0.203382
C92   C     C_R   0.352391 0.726565 0.164852 -0.203383
C93   C     C_R   0.628575 0.262069 0.835029 -0.204716
C94   C     C_R   0.647590 0.726572 0.835136 -0.203520
C95   C     C_R   0.372103 0.261231 0.165011 -0.204213
C96   C     C_R   0.811942 0.249229 0.131695 0.064074
C97   C     C_R   0.182645 0.747566 0.868251 0.063011
C98   C     C_R   0.187496 0.249915 0.868291 0.063983
C99   C     C_R   0.817340 0.747566 0.131747 0.062963
C100  C     C_R   0.317355 0.752434 0.131749 0.062958
C101  C     C_R   0.782365 0.748630 0.063028 0.309931
C102  C     C_R   0.688060 0.250773 0.868305 0.064184
C103  C     C_R   0.682660 0.752434 0.868253 0.063017
C104  C     C_R   0.312506 0.250084 0.131709 0.063889
C105  C     C_R   0.784645 0.259953 0.164433 0.072418
C106  C     C_R   0.183663 0.721199 0.835303 0.072148
C107  C     C_R   0.214597 0.260962 0.835580 0.071580
C108  C     C_R   0.816283 0.721206 0.164680 0.072172
C109  C     C_R   0.316337 0.778801 0.164696 0.072183
C110  C     C_R   0.715356 0.240048 0.835567 0.072305
C111  C     C_R   0.683717 0.778794 0.835320 0.072135
C112  C     C_R   0.999994 0.834232 0.500001 0.807794
C113  C     C_R   0.220236 0.249995 0.936974 0.311343
C114  C     C_R   0.285405 0.239037 0.164420 0.071634
C115  C     C_R   0.817953 0.260011 0.230133 0.053513
C116  C     C_R   0.150915 0.721484 0.769598 0.052045
C117  C     C_R   0.181641 0.260550 0.769900 0.053269
C118  C     C_R   0.849031 0.721491 0.230385 0.052053
C119  C     C_R   0.349085 0.778515 0.230402 0.052067
C120  C     C_R   0.682048 0.239989 0.769867 0.053369
C121  C     C_R   0.650969 0.778509 0.769615 0.052031
C122  C     C_R   0.318360 0.239449 0.230100 0.053460
C123  C     C_R   0.950345 0.385015 0.453325 -0.196450
C124  C     C_R   0.049635 0.614994 0.546712 -0.197641
C125  C     C_R   0.049660 0.385021 0.546692 -0.196838
C126  C     C_R   0.950352 0.614987 0.453288 -0.197519
C127  C     C_R   0.450365 0.885006 0.453287 -0.197509
C128  C     C_R   0.549655 0.114985 0.546675 -0.196654
C129  C     C_R   0.549648 0.885013 0.546712 -0.197650
C130  C     C_R   0.450340 0.114979 0.453308 -0.196635
C131  C     C_R   0.950289 0.417457 0.453349 -0.158360
C132  C     C_R   0.499995 0.665768 0.499998 0.807795
C133  C     C_R   0.049686 0.582552 0.546691 -0.158742
C134  C     C_R   0.049711 0.417463 0.546672 -0.158390
C135  C     C_R   0.950299 0.582546 0.453313 -0.158786
C136  C     C_R   0.450314 0.917448 0.453308 -0.158813
C137  C     C_R   0.549710 0.082543 0.546650 -0.158256
C138  C     C_R   0.549701 0.917454 0.546686 -0.158716
C139  C     C_R   0.450288 0.082537 0.453327 -0.158495
C140  C     C_R   1.000000 0.434042 0.500011 0.068038
C141  C     C_R   0.999993 0.565967 0.500004 0.068118
C142  C     C_R   0.500008 0.934033 0.499996 0.068118
C143  C     C_R   0.500014 0.334230 0.500006 0.809108
C144  C     C_R   0.500000 0.065958 0.499988 0.068038
C145  C     C_R   0.000003 0.368520 0.500007 -0.022222
C146  C     C_R   0.999994 0.631486 0.499999 -0.022603
C147  C     C_R   0.500006 0.868514 0.500001 -0.022603
C148  C     C_R   0.499996 0.131480 0.499993 -0.022222
C149  C     C_R   0.500003 0.031590 0.499989 0.290944
C150  C     C_R   0.500007 0.968401 0.499993 0.290807
C151  C     C_R   0.999993 0.531599 0.500007 0.290807
C152  C     C_R   0.999997 0.468410 0.500011 0.290944
C153  C     C_R   0.119949 0.347934 0.455590 -0.196213
C154  C     C_R   0.878466 0.249306 0.262843 -0.026161
C155  C     C_R   0.881611 0.652500 0.546586 -0.197554
C156  C     C_R   0.880165 0.347911 0.544575 -0.196536
C157  C     C_R   0.118376 0.652496 0.453401 -0.197427
C158  C     C_R   0.618390 0.847500 0.453416 -0.197430
C159  C     C_R   0.380049 0.152065 0.544407 -0.196494
C160  C     C_R   0.381625 0.847503 0.546601 -0.197552
C161  C     C_R   0.619833 0.152090 0.455422 -0.196255
C162  C     C_R   0.143433 0.318661 0.455557 -0.134076
C163  C     C_R   0.857591 0.681705 0.546009 -0.133879
C164  C     C_R   0.856644 0.318640 0.544559 -0.134474
C165  C     C_R   0.117230 0.748150 0.737106 -0.026646
C166  C     C_R   0.142400 0.681700 0.453980 -0.133798
C167  C     C_R   0.642409 0.818296 0.453992 -0.133791
C168  C     C_R   0.356566 0.181339 0.544441 -0.134452
C169  C     C_R   0.357600 0.818299 0.546022 -0.133887
C170  C     C_R   0.643354 0.181360 0.455438 -0.134100
C171  C     C_R   0.200917 0.309824 0.504661 0.074303
C172  C     C_R   0.799917 0.690182 0.496761 0.072423
C173  C     C_R   0.799145 0.309824 0.495445 0.074100
C174  C     C_R   0.200075 0.690182 0.503229 0.072454
C175  C     C_R   0.700083 0.809818 0.503240 0.072446
C176  C     C_R   0.121325 0.249543 0.737153 -0.025909
C177  C     C_R   0.299082 0.190176 0.495337 0.074175
C178  C     C_R   0.299926 0.809817 0.496771 0.072430
C179  C     C_R   0.700853 0.190176 0.504553 0.074230
C180  C     C_R   0.000002 0.334279 0.500002 0.787267
C181  C     C_R   0.999997 0.665723 0.499999 0.789020
C182  C     C_R   0.500002 0.834277 0.500001 0.789020
C183  C     C_R   0.499998 0.165721 0.499998 0.787267
C184  C     C_R   0.234655 0.330862 0.553398 -0.196720
C185  C     C_R   0.766520 0.668843 0.448526 -0.195209
C186  C     C_R   0.765428 0.330879 0.446751 -0.196540
C187  C     C_R   0.882755 0.748149 0.262892 -0.026726
C188  C     C_R   0.233469 0.668849 0.551463 -0.195262
C189  C     C_R   0.733482 0.831157 0.551474 -0.195279
C190  C     C_R   0.265343 0.169139 0.446600 -0.196610
C191  C     C_R   0.266533 0.831151 0.448537 -0.195191
C192  C     C_R   0.734570 0.169120 0.553247 -0.196652
C193  C     C_R   0.210979 0.360159 0.553257 0.439305
C194  C     C_R   0.790737 0.639616 0.449272 0.439132
C195  C     C_R   0.789139 0.360173 0.446941 0.439182
C196  C     C_R   0.209247 0.639622 0.550715 0.439245
C197  C     C_R   0.709265 0.860385 0.550728 0.439248
C198  C     C_R   0.382770 0.751850 0.262893 -0.026704
C199  C     C_R   0.289017 0.139841 0.446740 0.439080
C200  C     C_R   0.290756 0.860378 0.449286 0.439130
C201  C     C_R   0.710858 0.139826 0.553056 0.439407
C202  C     C_R   0.153747 0.368698 0.504240 -0.157310
C203  C     C_R   0.848168 0.631444 0.498408 -0.157759
C204  C     C_R   0.846388 0.368692 0.495964 -0.158127
C205  C     C_R   0.151815 0.631446 0.501578 -0.157372
C206  C     C_R   0.651834 0.868556 0.501593 -0.157379
C207  C     C_R   0.346250 0.131302 0.495756 -0.158102
C208  C     C_R   0.348187 0.868553 0.498423 -0.157754
Cl1   Cl    Cl    0.253035 0.386193 0.614541 -0.617054
Cl2   Cl    Cl    0.749140 0.613218 0.388568 -0.617758
Cl3   Cl    Cl    0.747109 0.386229 0.385707 -0.617331
Cl4   Cl    Cl    0.250840 0.613230 0.611417 -0.617139
Cl5   Cl    Cl    0.750864 0.886783 0.611432 -0.617113
Cl6   Cl    Cl    0.246961 0.113808 0.385454 -0.617629
Cl7   Cl    Cl    0.249165 0.886769 0.388582 -0.617786
Cl8   Cl    Cl    0.752886 0.113770 0.614289 -0.616760
H1    H     H_    0.950324 0.229507 0.253699 0.175298
H2    H     H_    0.722019 0.675014 0.410275 0.166248
H3    H     H_    0.186560 0.675271 0.855684 0.187102
H4    H     H_    0.302088 0.260509 0.857749 0.189545
H5    H     H_    0.273763 0.296485 0.855870 0.191219
H6    H     H_    0.751032 0.688898 0.143147 0.195879
H7    H     H_    0.813320 0.675275 0.144274 0.187096
H8    H     H_    0.251132 0.811130 0.143182 0.195876
H9    H     H_    0.313440 0.824729 0.144316 0.187072
H10   H     H_    0.802206 0.244115 0.856592 0.185272
H11   H     H_    0.779434 0.207040 0.857098 0.195218
H12   H     H_    0.748968 0.811101 0.856853 0.195879
H13   H     H_    0.721050 0.324445 0.408601 0.164619
H14   H     H_    0.686680 0.824725 0.855726 0.187127
H15   H     H_    0.197913 0.239489 0.142250 0.189790
H16   H     H_    0.226239 0.203513 0.144130 0.191095
H17   H     H_    0.752511 0.256178 0.251510 0.177862
H18   H     H_    0.775823 0.293206 0.251584 0.197980
H19   H     H_    0.194872 0.689398 0.748116 0.199937
H20   H     H_    0.132885 0.675697 0.747537 0.176524
H21   H     H_    0.247769 0.257100 0.749482 0.178017
H22   H     H_    0.222866 0.293948 0.747695 0.197762
H23   H     H_    0.805027 0.689427 0.251849 0.199943
H24   H     H_    0.277970 0.675023 0.589715 0.166220
H25   H     H_    0.866993 0.675700 0.252421 0.176572
H26   H     H_    0.305128 0.810602 0.251884 0.199955
H27   H     H_    0.367114 0.824303 0.252463 0.176541
H28   H     H_    0.747489 0.243823 0.748488 0.177497
H29   H     H_    0.724178 0.206794 0.748416 0.198054
H30   H     H_    0.694973 0.810573 0.748151 0.199925
H31   H     H_    0.633007 0.824300 0.747579 0.176556
H32   H     H_    0.252231 0.242899 0.250516 0.178382
H33   H     H_    0.277136 0.206050 0.252305 0.197687
H34   H     H_    0.777983 0.824986 0.589725 0.166218
H35   H     H_    0.220976 0.175589 0.408457 0.164634
H36   H     H_    0.222032 0.824977 0.410284 0.166249
H37   H     H_    0.778948 0.175554 0.591397 0.164482
H38   H     H_    0.304733 0.299098 0.509988 0.162271
H39   H     H_    0.695889 0.700830 0.491174 0.161204
H40   H     H_    0.695315 0.299102 0.490101 0.161876
H41   H     H_    0.089570 0.794287 0.746571 0.176299
H42   H     H_    0.304105 0.700830 0.508817 0.161297
H43   H     H_    0.804111 0.799170 0.508826 0.161292
H44   H     H_    0.195267 0.200902 0.490011 0.161919
H45   H     H_    0.195895 0.799169 0.491183 0.161208
H46   H     H_    0.804684 0.200898 0.509899 0.162227
H47   H     H_    0.026961 0.127576 0.432305 0.168755
H48   H     H_    0.972043 0.872420 0.566851 0.168446
H49   H     H_    0.973475 0.127310 0.568078 0.172858
H50   H     H_    0.027888 0.872466 0.433170 0.168368
H51   H     H_    0.527890 0.627527 0.433163 0.168358
H52   H     H_    0.049317 0.229912 0.746237 0.175059
H53   H     H_    0.473478 0.372697 0.568088 0.172926
H54   H     H_    0.472045 0.627587 0.566846 0.168457
H55   H     H_    0.526961 0.372417 0.432313 0.168691
H56   H     H_    0.893246 0.229501 0.140895 0.169180
H57   H     H_    0.145946 0.793877 0.859363 0.170510
H58   H     H_    0.106283 0.230050 0.859068 0.168891
H59   H     H_    0.854102 0.793864 0.140660 0.170618
H60   H     H_    0.354054 0.706123 0.140636 0.170604
H61   H     H_    0.606757 0.270501 0.859105 0.169069
H62   H     H_    0.645898 0.706136 0.859340 0.170524
H63   H     H_    0.910477 0.794274 0.253451 0.176424
H64   H     H_    0.393718 0.269948 0.140932 0.169054
H65   H     H_    0.911450 0.372859 0.416719 0.183003
H66   H     H_    0.088514 0.627151 0.583340 0.183073
H67   H     H_    0.088554 0.372869 0.583297 0.182803
H68   H     H_    0.911474 0.627140 0.416659 0.183083
H69   H     H_    0.411486 0.872849 0.416660 0.183090
H70   H     H_    0.588550 0.127141 0.583281 0.182980
H71   H     H_    0.588527 0.872860 0.583340 0.183066
H72   H     H_    0.411445 0.127131 0.416703 0.182826
H73   H     H_    0.911233 0.429489 0.416750 0.175218
H74   H     H_    0.410430 0.705713 0.253429 0.176394
H75   H     H_    0.088726 0.570520 0.583314 0.175121
H76   H     H_    0.088766 0.429501 0.583273 0.175158
H77   H     H_    0.911259 0.570507 0.416693 0.175093
H78   H     H_    0.411274 0.929480 0.416685 0.175076
H79   H     H_    0.588767 0.070511 0.583250 0.175272
H80   H     H_    0.588741 0.929493 0.583307 0.175138
H81   H     H_    0.411234 0.070499 0.416726 0.175102
H82   H     H_    0.135474 0.391409 0.503775 0.172292
H83   H     H_    0.866874 0.608795 0.499330 0.172245
H84   H     H_    0.864689 0.391400 0.496466 0.172100
H85   H     H_    0.549678 0.270494 0.746301 0.175146
H86   H     H_    0.133106 0.608797 0.500654 0.172395
H87   H     H_    0.633129 0.891206 0.500671 0.172395
H88   H     H_    0.364522 0.108590 0.496220 0.172098
H89   H     H_    0.366897 0.891202 0.499347 0.172245
H90   H     H_    0.635307 0.108600 0.503529 0.172294
H91   H     H_    0.075598 0.354571 0.417777 0.150760
H92   H     H_    0.926114 0.646148 0.584494 0.149783
H93   H     H_    0.924528 0.354532 0.582393 0.150674
H94   H     H_    0.073872 0.646140 0.415492 0.149857
H95   H     H_    0.573887 0.853853 0.415508 0.149854
H96   H     H_    0.589523 0.705726 0.746549 0.176329
H97   H     H_    0.424400 0.145427 0.582218 0.150666
H98   H     H_    0.426129 0.853859 0.584510 0.149786
H99   H     H_    0.575470 0.145469 0.417603 0.150766
H100  H     H_    0.116975 0.302940 0.417173 0.117369
H101  H     H_    0.883804 0.697661 0.584019 0.119788
H102  H     H_    0.883087 0.302906 0.582913 0.117395
H103  H     H_    0.116190 0.697652 0.415971 0.119828
H104  H     H_    0.616196 0.802339 0.415983 0.119825
H105  H     H_    0.383024 0.197059 0.582825 0.117283
H106  H     H_    0.383809 0.802347 0.584031 0.119790
H107  H     H_    0.450684 0.270087 0.253763 0.175218
H108  H     H_    0.616912 0.197095 0.417085 0.117480
H109  H     H_    0.074858 0.055494 0.453238 0.196142
H110  H     H_    0.039626 0.081436 0.395563 0.199933
H111  H     H_    0.924282 0.944492 0.545530 0.200564
H112  H     H_    0.958931 0.918538 0.603272 0.198103
H113  H     H_    0.924687 0.073412 0.564292 0.205550
H114  H     H_    0.997644 0.073058 0.623111 0.202188
H115  H     H_    0.075599 0.944550 0.454601 0.197448
H116  H     H_    0.040961 0.918612 0.396813 0.198580
H117  H     H_    0.575601 0.555445 0.454596 0.197462
H118  H     H_    0.279022 0.324412 0.591541 0.164499
H119  H     H_    0.540963 0.581376 0.396807 0.198568
H120  H     H_    0.424692 0.426595 0.564305 0.205541
H121  H     H_    0.497650 0.426957 0.623123 0.202393
H122  H     H_    0.424286 0.555512 0.545526 0.200550
H123  H     H_    0.458935 0.581474 0.603268 0.198114
H124  H     H_    0.574861 0.444500 0.453248 0.196198
H125  H     H_    0.539628 0.418551 0.395572 0.199799
H126  H     H_    0.697795 0.255887 0.143406 0.185538
H127  H     H_    0.720567 0.292962 0.142901 0.195105
H128  H     H_    0.248868 0.688870 0.856818 0.195876
N1    N     N_R   0.734187 0.270251 0.029681 -0.136048
N2    N     N_R   0.300026 0.732541 0.032074 -0.178126
N3    N     N_R   0.310687 0.248552 0.033056 -0.180104
N4    N     N_R   0.699950 0.732555 0.967913 -0.178170
N5    N     N_R   0.199974 0.767459 0.967926 -0.178180
N6    N     N_R   0.794693 0.229371 0.032046 -0.178226
N7    N     N_R   0.800050 0.767445 0.032087 -0.178116
N8    N     N_R   0.189315 0.251447 0.966944 -0.180074
N9    N     N_R   0.048018 0.484532 0.544831 -0.161553
N10   N     N_R   0.951972 0.515477 0.455187 -0.161717
N11   N     N_R   0.951974 0.484524 0.455189 -0.161651
N12   N     N_R   0.268411 0.731291 0.970331 -0.135478
N13   N     N_R   0.048016 0.515485 0.544829 -0.161610
N14   N     N_R   0.548028 0.984523 0.544813 -0.161557
N15   N     N_R   0.451982 0.015468 0.455169 -0.161726
N16   N     N_R   0.451984 0.984515 0.455170 -0.161770
N17   N     N_R   0.548026 0.015476 0.544810 -0.161479
N18   N     N_R   0.022721 0.015455 0.554163 -0.143306
N19   N     N_R   0.977400 0.984535 0.446152 -0.138295
N20   N     N_R   0.977531 0.015482 0.446210 -0.138459
N21   N     N_R   0.022601 0.984506 0.554110 -0.139670
N22   N     N_R   0.522607 0.515502 0.554111 -0.139612
N23   N     N_R   0.281491 0.248464 0.971313 -0.136833
N24   N     N_R   0.477532 0.484509 0.446214 -0.138553
N25   N     N_R   0.477405 0.515457 0.446153 -0.138354
N26   N     N_R   0.522724 0.484554 0.554168 -0.143221
N27   N     N_3   0.033041 0.065963 0.423559 -0.424227
N28   N     N_3   0.965981 0.934013 0.575604 -0.423292
N29   N     N_3   0.968265 0.066275 0.577054 -0.431628
N30   N     N_3   0.033903 0.934068 0.424507 -0.423869
N31   N     N_3   0.533906 0.565923 0.424501 -0.423905
N32   N     N_3   0.468270 0.433734 0.577065 -0.431588
N33   N     N_3   0.465986 0.565996 0.575600 -0.423256
N34   N     N_R   0.731557 0.731305 0.029655 -0.135496
N35   N     N_3   0.533043 0.434028 0.423569 -0.424346
N36   N     N_3   0.722737 0.269936 0.130895 -0.443870
N37   N     N_3   0.216579 0.693950 0.868615 -0.442630
N38   N     N_3   0.274836 0.273339 0.869076 -0.443484
N39   N     N_3   0.783328 0.693963 0.131353 -0.442666
N40   N     N_3   0.283421 0.806050 0.131385 -0.442683
N41   N     N_3   0.777264 0.230066 0.869104 -0.443918
N42   N     N_3   0.716671 0.806037 0.868647 -0.442614
N43   N     N_3   0.225166 0.226659 0.130923 -0.443561
N44   N     N_3   0.790072 0.270186 0.263737 -0.424281
N45   N     N_R   0.231589 0.768708 0.029669 -0.135504
N46   N     N_3   0.150520 0.694517 0.735742 -0.427569
N47   N     N_3   0.209579 0.270755 0.736371 -0.424392
N48   N     N_3   0.849386 0.694530 0.264226 -0.427526
N49   N     N_3   0.349480 0.805483 0.264258 -0.427557
N50   N     N_3   0.709928 0.229815 0.736262 -0.424438
N51   N     N_3   0.650614 0.805470 0.735774 -0.427538
N52   N     N_3   0.290422 0.229244 0.263628 -0.424232
N53   N     N_R   0.765815 0.229751 0.970319 -0.135807
N54   N     N_R   0.768442 0.768695 0.970345 -0.135470
N55   N     N_R   0.218510 0.251534 0.028687 -0.136692
N56   N     N_R   0.705310 0.270631 0.967954 -0.178647
O1    O     O_3   0.000000 0.250010 0.500000 -0.482969
O2    O     O_R   0.487810 0.319320 0.536380 -0.643240
O3    O     O_R   0.487810 0.680680 0.536380 -0.644803
O4    O     O_R   0.512190 0.319320 0.463620 -0.643857
O5    O     O_R   0.951470 0.319330 0.463670 -0.637374
O6    O     O_R   0.048530 0.680670 0.536330 -0.635181
O7    O     O_R   0.048530 0.319330 0.536330 -0.637510
O8    O     O_R   0.951470 0.680670 0.463670 -0.635178
O9    O     O_R   0.451470 0.819330 0.463670 -0.635154
O10   O     O_R   0.548530 0.180670 0.536330 -0.637402
O11   O     O_R   0.548530 0.819330 0.536330 -0.635205
O12   O     O_3   0.000000 0.749990 0.500000 -0.483442
O13   O     O_R   0.451470 0.180670 0.463670 -0.637482
O14   O     O_R   0.902360 0.231840 0.536340 -0.646679
O15   O     O_R   0.097640 0.768160 0.463660 -0.644471
O16   O     O_R   0.097640 0.231840 0.463660 -0.646816
O17   O     O_R   0.902360 0.768160 0.536340 -0.644477
O18   O     O_R   0.402360 0.731840 0.536340 -0.644473
O19   O     O_R   0.597640 0.268160 0.463660 -0.646797
O20   O     O_R   0.597640 0.731840 0.463660 -0.644474
O21   O     O_R   0.402360 0.268160 0.536340 -0.646698
O22   O     O_R   0.133980 0.268190 0.536340 -0.624421
O23   O     O_3   0.500000 0.750010 0.500000 -0.483442
O24   O     O_R   0.866020 0.731810 0.463660 -0.626812
O25   O     O_R   0.866020 0.268190 0.463660 -0.624235
O26   O     O_R   0.133980 0.731810 0.536340 -0.626851
O27   O     O_R   0.633980 0.768190 0.536340 -0.626858
O28   O     O_R   0.366020 0.231810 0.463660 -0.624272
O29   O     O_R   0.366020 0.768190 0.463660 -0.626805
O30   O     O_R   0.633980 0.231810 0.536340 -0.624384
O31   O     O_R   0.038940 0.231840 0.638630 -0.650362
O32   O     O_R   0.961060 0.768160 0.361370 -0.649884
O33   O     O_R   0.961060 0.231840 0.361370 -0.649727
O34   O     O_3   0.500000 0.249990 0.500000 -0.482969
O35   O     O_R   0.038940 0.768160 0.638630 -0.649950
O36   O     O_R   0.538940 0.731840 0.638630 -0.649930
O37   O     O_R   0.461060 0.268160 0.361370 -0.649772
O38   O     O_R   0.461060 0.731840 0.361370 -0.649903
O39   O     O_R   0.538940 0.268160 0.638630 -0.650312
O40   O     O_R   0.099660 0.268190 0.638640 -0.614032
O41   O     O_R   0.900340 0.731810 0.361360 -0.613524
O42   O     O_R   0.900340 0.268190 0.361360 -0.613920
O43   O     O_R   0.099660 0.731810 0.638640 -0.613515
O44   O     O_R   0.599660 0.768190 0.638640 -0.613534
O45   O     O_R   0.012190 0.180680 0.463620 -0.643796
O46   O     O_R   0.400340 0.231810 0.361360 -0.614137
O47   O     O_R   0.400340 0.768190 0.361360 -0.613504
O48   O     O_R   0.599660 0.231810 0.638640 -0.613819
O49   O     O_R   0.987810 0.819320 0.536380 -0.644822
O50   O     O_R   0.987810 0.180680 0.536380 -0.643303
O51   O     O_R   0.012190 0.819320 0.463620 -0.644740
O52   O     O_R   0.512190 0.680680 0.463620 -0.644759
Zn1   Zn    Zn3+2 0.930660 0.275970 0.448070 0.990663
Zn2   Zn    Zn3+2 0.017430 0.775960 0.448080 0.968867
Zn3   Zn    Zn3+2 0.017430 0.224040 0.448080 0.968925
Zn4   Zn    Zn3+2 0.982570 0.775960 0.551920 0.968812
Zn5   Zn    Zn3+2 0.482570 0.724040 0.551920 0.968807
Zn6   Zn    Zn3+2 0.517430 0.275960 0.448080 0.968817
Zn7   Zn    Zn3+2 0.517430 0.724040 0.448080 0.968874
Zn8   Zn    Zn3+2 0.482570 0.275960 0.551920 0.968470
Zn9   Zn    Zn3+2 0.069340 0.724030 0.551930 0.991441
Zn10  Zn    Zn3+2 0.069340 0.275970 0.551930 0.990030
Zn11  Zn    Zn3+2 0.930660 0.724030 0.448070 0.991553
Zn12  Zn    Zn3+2 0.430660 0.775970 0.448070 0.991542
Zn13  Zn    Zn3+2 0.569340 0.224030 0.551930 0.990240
Zn14  Zn    Zn3+2 0.569340 0.775970 0.551930 0.991452
Zn15  Zn    Zn3+2 0.430660 0.224030 0.448070 0.990451
Zn16  Zn    Zn3+2 0.982570 0.224040 0.551920 0.968359

loop_
_geom_bond_atom_site_label_1
_geom_bond_atom_site_label_2
_ccdc_geom_bond_type
H120  N32   S    
C65   N24   A    
O34   Zn8   S    
C199  Cl6   S    
C109  N40   S    
C150  N14   A    
C156  H93   S    
O28   Zn15  S    
H124  N35   S    
H121  N32   S    
C124  C133  A    
O39   Zn8   S    
O10   Zn13  S    
C206  H87   S    
C184  C193  A    
O30   Zn13  S    
C200  Cl7   S    
N14   N17   A    
C158  H95   S    
N3    N23   A    
H114  N29   S    
C32   C52   A    
C131  C140  A    
C38   C55   A    
C123  C145  A    
C81   H52   S    
C69   N18   A    
C86   H107  S    
C4    C12   A    
C38   H55   S    
C140  C152  S    
H122  N33   S    
C23   C179  S    
C88   C97   A    
C121  N51   S    
C21   C177  S    
C1    O50   A    
C26   C172  S    
C100  C109  A    
C200  C208  A    
H6    N39   S    
C197  C206  A    
H115  N30   S    
N2    N12   A    
N24   N25   A    
C79   C97   S    
C158  C167  A    
C19   C58   S    
O14   Zn16  S    
C11   C20   A    
C166  C174  A    
H113  N29   S    
O18   Zn5   S    
H30   N51   S    
C81   C176  A    
C137  H79   S    
C157  C205  A    
C127  C136  A    
C130  H72   S    
C123  H65   S    
C25   C178  S    
C41   N29   S    
C130  C148  A    
C8    C22   A    
C7    C28   A    
O34   Zn13  S    
C189  H34   S    
C143  O2    A    
O46   Zn15  S    
O1    Zn1   S    
C188  H24   S    
O20   Zn7   S    
C114  N43   S    
H31   N51   S    
C164  C173  A    
C161  H99   S    
O31   Zn16  S    
H123  N33   S    
C162  H100  S    
C163  C172  A    
C60   O24   A    
C136  H78   S    
H9    N40   S    
C58   O26   A    
C34   C54   A    
O34   Zn6   S    
C203  H83   S    
C36   C44   A    
C116  N46   S    
C37   C45   A    
C189  C197  A    
C16   C25   A    
C192  H37   S    
C57   C104  S    
C146  C181  S    
C67   N21   A    
O11   Zn14  S    
O12   Zn2   S    
O6    Zn9   S    
C71   C187  S    
C185  H2    S    
C183  O10   A    
C159  C207  A    
C124  H66   S    
C54   C132  S    
C70   O31   A    
C153  C162  A    
C8    C17   A    
C33   H50   S    
C208  H89   S    
C163  H101  S    
C36   C55   A    
H18   N44   S    
C9    C21   A    
C45   C50   A    
C76   O38   A    
H33   N52   S    
C11   C23   A    
C73   O43   A    
C69   N20   A    
C90   N6    A    
C74   O44   A    
C168  H105  S    
O7    Zn10  S    
C63   O20   A    
C129  C147  A    
C86   C95   A    
C119  N49   S    
C79   N12   A    
C61   O29   A    
C80   C88   A    
C9    H44   S    
C13   C85   A    
N15   N16   A    
C80   H41   S    
O22   Zn10  S    
C70   C176  S    
N9    N13   A    
C105  N36   S    
C78   C87   A    
C64   O28   A    
O19   Zn6   S    
C5    C26   A    
C119  C198  A    
O41   Zn11  S    
O8    Zn11  S    
C63   O27   A    
O37   Zn6   S    
C68   C103  S    
C4    H38   S    
C20   C56   S    
C35   C102  S    
C159  H97   S    
C60   O17   A    
C99   C108  A    
C72   O42   A    
H22   N47   S    
C151  N13   A    
C59   O22   A    
C35   N53   A    
C33   C42   A    
C133  H75   S    
O1    Zn3   S    
C78   H1    S    
H127  N36   S    
C12   C64   S    
C194  Cl2   S    
C40   C49   A    
C75   O37   A    
C85   C94   A    
O12   Zn11  S    
C57   N3    A    
C3    H90   S    
C136  C142  A    
C32   C41   A    
H20   N46   S    
C46   N2    A    
C84   C93   A    
O1    Zn16  S    
C76   O47   A    
C46   N45   A    
C67   N19   A    
O12   Zn4   S    
C155  C203  A    
C85   H96   S    
C181  O6    A    
C55   C143  S    
C157  H94   S    
C131  H73   S    
C34   H51   S    
C129  H71   S    
C184  H118  S    
C191  C200  A    
H8    N40   S    
O26   Zn9   S    
C73   C165  S    
C132  O52   A    
C2    C120  A    
H5    N38   S    
C155  C163  A    
C124  C146  A    
C84   H85   S    
C196  Cl4   S    
C88   H57   S    
C201  Cl8   S    
C87   H56   S    
C160  C208  A    
O9    Zn12  S    
C13   C121  A    
C65   N26   A    
C172  C185  A    
N19   N20   A    
C101  N7    A    
C32   H49   S    
C24   C75   S    
C13   C74   S    
C19   C28   A    
C10   C25   A    
C137  C144  A    
C79   N5    A    
C104  C114  A    
H26   N49   S    
C92   H60   S    
C16   C61   S    
C161  C170  A    
C62   O30   A    
C4    C27   A    
H10   N41   S    
C167  C175  A    
C30   C52   A    
C56   O14   A    
C177  C190  A    
N6    N53   A    
C93   H61   S    
C207  H88   S    
C105  C115  A    
C34   C43   A    
H117  N31   S    
C118  C187  A    
C43   C50   A    
C90   C96   S    
H3    N37   S    
C89   C98   A    
C14   C22   A    
C135  H77   S    
C125  C145  A    
C28   C174  S    
C72   O33   A    
C148  C183  S    
C190  H35   S    
C30   C39   A    
O47   Zn12  S    
H12   N42   S    
C57   N55   A    
C17   C60   S    
C122  N52   S    
C9    C18   A    
C135  C141  A    
C75   O46   A    
C166  H103  S    
C90   N1    A    
C91   C99   A    
C24   C86   A    
O5    Zn1   S    
C180  O5    A    
H16   N43   S    
C125  C134  A    
C181  O8    A    
C96   C105  A    
C169  H106  S    
C59   O16   A    
C111  N42   S    
C2    C84   A    
C185  C194  A    
C160  C169  A    
N10   N11   A    
C95   C104  A    
C92   C100  A    
C134  H76   S    
H28   N50   S    
C120  N50   S    
O35   Zn4   S    
C168  C177  A    
C117  N47   S    
H7    N39   S    
C151  N10   A    
C118  N48   S    
C31   C40   A    
C103  C111  A    
C30   H47   S    
C51   C65   S    
C11   H46   S    
C94   H62   S    
C204  H84   S    
C127  H69   S    
O1    Zn10  S    
O2    Zn8   S    
C68   N4    A    
C77   O48   A    
O44   Zn14  S    
O15   Zn2   S    
C149  N17   A    
C125  H67   S    
C107  N38   S    
C126  H68   S    
C190  C199  A    
C192  C201  A    
O42   Zn1   S    
C95   H64   S    
C101  N34   A    
C160  H98   S    
C81   C89   A    
C167  H104  S    
C40   N28   S    
C3    C161  A    
C130  C139  A    
C39   N27   S    
C77   O39   A    
C22   C175  S    
O16   Zn3   S    
C108  N39   S    
C112  O49   A    
O38   Zn7   S    
C73   O35   A    
C171  C184  A    
C72   C154  S    
O36   Zn5   S    
C138  C142  A    
C78   C154  A    
C98   C113  S    
C47   C51   A    
C195  C204  A    
H116  N30   S    
C193  C202  A    
H14   N42   S    
C106  C116  A    
C31   H48   S    
C158  C206  A    
C175  C189  A    
H128  N37   S    
C56   O25   A    
C10   C19   A    
O43   Zn9   S    
C24   C122  A    
C74   O36   A    
C83   C198  A    
C196  C205  A    
C5    C14   A    
C180  O7    A    
C97   C106  A    
C147  C182  S    
C7    C16   A    
C126  C135  A    
C58   O15   A    
C115  C154  A    
C89   H58   S    
C3    C201  A    
C116  C165  A    
C102  C110  A    
C152  N9    A    
N1    N56   A    
C80   C165  A    
C197  Cl5   S    
C109  C119  A    
C110  N41   S    
O25   Zn1   S    
C153  C202  A    
O17   Zn4   S    
C123  C131  A    
C128  C148  A    
O32   Zn2   S    
C53   C112  S    
C93   C102  A    
C113  N8    A    
C68   N54   A    
H110  N27   S    
H21   N47   S    
C170  C179  A    
C133  C141  A    
C10   H45   S    
C35   N56   A    
O23   Zn12  S    
C142  C150  S    
C91   H59   S    
C2    C77   S    
C76   C198  S    
C5    H39   S    
C182  O9    A    
C14   C63   S    
C145  C180  S    
C15   C62   S    
H111  N28   S    
H125  N35   S    
C1    C52   S    
H23   N48   S    
C82   C91   A    
C61   O18   A    
C6    C29   A    
C155  H92   S    
N7    N54   A    
O33   Zn3   S    
C7    H42   S    
C107  C117  A    
C39   C48   A    
N18   N21   A    
H4    N38   S    
C112  O51   A    
C64   O21   A    
H32   N52   S    
C44   C51   A    
C111  C121  A    
C47   N35   S    
C62   O19   A    
C48   C69   S    
C126  C146  A    
O4    Zn6   S    
C186  H13   S    
C66   N22   A    
C83   C92   A    
C17   C26   A    
C70   O40   A    
O21   Zn8   S    
C139  H81   S    
H17   N44   S    
N5    N45   A    
C134  C140  A    
H11   N41   S    
C149  N15   A    
C113  N23   A    
O40   Zn10  S    
C159  C168  A    
C182  O11   A    
C174  C188  A    
C6    C15   A    
C132  O3    A    
C179  C192  A    
H119  N31   S    
C36   H53   S    
O23   Zn7   S    
H19   N46   S    
C152  N11   A    
N22   N26   A    
O45   Zn3   S    
C15   C23   A    
C83   H74   S    
C20   C29   A    
C33   C53   A    
C173  C186  A    
C202  H82   S    
C129  C138  A    
C6    H40   S    
C108  C118  A    
C186  C195  A    
O3    Zn5   S    
C150  N16   A    
C138  H80   S    
C110  C120  A    
O27   Zn14  S    
O50   Zn16  S    
C12   C21   A    
C43   N31   S    
C1    O45   A    
C128  C137  A    
C195  Cl3   S    
C205  H86   S    
O12   Zn9   S    
C66   N25   A    
N4    N34   A    
C139  C144  A    
C18   C59   S    
C193  Cl1   S    
C87   C96   A    
C199  C207  A    
C191  H36   S    
O24   Zn11  S    
C31   C53   A    
O52   Zn7   S    
C170  H108  S    
C50   C66   S    
C106  N37   S    
C156  C164  A    
C38   C47   A    
C164  H102  S    
C37   C54   A    
C117  C176  A    
O13   Zn15  S    
H126  N36   S    
C82   H63   S    
C37   H54   S    
C44   N32   S    
C156  C204  A    
C27   C171  S    
C169  C178  A    
C183  O13   A    
C71   O32   A    
C141  C151  S    
C46   C100  S    
H109  N27   S    
C49   C67   S    
C144  C149  S    
C99   C101  S    
H15   N43   S    
C18   C27   A    
O23   Zn14  S    
C29   C173  S    
C157  C166  A    
C94   C103  A    
C153  H91   S    
O49   Zn4   S    
H112  N28   S    
H29   N50   S    
C82   C187  A    
C45   N33   S    
O51   Zn2   S    
C8    H43   S    
C128  H70   S    
N8    N55   A    
C178  C191  A    
C71   O41   A    
C194  C203  A    
C41   C48   A    
O34   Zn15  S    
O29   Zn12  S    
C115  N44   S    
O23   Zn5   S    
C143  O4    A    
O48   Zn13  S    
C42   C49   A    
C114  C122  A    
C162  C171  A    
C188  C196  A    
C42   N30   S    
H27   N49   S    
C127  C147  A    
C98   C107  A    
H25   N48   S    
