data_mof_unit_5392.cif
_audit_creation_date              2013-03-05T15:40:48-0500
_audit_creation_method            fapswitch 2.2
_symmetry_space_group_name_H-M    P1
_symmetry_Int_Tables_number       1
_space_group_crystal_system       triclinic
_cell_length_a                    7.826047
_cell_length_b                    8.673269
_cell_length_c                    14.974063
_cell_angle_alpha                 90.615657
_cell_angle_beta                  86.485305
_cell_angle_gamma                 93.265909
_cell_volume                      1012.81442031

loop_
_atom_site_label
_atom_site_type_symbol
_atom_site_description
_atom_site_fract_x
_atom_site_fract_y
_atom_site_fract_z
_atom_type_partial_charge
O1    O     O_R   0.389250 0.738570 0.505970 -0.599919
O2    O     O_R   0.610750 0.261430 0.494030 -0.599924
O3    O     O_R   0.678390 0.711620 0.490370 -0.627653
O4    O     O_R   0.321610 0.288380 0.509630 -0.627651
C1    C     C_R   0.544980 0.793808 0.496630 0.898408
C2    C     C_R   0.455020 0.206193 0.503373 0.898411
O5    O     O_R   0.355420 0.513510 0.639950 -0.638819
O6    O     O_R   0.644580 0.486490 0.360050 -0.638813
O7    O     O_R   0.644560 0.486560 0.624350 -0.621100
O8    O     O_R   0.355440 0.513440 0.375650 -0.621101
C3    C     C_R   0.503073 0.500232 0.672114 0.893721
C4    C     C_R   0.496927 0.499767 0.327886 0.893727
Zn1   Zn    Zn3+2 0.306940 0.517990 0.510420 0.972857
Zn2   Zn    Zn3+2 0.693060 0.482010 0.489580 0.972857
C5    C     C_R   0.439587 0.367361 0.188511 -0.063608
C6    C     C_R   0.560407 0.632642 0.811489 -0.063614
C7    C     C_R   0.490734 0.502654 0.232665 -0.128152
C8    C     C_R   0.509265 0.497347 0.767335 -0.128147
C9    C     C_R   0.540821 0.639603 0.187349 -0.081181
C10   C     C_R   0.459177 0.360399 0.812652 -0.081178
C11   C     C_R   0.550946 0.640502 0.092992 0.029076
C12   C     C_R   0.449040 0.359504 0.907008 0.029076
C13   C     C_R   0.498181 0.501968 0.047114 0.034837
C14   C     C_R   0.501802 0.498039 0.952886 0.034837
C15   C     C_R   0.441266 0.366880 0.095334 0.074555
C16   C     C_R   0.558720 0.633126 0.904666 0.074554
C17   C     C_R   0.611860 0.772474 0.042209 -0.016643
C18   C     C_R   0.388117 0.227535 0.957791 -0.016643
C19   C     C_R   0.613297 0.766905 0.950048 -0.221518
C20   C     C_R   0.386680 0.233103 0.049952 -0.221517
H1    H     H_    0.659487 0.869910 0.913561 0.164281
H2    H     H_    0.340484 0.130100 0.086439 0.164281
C21   C     C_2   0.569942 0.956549 0.498521 0.221219
C22   C     C_2   0.430057 0.043452 0.501490 0.221231
N1    N     N_2   0.950330 0.457950 0.475660 -0.158936
N2    N     N_2   0.049670 0.542050 0.524340 -0.158931
C23   C     C_1   0.383346 0.230311 0.240137 0.168490
N3    N     N_1   0.337149 0.122079 0.281321 -0.169960
C24   C     C_1   0.616662 0.769687 0.759862 0.168486
N4    N     N_1   0.662871 0.877915 0.718678 -0.169943
C25   C     C_1   0.572983 0.777513 0.240571 0.190715
N5    N     N_1   0.597562 0.886762 0.283748 -0.233775
C26   C     C_1   0.427038 0.222484 0.759431 0.190702
N6    N     N_1   0.402476 0.113230 0.716256 -0.233773
C27   C     C_1   0.681056 0.916141 0.079187 0.178358
N7    N     N_1   0.737150 0.031742 0.107460 -0.186866
C28   C     C_1   0.318909 0.083873 0.920812 0.178358
N8    N     N_1   0.262805 0.968277 0.892539 -0.186869
O9    O     O_3   0.734586 0.017367 0.512958 -0.618579
C29   C     C_3   0.832424 0.026687 0.430422 -0.199725
H3    H     H_    0.767328 0.089968 0.379196 0.167631
H4    H     H_    0.864931 0.910566 0.405000 0.186578
H5    H     H_    0.954598 0.093383 0.440927 0.207777
O10   O     O_3   0.265408 0.982634 0.487061 -0.618579
C30   C     C_3   0.167589 0.973314 0.569603 -0.199755
H6    H     H_    0.135132 0.089436 0.595042 0.186562
H7    H     H_    0.232678 0.909996 0.620816 0.167644
H8    H     H_    0.045391 0.906658 0.559102 0.207785
C31   C     C_1   0.013456 0.420897 0.390316 0.407657
N9    N     N_1   0.060439 0.388597 0.318140 -0.229730
C32   C     C_1   0.986545 0.579101 0.609685 0.407665
N10   N     N_1   0.939563 0.611398 0.681861 -0.229732

loop_
_geom_bond_atom_site_label_1
_geom_bond_atom_site_label_2
_geom_bond_distance
_ccdc_geom_bond_type
C4    C7    1.430169 S    
C29   H4    1.110429 S    
O7    Zn2   2.030825 S    
C3    C8    1.430170 S    
C5    C7    1.391606 A    
C23   N3    1.157006 T    
C17   C19   1.379730 A    
C25   N5    1.155057 T    
N1    N2    1.288898 D    
O6    C4    1.290387 A    
C13   C14   1.409601 A    
C17   C27   1.448298 S    
C30   H6    1.110416 S    
C18   C20   1.379730 A    
C21   C22   1.362313 D    
C11   C17   1.423997 A    
C9    C25   1.448800 S    
C31   N9    1.156821 T    
C19   H1    1.084809 S    
C12   C18   1.423994 A    
C27   N7    1.157903 T    
O5    C3    1.290386 A    
Zn1   N2    2.033786 S    
O7    C3    1.291402 A    
O2    C2    1.283923 A    
O3    Zn2   2.001161 S    
O8    C4    1.291402 A    
C26   N6    1.155053 T    
O1    C1    1.283921 A    
C18   C28   1.448297 S    
N1    C31   1.382880 S    
C7    C9    1.398792 A    
C10   C12   1.410347 A    
C22   O10   1.392663 S    
C8    C10   1.398791 A    
C30   H7    1.112638 S    
C11   C13   1.430620 A    
C6    C16   1.394456 A    
C32   N10   1.156822 T    
O2    Zn2   1.984084 S    
C12   C14   1.430618 A    
C5    C15   1.394457 A    
C29   H5    1.107718 S    
O1    Zn1   1.984082 S    
C6    C24   1.456943 S    
C21   O9    1.392664 S    
N2    C32   1.382882 S    
C20   H2    1.084808 S    
C2    C22   1.414100 S    
O5    Zn1   2.000249 S    
C10   C26   1.448797 S    
C16   C19   1.397392 A    
C6    C8    1.391606 A    
C13   C15   1.418383 A    
C30   H8    1.107704 S    
C15   C20   1.397393 A    
O9    C29   1.413978 S    
C24   N4    1.157004 T    
C5    C23   1.456944 S    
O6    Zn2   2.000251 S    
C29   H3    1.112653 S    
C9    C11   1.410351 A    
O10   C30   1.413978 S    
O4    C2    1.295519 A    
Zn2   N1    2.033786 S    
C28   N8    1.157903 T    
O4    Zn1   2.001163 S    
C14   C16   1.418382 A    
O3    C1    1.295522 A    
O8    Zn1   2.030826 S    
C1    C21   1.414103 S    
