data_mof_unit_39469.cif
_audit_creation_date              2012-12-10T20:28:48-0500
_audit_creation_method            fapswitch 2.2
_symmetry_space_group_name_H-M    P1
_symmetry_Int_Tables_number       1
_space_group_crystal_system       triclinic
_cell_length_a                    10.725316
_cell_length_b                    10.662238
_cell_length_c                    9.863713
_cell_angle_alpha                 90.063401
_cell_angle_beta                  89.952171
_cell_angle_gamma                 90.619908
_cell_volume                      1127.90640733

loop_
_atom_site_label
_atom_site_type_symbol
_atom_type_description
_atom_site_fract_x
_atom_site_fract_y
_atom_site_fract_z
_atom_type_partial_charge
C1    C     C_R   0.501831 0.260438 0.499525 0.896052
C2    C     C_R   0.431416 0.934519 0.402143 -0.219736
C3    C     C_R   0.502553 0.871511 0.499044 -0.049182
C4    C     C_R   0.260450 0.511726 0.500677 0.872551
C5    C     C_R   0.587954 0.937599 0.578695 0.015247
C6    C     C_3   0.628110 0.934540 0.724917 -0.098029
C7    C     C_3   0.639875 0.077773 0.714487 0.255387
C8    C     C_R   0.395560 0.465037 0.071532 0.058785
C9    C     C_R   0.596716 0.552156 0.070283 0.453732
C10   C     C_R   0.597515 0.548536 0.926881 -0.160699
C11   C     C_R   0.395294 0.465353 0.929312 0.156296
C12   C     C_R   0.061944 0.529946 0.628038 0.104497
C13   C     C_3   0.325605 0.343108 0.925103 0.241431
C14   C     C_3   0.326828 0.343314 0.079570 -0.521057
C15   C     C_R   0.499945 0.739692 0.500278 0.877311
C16   C     C_R   0.739913 0.489649 0.500983 0.884695
C17   C     C_R   0.115037 0.575479 0.750473 -0.174530
C18   C     C_R   0.056613 0.552928 0.874508 -0.179870
C19   C     C_R   0.945849 0.484274 0.878236 -0.141017
C20   C     C_R   0.887334 0.450015 0.757329 -0.134052
C21   C     C_R   0.939134 0.485377 0.630345 0.097347
C22   C     C_3   0.526077 0.894418 0.825549 -0.876855
C23   C     C_R   0.127138 0.523958 0.503338 -0.127368
C24   C     C_R   0.063607 0.506486 0.381107 -0.221055
C25   C     C_R   0.937047 0.489321 0.381881 -0.198701
C26   C     C_R   0.873628 0.480398 0.505210 -0.124033
C27   C     C_R   0.594863 0.065092 0.571422 -0.024078
C28   C     C_R   0.507552 0.128953 0.494812 -0.088023
C29   C     C_R   0.432737 0.064196 0.401079 -0.195967
H1    H     H_    0.111533 0.505131 0.284376 0.166826
H2    H     H_    0.903746 0.459958 0.974623 0.166133
H3    H     H_    0.803296 0.393699 0.765174 0.202100
H4    H     H_    0.889121 0.482884 0.285412 0.201793
H5    H     H_    0.371100 0.113365 0.332774 0.151876
H6    H     H_    0.370267 0.884046 0.333147 0.156105
H7    H     H_    0.815274 0.076092 0.655635 0.336609
H8    H     H_    0.660904 0.652420 0.215070 0.375328
H9    H     H_    0.343734 0.170598 0.872537 0.323266
H10   H     H_    0.521558 0.791022 0.833877 0.267133
H11   H     H_    0.548711 0.932091 0.927714 0.250499
H12   H     H_    0.718310 0.885984 0.740024 0.185399
H13   H     H_    0.433332 0.929936 0.794437 0.241217
H14   H     H_    0.576487 0.131426 0.780771 0.221860
H15   H     H_    0.675788 0.587947 0.871755 0.174443
H16   H     H_    0.231391 0.350446 0.878846 0.116656
H17   H     H_    0.232470 0.354138 0.124386 0.161793
H18   H     H_    0.383777 0.267797 0.125327 0.232748
H19   H     H_    0.200728 0.629825 0.751705 0.156601
H20   H     H_    0.099604 0.584799 0.967843 0.138507
N1    N     N_R   0.499160 0.499140 0.142800 -0.142548
N2    N     N_R   0.499160 0.499180 0.857150 -0.119385
O1    O     O_R   0.500020 0.316790 0.614690 -0.564613
O2    O     O_3   0.694671 0.612044 0.133111 -0.786551
O3    O     O_3   0.397669 0.246767 0.870999 -0.745679
O4    O     O_R   0.500000 0.316760 0.385350 -0.621096
O5    O     O_R   0.316770 0.500020 0.614690 -0.627897
O6    O     O_R   0.316760 0.499980 0.385350 -0.619296
O7    O     O_R   0.500000 0.683240 0.614650 -0.625662
O8    O     O_R   0.499980 0.683210 0.385310 -0.650462
O9    O     O_R   0.683240 0.500020 0.614650 -0.639482
O10   O     O_R   0.683230 0.499980 0.385310 -0.610011
O11   O     O_3   0.763816 0.122157 0.722658 -0.772269
Zn1   Zn    Zn3+2 0.500010 0.500020 0.653130 0.966532
Zn2   Zn    Zn3+2 0.499990 0.499980 0.346870 0.952449

loop_
_geom_bond_atom_site_label_1
_geom_bond_atom_site_label_2
_ccdc_geom_bond_type
C2    H6    S    
C12   C17   A    
C1    C28   S    
C23   C24   A    
C7    O11   S    
C6    C7    S    
C7    H14   S    
O10   Zn2   S    
N1    Zn2   S    
C9    C10   A    
C7    C27   S    
C19   C20   A    
H9    O3    S    
C17   H19   S    
C21   C26   A    
C22   H11   S    
O4    Zn2   S    
C2    C3    A    
C1    O4    A    
O5    Zn1   S    
C19   H2    S    
C14   H17   S    
C13   C14   S    
C4    O5    A    
C4    O6    A    
C13   H16   S    
C11   C13   S    
C12   C23   A    
O8    Zn2   S    
C22   H13   S    
C8    C11   A    
H7    O11   S    
C22   H10   S    
C12   C21   A    
C24   C25   A    
C28   C29   A    
C1    O1    A    
C17   C18   A    
C24   H1    S    
C2    C29   A    
C11   N2    A    
C16   C26   S    
C5    C6    S    
C15   O7    A    
O9    Zn1   S    
C9    O2    S    
C16   O10   A    
C10   N2    A    
C10   H15   S    
H8    O2    S    
C6    C22   S    
C8    N1    A    
C16   O9    A    
N2    Zn1   S    
C20   C21   A    
O6    Zn2   S    
C13   O3    S    
C20   H3    S    
O7    Zn1   S    
C4    C23   S    
C18   C19   A    
C3    C15   S    
C8    C14   S    
C3    C5    A    
C25   C26   A    
C5    C27   A    
C14   H18   S    
C15   O8    A    
C29   H5    S    
O1    Zn1   S    
C9    N1    A    
C18   H20   S    
C25   H4    S    
C27   C28   A    
C6    H12   S    
