data_mof_unit_38248.cif
_audit_creation_date              2012-12-11T14:15:25-0500
_audit_creation_method            fapswitch 2.2
_symmetry_space_group_name_H-M    P1
_symmetry_Int_Tables_number       1
_space_group_crystal_system       triclinic
_cell_length_a                    11.152752
_cell_length_b                    12.710147
_cell_length_c                    23.5372
_cell_angle_alpha                 91.211641
_cell_angle_beta                  96.890483
_cell_angle_gamma                 68.77787
_cell_volume                      3086.846239

loop_
_atom_site_label
_atom_site_type_symbol
_atom_type_description
_atom_site_fract_x
_atom_site_fract_y
_atom_site_fract_z
_atom_type_partial_charge
C1    C     C_R   0.150627 0.616392 0.429227 0.541486
C2    C     C_R   0.652740 0.552648 0.309856 -0.006790
C3    C     C_R   0.671620 0.737732 0.321552 0.063637
C4    C     C_R   0.667410 0.747668 0.261926 0.010363
C5    C     C_R   0.674800 0.653469 0.227365 0.011616
C6    C     C_R   0.684042 0.662077 0.169158 -0.144532
C7    C     C_R   0.655216 0.860866 0.177135 -0.004143
C8    C     C_R   0.659726 0.849018 0.236488 -0.113975
C9    C     C_1   0.238312 0.163943 0.122871 -0.019315
C10   C     C_2   0.195694 0.227367 0.228721 -0.108654
C11   C     C_2   0.139678 0.174348 0.260026 0.023557
C12   C     C_R   0.746114 0.603863 0.404432 0.572300
C13   C     C_1   0.124839 0.205048 0.318902 -0.053979
C14   C     C_1   0.218160 0.197440 0.170355 -0.060653
C15   C     C_1   0.113340 0.235129 0.367492 -0.026518
C16   C     C_1   0.170464 0.753795 0.125128 -0.025934
C17   C     C_2   0.140928 0.703297 0.230546 0.017106
C18   C     C_2   0.243772 0.663219 0.271465 -0.117153
C19   C     C_1   0.226383 0.645040 0.330242 -0.063712
C20   C     C_1   0.158575 0.728319 0.172849 -0.053434
C21   C     C_1   0.198861 0.632141 0.377138 -0.017482
C22   C     C_1   0.630235 0.754260 0.865572 -0.006576
C23   C     C_R   0.100795 0.282453 0.423228 0.545121
C24   C     C_2   0.703991 0.702878 0.762658 -0.128286
C25   C     C_2   0.614353 0.705916 0.718688 -0.125032
C26   C     C_1   0.652185 0.671302 0.662765 -0.051116
C27   C     C_1   0.667133 0.732312 0.819148 -0.047288
C28   C     C_1   0.690628 0.640838 0.617240 -0.003360
C29   C     C_R   0.205348 0.176876 0.853207 -0.022579
C30   C     C_R   0.110542 0.223209 0.639885 -0.015345
C31   C     C_R   0.005808 0.176690 0.715160 0.104122
C32   C     C_R   0.006930 0.199834 0.657293 -0.104359
C33   C     C_R   0.215944 0.217704 0.679355 -0.138340
C34   C     C_R   0.149126 0.616850 0.590981 0.542598
C35   C     C_R   0.211601 0.207624 0.737495 0.017503
C36   C     C_R   0.106444 0.184303 0.755808 0.064527
C37   C     C_R   0.106819 0.165777 0.814149 -0.120042
C38   C     C_R   0.294967 0.219184 0.835266 -0.098629
C39   C     C_R   0.307862 0.224755 0.777537 0.014039
C40   C     C_R   0.123924 0.741986 0.853751 0.025202
C41   C     C_R   0.186574 0.637083 0.650246 -0.000537
C42   C     C_R   0.303250 0.562560 0.742217 -0.143780
C43   C     C_R   0.292275 0.557847 0.682879 -0.140281
C44   C     C_R   0.096244 0.724287 0.677018 -0.108506
C45   C     C_R   0.749698 0.602640 0.566003 0.547057
C46   C     C_R   0.099534 0.724570 0.735909 0.048136
C47   C     C_R   0.205652 0.643751 0.769395 0.028730
C48   C     C_R   0.213602 0.649137 0.829156 0.084897
C49   C     C_R   0.010646 0.811047 0.820802 -0.140505
C50   C     C_R   0.996963 0.802904 0.761670 0.071143
C51   C     C_R   0.265774 0.111134 0.069123 0.539203
C52   C     C_R   0.597596 0.777679 0.082481 0.535557
C53   C     C_R   0.190362 0.788873 0.070225 0.542250
C54   C     C_R   0.241403 0.115524 0.907884 0.544591
C55   C     C_R   0.574118 0.776006 0.918308 0.547560
C56   C     C_R   0.100061 0.277916 0.584765 0.547338
C57   C     C_R   0.162976 0.784925 0.907951 0.564609
C58   C     C_R   0.657993 0.766359 0.142721 -0.006821
C59   C     C_R   0.680401 0.635357 0.345565 0.037795
C60   C     C_R   0.661387 0.556620 0.250538 0.017503
Cr1   Cr    Cr6+3 0.189770 0.415650 0.511620 1.021365
Cr2   Cr    Cr6+3 0.930400 0.667320 0.496770 1.036820
Cr3   Cr    Cr6+3 0.879870 0.417010 0.491650 1.002329
Cr4   Cr    Cr6+3 0.149500 0.973980 0.985330 1.018167
Cr5   Cr    Cr6+3 0.457000 0.976510 0.994660 1.005947
Cr6   Cr    Cr6+3 0.411170 0.724270 0.995270 1.033904
H1    H     H_    0.695171 0.590663 0.141946 0.137639
H2    H     H_    0.512577 0.732672 0.724697 0.142657
H3    H     H_    0.805974 0.674229 0.756878 0.141523
H4    H     H_    0.036166 0.136111 0.829048 0.152417
H5    H     H_    0.364904 0.234079 0.867126 0.142494
H6    H     H_    0.925319 0.203542 0.626303 0.124345
H7    H     H_    0.296192 0.233150 0.664633 0.135766
H8    H     H_    0.937772 0.878053 0.840543 0.135360
H9    H     H_    0.386888 0.501014 0.766277 0.113995
H10   H     H_    0.363172 0.490022 0.662694 0.126057
H11   H     H_    0.016492 0.787687 0.651615 0.171928
H12   H     H_    0.652098 0.920642 0.262993 0.116439
H13   H     H_    0.230418 0.291123 0.247946 0.116008
H14   H     H_    0.341267 0.645525 0.261078 0.118574
O1    O     O_R   0.196340 0.303200 0.448500 -0.504638
O2    O     O_R   0.811960 0.658090 0.547150 -0.493894
O3    O     O_R   0.757930 0.506140 0.547110 -0.511321
O4    O     O_R   0.988670 0.321620 0.556040 -0.500459
O5    O     O_3   0.000020 0.499990 0.500010 -0.247503
O6    O     O_R   0.113660 0.883270 0.047820 -0.511348
O7    O     O_R   0.186930 0.068530 0.043990 -0.492309
O8    O     O_R   0.377770 0.089040 0.054220 -0.535887
O9    O     O_R   0.562800 0.872960 0.056970 -0.517187
O10   O     O_R   0.555390 0.700940 0.062700 -0.521395
O11   O     O_R   0.295020 0.731920 0.049950 -0.498864
O12   O     O_R   0.199310 0.519670 0.454880 -0.496203
O13   O     O_R   0.094290 0.884230 0.921550 -0.532824
O14   O     O_R   0.168980 0.069410 0.926940 -0.500051
O15   O     O_R   0.358400 0.089990 0.927950 -0.518992
O16   O     O_R   0.544850 0.873850 0.939920 -0.492031
O17   O     O_R   0.536020 0.701900 0.936430 -0.506233
O18   O     O_R   0.277070 0.732810 0.932890 -0.457560
O19   O     O_3   0.339220 0.891590 0.991750 -0.245502
O20   O     O_R   0.045660 0.691380 0.441680 -0.507699
O21   O     O_R   0.811930 0.659460 0.430950 -0.461381
O22   O     O_R   0.757900 0.507620 0.421760 -0.535352
O23   O     O_R   0.988630 0.322990 0.439840 -0.506574
O24   O     O_R   0.196380 0.301720 0.573850 -0.522116
O25   O     O_R   0.199350 0.518300 0.571080 -0.498814
O26   O     O_R   0.045700 0.689900 0.567030 -0.525312
C61   C     C_3   0.003647 0.740507 0.245222 -0.238218
C62   C     C_3   0.967453 0.855941 0.272579 -0.424929
H15   H     H_    0.039417 0.856501 0.309376 0.164205
H16   H     H_    0.962501 0.919433 0.240103 0.145191
H17   H     H_    0.872596 0.879485 0.288651 0.127731
H18   H     H_    0.935519 0.746073 0.205871 0.153641
H19   H     H_    0.992696 0.678313 0.274726 0.156274
N1    N     N_3   0.899582 0.152428 0.733123 -0.648218
H20   H     H_    0.936235 0.068493 0.747816 0.250081
H21   H     H_    0.829838 0.157581 0.698301 0.231897
C63   C     C_3   0.425241 0.243347 0.758224 -0.285491
C64   C     C_3   0.529256 0.250459 0.805287 -0.449872
H22   H     H_    0.489376 0.324283 0.832509 0.136771
H23   H     H_    0.569610 0.171559 0.831951 0.161123
H24   H     H_    0.609679 0.260967 0.785319 0.160855
H25   H     H_    0.474484 0.171673 0.731111 0.147566
H26   H     H_    0.390925 0.321915 0.731623 0.142230
N2    N     N_3   0.314041 0.564597 0.865111 -0.607876
H27   H     H_    0.404267 0.564093 0.856818 0.239029
H28   H     H_    0.307562 0.485955 0.855704 0.218121
C65   C     C_3   0.641988 0.973786 0.150834 -0.255267
C66   C     C_3   0.654882 0.065485 0.191780 -0.477072
H29   H     H_    0.572524 0.094957 0.217781 0.148613
H30   H     H_    0.747407 0.034697 0.220257 0.144490
H31   H     H_    0.652532 0.139244 0.166564 0.141966
H32   H     H_    0.715046 0.958574 0.120373 0.154974
H33   H     H_    0.544282 0.010559 0.127770 0.211611
N3    N     N_3   0.882962 0.877814 0.727657 -0.661466
H34   H     H_    0.818231 0.931264 0.753756 0.228881
H35   H     H_    0.835090 0.828563 0.706395 0.234936
C67   C     C_3   0.654560 0.459317 0.212301 -0.279884
C68   C     C_3   0.523477 0.488642 0.175473 -0.433732
H36   H     H_    0.447170 0.492976 0.202558 0.140321
H37   H     H_    0.494730 0.570511 0.152055 0.182510
H38   H     H_    0.529029 0.421630 0.143750 0.139315
H39   H     H_    0.734703 0.433161 0.185155 0.129677
H40   H     H_    0.671912 0.381255 0.236868 0.147972
C69   C     C_3   0.600634 0.468805 0.333774 -0.244543
C70   C     C_3   0.703699 0.349919 0.346132 -0.389418
H41   H     H_    0.715603 0.327158 0.392300 0.167495
H42   H     H_    0.672942 0.286165 0.321911 0.105141
H43   H     H_    0.799301 0.344092 0.334170 0.169026
H44   H     H_    0.555053 0.501892 0.373144 0.157972
H45   H     H_    0.518991 0.463003 0.303532 0.129320
N4    N     N_3   0.667443 0.829936 0.358702 -0.619911
H46   H     H_    0.746589 0.853436 0.354624 0.230899
H47   H     H_    0.581213 0.898122 0.347251 0.222057
C71   C     C_3   0.085139 0.088271 0.235008 -0.248217
C72   C     C_3   0.951416 0.146287 0.201591 -0.437268
H48   H     H_    0.880757 0.193252 0.231138 0.138032
H49   H     H_    0.954875 0.205918 0.168573 0.164912
H50   H     H_    0.917992 0.082127 0.179501 0.137382
H51   H     H_    0.151345 0.030585 0.206603 0.158444
H52   H     H_    0.077145 0.035178 0.270146 0.136545

loop_
_geom_bond_atom_site_label_1
_geom_bond_atom_site_label_2
_ccdc_geom_bond_type
C67   H39   S    
C1    C21   S    
C72   H49   S    
C2    C69   S    
C61   H18   S    
C6    C58   A    
C52   O10   A    
C35   C36   A    
C9    C51   S    
C24   C27   S    
C4    C8    A    
C66   H29   S    
N1    H20   S    
C68   H36   S    
C7    C8    A    
Cr6   O10   S    
C65   H32   S    
Cr5   O9    S    
C34   C41   S    
C42   H9    S    
Cr6   O17   S    
C44   H11   S    
C19   C21   T    
Cr4   O13   S    
C17   C61   S    
C5    C6    A    
C2    C60   A    
C29   C54   S    
C40   C49   A    
C17   C20   S    
C62   H15   S    
C18   C19   S    
C64   H22   S    
C61   H19   S    
C69   H45   S    
C11   C71   S    
C16   C53   S    
C12   C59   S    
Cr5   O16   S    
C23   O23   A    
C45   O2    A    
C29   C38   A    
C53   O11   A    
C61   C62   S    
C56   O4    A    
C53   O6    A    
Cr1   O25   S    
C7    C58   A    
C30   C33   A    
Cr1   O12   S    
C60   C67   S    
Cr2   O21   S    
C15   C23   S    
Cr2   O2    S    
N4    H46   S    
C63   H25   S    
C57   O13   A    
C37   H4    S    
Cr3   O5    S    
C72   H50   S    
C8    H12   S    
C41   C43   A    
C52   O9    A    
C45   O3    A    
C25   H2    S    
Cr3   O22   S    
C1    O20   A    
Cr4   O6    S    
C70   H42   S    
C44   C46   A    
C24   H3    S    
C70   H41   S    
Cr4   O19   S    
C52   C58   S    
Cr2   O5    S    
C28   C45   S    
C34   O26   A    
C47   C48   A    
Cr1   O24   S    
C24   C25   D    
C56   O24   A    
C32   H6    S    
C10   C14   S    
C51   O7    A    
C2    C59   A    
C4    C5    A    
N3    H35   S    
C25   C26   S    
C39   C63   S    
C30   C56   S    
C3    C4    A    
Cr3   O3    S    
C64   H24   S    
Cr6   O19   S    
C35   C39   A    
C9    C14   T    
C71   H52   S    
C69   H44   S    
C31   C32   A    
C12   O22   A    
Cr5   O15   S    
C16   C20   T    
C55   O17   A    
C17   C18   D    
C54   O15   A    
Cr5   O19   S    
C71   C72   S    
N3    H34   S    
Cr6   O11   S    
Cr1   O5    S    
Cr2   O20   S    
Cr3   O23   S    
C6    H1    S    
C49   C50   A    
C1    O12   A    
C22   C27   T    
C13   C15   T    
C50   N3    S    
C41   C44   A    
C42   C43   A    
C65   C66   S    
C66   H31   S    
C70   H43   S    
Cr5   O8    S    
N2    H28   S    
C33   H7    S    
C43   H10   S    
C40   C48   A    
C31   N1    S    
C46   C47   A    
C36   C37   A    
C40   C57   S    
Cr4   O7    S    
C5    C60   A    
C31   C36   A    
C34   O25   A    
C3    N4    S    
C23   O1    A    
C65   H33   S    
C55   O16   A    
C68   H38   S    
C66   H30   S    
C51   O8    A    
C48   N2    S    
N1    H21   S    
C10   H13   S    
C22   C55   S    
C68   H37   S    
C67   C68   S    
C46   C50   A    
C26   C28   T    
C62   H17   S    
Cr3   O4    S    
C69   C70   S    
Cr6   O18   S    
C63   H26   S    
Cr4   O14   S    
C12   O21   A    
Cr1   O1    S    
C63   C64   S    
C30   C32   A    
C11   C13   S    
C38   C39   A    
C57   O18   A    
C33   C35   A    
C62   H16   S    
C42   C47   A    
N4    H47   S    
C67   H40   S    
C64   H23   S    
C54   O14   A    
C10   C11   D    
C71   H51   S    
C18   H14   S    
Cr2   O26   S    
C29   C37   A    
C72   H48   S    
C49   H8    S    
C7    C65   S    
C38   H5    S    
N2    H27   S    
C3    C59   A    
