data_mof_unit_31571.cif
_audit_creation_date              2012-12-10T17:37:29-0500
_audit_creation_method            fapswitch 2.2
_symmetry_space_group_name_H-M    P1
_symmetry_Int_Tables_number       1
_space_group_crystal_system       triclinic
_cell_length_a                    12.106051
_cell_length_b                    12.724354
_cell_length_c                    15.455596
_cell_angle_alpha                 92.396811
_cell_angle_beta                  81.510174
_cell_angle_gamma                 95.314862
_cell_volume                      2343.63595757

loop_
_atom_site_label
_atom_site_type_symbol
_atom_type_description
_atom_site_fract_x
_atom_site_fract_y
_atom_site_fract_z
_atom_type_partial_charge
C1    C     C_R   0.523453 0.700211 0.498790 0.953685
C2    C     C_R   0.527108 0.128222 0.447356 0.558234
C3    C     C_R   0.468355 0.977600 0.538541 -0.033054
C4    C     C_R   0.532645 0.022772 0.462714 -0.024526
C5    C     C_R   0.945106 0.370833 0.454666 0.509375
C6    C     C_R   0.053876 0.627453 0.549034 0.514677
C7    C     C_R   0.832983 0.387560 0.455933 -0.059727
C8    C     C_R   0.166370 0.611316 0.546552 -0.059465
C9    C     C_R   0.863385 0.560976 0.515514 0.024691
C10   C     C_R   0.136242 0.438363 0.485779 0.025747
C11   C     C_R   0.978880 0.547875 0.516799 -0.164574
C12   C     C_R   0.476579 0.299837 0.501470 0.960416
C13   C     C_R   0.020479 0.451018 0.485544 -0.159335
C14   C     C_R   0.483530 0.497830 0.658176 0.890902
C15   C     C_R   0.515850 0.497644 0.341543 0.881441
C16   C     C_R   0.469451 0.467489 0.751787 -0.189435
C17   C     C_R   0.522062 0.473223 0.245449 -0.185270
C18   C     C_R   0.566240 0.449039 0.787048 -0.222291
C19   C     C_R   0.423771 0.473599 0.207316 -0.242597
C20   C     C_R   0.561364 0.385129 0.859426 -0.068230
C21   C     C_R   0.407381 0.410447 0.132835 -0.068341
C22   C     C_R   0.456138 0.340886 0.900101 -0.205486
C23   C     C_R   0.460874 0.188408 0.507878 -0.155090
C24   C     C_R   0.493540 0.348904 0.093355 -0.201962
C25   C     C_R   0.358343 0.367597 0.870842 0.638441
C26   C     C_R   0.598627 0.363070 0.122162 0.637943
C27   C     C_R   0.363441 0.432896 0.798892 -0.143842
C28   C     C_R   0.615297 0.427662 0.196288 -0.100719
C29   C     C_2   0.446259 0.249297 0.957504 0.553771
C30   C     C_2   0.469243 0.252333 0.040057 0.552086
C31   C     C_R   0.730070 0.446464 0.220203 0.170387
C32   C     C_R   0.778042 0.550411 0.230466 -0.138403
C33   C     C_R   0.887442 0.569071 0.250001 -0.153655
C34   C     C_R   0.539504 0.811768 0.492953 -0.147828
C35   C     C_R   0.950334 0.484377 0.258301 -0.118638
C36   C     C_R   0.903503 0.380865 0.247906 -0.182030
C37   C     C_R   0.793627 0.361730 0.229726 -0.041709
C38   C     C_R   0.256328 0.460273 0.774000 0.191812
C39   C     C_R   0.228062 0.565099 0.783357 -0.126046
C40   C     C_R   0.123268 0.590136 0.766655 -0.132098
C41   C     C_R   0.046452 0.510931 0.740084 -0.122752
C42   C     C_R   0.074669 0.406734 0.729333 -0.185115
C43   C     C_R   0.179108 0.381194 0.746409 -0.065520
C44   C     C_R   0.295346 0.403464 0.104518 0.093636
C45   C     C_R   0.602087 0.962000 0.404249 -0.131778
C46   C     C_R   0.224710 0.309211 0.111930 -0.100374
C47   C     C_R   0.116023 0.306145 0.091058 -0.051941
C48   C     C_R   0.076934 0.397041 0.063202 -0.060179
C49   C     C_R   0.146623 0.490947 0.055237 -0.108076
C50   C     C_R   0.255347 0.494414 0.076191 -0.145443
C51   C     C_R   0.669196 0.355780 0.881555 0.116438
C52   C     C_R   0.697267 0.250778 0.871073 -0.088524
C53   C     C_R   0.803681 0.225654 0.883601 -0.080449
C54   C     C_R   0.883313 0.305136 0.905276 -0.078061
C55   C     C_R   0.856426 0.409864 0.915055 -0.100041
C56   C     C_R   0.399329 0.038544 0.597229 -0.123613
C57   C     C_R   0.749917 0.435217 0.903243 -0.133844
C58   C     C_R   0.181229 0.337519 0.455113 0.260102
C59   C     C_R   0.232973 0.324934 0.368470 -0.075912
C60   C     C_R   0.268606 0.227061 0.337504 -0.126471
C61   C     C_R   0.247330 0.139901 0.391437 -0.093360
C62   C     C_R   0.191988 0.150934 0.476882 -0.109088
C63   C     C_R   0.160650 0.249735 0.509311 -0.060405
C64   C     C_R   0.818252 0.661450 0.546875 0.262312
C65   C     C_R   0.838667 0.749546 0.493061 -0.066404
C66   C     C_R   0.808732 0.848466 0.526389 -0.102840
C67   C     C_R   0.604787 0.855935 0.419162 -0.348563
C68   C     C_R   0.756015 0.859506 0.612652 -0.092814
C69   C     C_R   0.735397 0.772080 0.666375 -0.129535
C70   C     C_R   0.768055 0.673674 0.634062 -0.067312
C71   C     C_R   0.396524 0.144579 0.582204 -0.336270
C72   C     C_R   0.473334 0.871938 0.553557 0.556307
F1    F     F_    0.977380 0.276319 0.421467 -0.695699
F2    F     F_    0.020793 0.720618 0.584780 -0.685952
F3    F     F_    0.465410 0.158848 0.080472 -0.606259
F4    F     F_    0.414642 0.153644 0.921883 -0.605724
F5    F     F_    0.257185 0.324069 0.909204 -0.672979
F6    F     F_    0.683608 0.309234 0.080084 -0.678183
F7    F     F_    0.588809 0.173818 0.375533 -0.692066
F8    F     F_    0.411035 0.826138 0.625022 -0.690233
H1    H     H_    0.647971 0.474898 0.752604 0.160194
H2    H     H_    0.923690 0.649218 0.258164 0.130604
H3    H     H_    0.035242 0.498799 0.272979 0.139833
H4    H     H_    0.952164 0.315293 0.254642 0.188036
H5    H     H_    0.758223 0.280960 0.223264 0.202370
H6    H     H_    0.286326 0.626872 0.805071 0.147346
H7    H     H_    0.101449 0.670905 0.774517 0.171240
H8    H     H_    0.965193 0.530351 0.727512 0.143730
H9    H     H_    0.015008 0.345615 0.708723 0.138057
H10   H     H_    0.199441 0.299893 0.738985 0.134599
H11   H     H_    0.252864 0.238565 0.134821 0.151648
H12   H     H_    0.354803 0.515284 0.240473 0.163415
H13   H     H_    0.061516 0.233678 0.097599 0.135084
H14   H     H_    0.991805 0.395148 0.049690 0.138197
H15   H     H_    0.115896 0.561318 0.033909 0.128490
H16   H     H_    0.308153 0.568047 0.070964 0.136947
H17   H     H_    0.638115 0.188852 0.850924 0.164960
H18   H     H_    0.825032 0.144773 0.875058 0.135916
H19   H     H_    0.966239 0.285668 0.913440 0.154837
H20   H     H_    0.918562 0.471741 0.930569 0.128341
H21   H     H_    0.730803 0.516916 0.909655 0.123900
H22   H     H_    0.243547 0.390299 0.324912 0.112234
H23   H     H_    0.222094 0.672979 0.571124 0.207253
H24   H     H_    0.311482 0.218349 0.271472 0.164805
H25   H     H_    0.273703 0.063852 0.367081 0.148726
H26   H     H_    0.174734 0.083196 0.518387 0.150962
H27   H     H_    0.117838 0.257277 0.575546 0.099241
H28   H     H_    0.880118 0.741939 0.426314 0.101133
H29   H     H_    0.825654 0.916448 0.485141 0.149600
H30   H     H_    0.731653 0.935880 0.637939 0.139518
H31   H     H_    0.696006 0.780969 0.733520 0.141867
H32   H     H_    0.756996 0.607854 0.677320 0.094377
H33   H     H_    0.777114 0.325388 0.432242 0.203557
H34   H     H_    0.347587 0.193204 0.629745 0.173654
H35   H     H_    0.654131 0.807477 0.371753 0.169538
H36   H     H_    0.652044 0.995472 0.346291 0.214209
H37   H     H_    0.349712 0.005211 0.655378 0.222330
H38   H     H_    0.730775 0.616886 0.223038 0.117902
N1    N     N_R   0.206400 0.519440 0.514690 -0.154130
N2    N     N_R   0.793600 0.480560 0.485310 -0.152563
O1    O     O_R   0.421320 0.658850 0.503920 -0.589866
O2    O     O_R   0.578680 0.341150 0.496080 -0.591051
O3    O     O_R   0.609840 0.646370 0.494500 -0.629187
O4    O     O_R   0.390160 0.353630 0.505500 -0.629968
O5    O     O_R   0.394600 0.506990 0.621070 -0.584479
O6    O     O_R   0.605400 0.493010 0.378930 -0.584227
O7    O     O_R   0.583120 0.494520 0.611640 -0.614662
O8    O     O_R   0.416880 0.505480 0.388360 -0.612350
Zn1   Zn    Zn3+2 0.374120 0.508330 0.506290 0.949135
Zn2   Zn    Zn3+2 0.625880 0.491670 0.493710 0.948425

loop_
_geom_bond_atom_site_label_1
_geom_bond_atom_site_label_2
_ccdc_geom_bond_type
C19   H12   S    
C66   C68   A    
C22   C29   S    
C9    C64   S    
C69   H31   S    
C56   H37   S    
C35   C36   A    
O8    Zn1   S    
C29   F4    S    
C53   C54   A    
C12   C23   S    
C26   F6    S    
C14   O5    A    
C48   H14   S    
C25   F5    S    
C40   H7    S    
C37   H5    S    
C36   C37   A    
C10   C58   S    
C24   C26   A    
C20   C51   S    
C38   C39   A    
O6    Zn2   S    
C27   C38   S    
C52   H17   S    
C18   H1    S    
C18   C20   A    
C41   C42   A    
C67   H35   S    
C10   N1    A    
C33   C35   A    
C46   C47   A    
C31   C32   A    
C68   C69   A    
C15   O6    A    
C55   H20   S    
C45   C67   A    
C51   C57   A    
C64   C70   A    
C29   C30   D    
C61   H25   S    
C33   H2    S    
C65   H28   S    
C5    C13   A    
C16   C27   A    
C59   C60   A    
C17   C28   A    
C61   C62   A    
C44   C46   A    
C1    C34   S    
C6    F2    S    
C1    O1    A    
C4    C45   A    
C43   H10   S    
C2    F7    S    
C51   C52   A    
C23   C71   A    
O1    Zn1   S    
C6    C11   A    
C5    C7    A    
C35   H3    S    
C17   C19   A    
C6    C8    A    
C46   H11   S    
C58   C59   A    
C22   C25   A    
C14   O7    A    
C31   C37   A    
C71   H34   S    
C60   C61   A    
C2    C4    A    
C1    O3    A    
C62   C63   A    
C21   C44   S    
C3    C56   A    
C47   C48   A    
C12   O4    A    
C56   C71   A    
C47   H13   S    
C68   H30   S    
C49   H15   S    
C9    C11   A    
C70   H32   S    
C48   C49   A    
C20   C22   A    
C49   C50   A    
C15   O8    A    
C55   C57   A    
O3    Zn2   S    
N2    Zn2   S    
C54   H19   S    
C42   C43   A    
C63   H27   S    
C3    C4    A    
C34   C72   A    
C39   C40   A    
C52   C53   A    
C44   C50   A    
C58   C63   A    
C15   C17   S    
C41   H8    S    
C54   C55   A    
C40   C41   A    
C19   C21   A    
C59   H22   S    
C7    N2    A    
C28   C31   S    
C32   H38   S    
C10   C13   A    
C34   C67   A    
C62   H26   S    
C53   H18   S    
C25   C27   A    
C57   H21   S    
C26   C28   A    
C42   H9    S    
C64   C65   A    
C7    H33   S    
C3    C72   A    
O7    Zn2   S    
C38   C43   A    
C72   F8    S    
C32   C33   A    
C30   F3    S    
C11   C13   A    
C45   H36   S    
C50   H16   S    
C36   H4    S    
N1    Zn1   S    
O4    Zn1   S    
C14   C16   S    
C66   H29   S    
C5    F1    S    
C69   C70   A    
C8    H23   S    
C24   C30   S    
O5    Zn1   S    
C12   O2    A    
C16   C18   A    
C65   C66   A    
C21   C24   A    
C2    C23   A    
C9    N2    A    
C39   H6    S    
C60   H24   S    
O2    Zn2   S    
C8    N1    A    
