data_mof_unit_61465.cif
_audit_creation_date              2012-12-10T17:15:54-0500
_audit_creation_method            fapswitch 2.2
_symmetry_space_group_name_H-M    P1
_symmetry_Int_Tables_number       1
_space_group_crystal_system       orthorhombic
_cell_length_a                    23.680355
_cell_length_b                    23.680357
_cell_length_c                    47.093041
_cell_angle_alpha                 90.0
_cell_angle_beta                  90.0
_cell_angle_gamma                 90.0
_cell_volume                      26407.8588358

loop_
_atom_site_label
_atom_site_type_symbol
_atom_type_description
_atom_site_fract_x
_atom_site_fract_y
_atom_site_fract_z
_atom_type_partial_charge
C1    C     C_R   1.000000 0.391528 0.500000 0.820428
C2    C     C_R   0.608472 0.000000 0.500000 0.820428
C3    C     C_R   1.000000 0.608472 0.500000 0.820427
C4    C     C_R   0.391528 1.000000 0.500000 0.820428
C5    C     C_R   0.500000 0.891528 1.000000 0.820428
C6    C     C_R   0.108472 0.500000 0.000000 0.820428
C7    C     C_R   0.500000 0.108472 1.000000 0.820427
C8    C     C_R   0.891528 0.500000 0.000000 0.820428
C9    C     C_R   1.000000 0.500000 0.354385 0.323246
C10   C     C_R   0.500000 1.000000 0.354378 0.323304
C11   C     C_R   1.000000 0.500000 0.645621 0.323303
C12   C     C_R   0.500000 1.000000 0.645615 0.323245
C13   C     C_R   0.500000 0.000000 0.854379 0.323303
C14   C     C_R   1.000000 0.500000 0.854385 0.323246
C15   C     C_R   0.500000 0.000000 0.145615 0.323246
C16   C     C_R   1.000000 0.500000 0.145621 0.323304
C17   C     C_1   1.000000 0.330417 0.500000 -0.144639
C18   C     C_1   0.669583 0.000000 0.500000 -0.144638
C19   C     C_1   1.000000 0.669583 0.500000 -0.144639
C20   C     C_1   0.330417 1.000000 0.500000 -0.144638
C21   C     C_1   0.500000 0.830417 1.000000 -0.144639
C22   C     C_1   0.169583 0.500000 0.000000 -0.144638
C23   C     C_1   0.500000 0.169583 1.000000 -0.144639
C24   C     C_1   0.830417 0.500000 0.000000 -0.144638
C25   C     C_1   1.000000 0.279200 0.500000 0.028311
C26   C     C_1   0.720800 0.000000 0.500000 0.028311
C27   C     C_1   1.000000 0.720800 0.500000 0.028311
C28   C     C_1   0.279200 1.000000 0.500000 0.028311
C29   C     C_1   0.500000 0.779200 1.000000 0.028311
C30   C     C_1   0.220800 0.500000 0.000000 0.028311
C31   C     C_1   0.500000 0.220800 1.000000 0.028311
C32   C     C_1   0.779200 0.500000 0.000000 0.028311
C33   C     C_1   1.000000 0.219078 0.500000 0.025389
C34   C     C_1   0.780922 0.000000 0.500000 0.025389
C35   C     C_1   0.000000 0.780922 0.500000 0.025389
C36   C     C_1   0.219078 1.000000 0.500000 0.025389
C37   C     C_1   0.500000 0.719078 1.000000 0.025389
C38   C     C_1   0.280922 0.500000 0.000000 0.025389
C39   C     C_1   0.500000 0.280922 1.000000 0.025389
C40   C     C_1   0.719078 0.500000 0.000000 0.025389
C41   C     C_1   1.000000 0.167859 0.500000 -0.153746
C42   C     C_1   0.832141 0.000000 0.500000 -0.153745
C43   C     C_1   0.000000 0.832141 0.500000 -0.153745
C44   C     C_1   0.167859 1.000000 0.500000 -0.153746
C45   C     C_1   0.500000 0.667859 1.000000 -0.153746
C46   C     C_1   0.332141 0.500000 0.000000 -0.153745
C47   C     C_1   0.500000 0.332141 1.000000 -0.153745
C48   C     C_1   0.667859 0.500000 0.000000 -0.153746
C49   C     C_R   0.106738 1.000000 0.500000 0.799213
C50   C     C_R   1.000000 0.106738 0.500000 0.799213
C51   C     C_R   0.893262 0.000000 0.500000 0.799213
C52   C     C_R   0.000000 0.893262 0.500000 0.799213
C53   C     C_R   0.606738 0.500000 0.000000 0.799213
C54   C     C_R   0.500000 0.606738 1.000000 0.799213
C55   C     C_R   0.393262 0.500000 0.000000 0.799213
C56   C     C_R   0.500000 0.393262 1.000000 0.799213
C57   C     C_R   1.000000 0.500000 0.445368 0.794062
C58   C     C_R   0.500000 1.000000 0.445368 0.795053
C59   C     C_R   1.000000 0.500000 0.554632 0.795053
C60   C     C_R   0.500000 0.000000 0.554632 0.794062
C61   C     C_R   0.500000 1.000000 0.945368 0.795053
C62   C     C_R   1.000000 0.500000 0.945368 0.794062
C63   C     C_R   0.500000 1.000000 0.054632 0.794061
C64   C     C_R   0.000000 0.500000 0.054631 0.795053
C65   C     C_R   0.046437 0.480223 0.190299 0.542283
C66   C     C_R   0.546468 0.019703 0.190279 0.542221
C67   C     C_R   0.953563 0.519777 0.190299 0.542283
C68   C     C_R   0.453532 0.980296 0.190279 0.542222
C69   C     C_R   0.019702 0.546468 0.809721 0.542222
C70   C     C_R   0.519775 0.953563 0.809701 0.542283
C71   C     C_R   0.980298 0.453531 0.809721 0.542221
C72   C     C_R   0.480224 0.046437 0.809701 0.542283
C73   C     C_R   0.519702 0.953531 0.690279 0.542223
C74   C     C_R   0.019776 0.546437 0.690299 0.542282
C75   C     C_R   0.480298 0.046469 0.690279 0.542222
C76   C     C_R   0.980224 0.453563 0.690299 0.542282
C77   C     C_R   0.546437 0.019777 0.309701 0.542284
C78   C     C_R   0.046468 0.480296 0.309721 0.542222
C79   C     C_R   0.453563 0.980222 0.309701 0.542283
C80   C     C_R   0.953532 0.519703 0.309721 0.542222
C81   C     C_R   0.952545 0.520063 0.220080 -0.018510
C82   C     C_R   0.452529 0.979968 0.220060 -0.018890
C83   C     C_R   0.047455 0.479936 0.220080 -0.018510
C84   C     C_R   0.547471 0.020032 0.220060 -0.018890
C85   C     C_R   0.979969 0.452529 0.779940 -0.018890
C86   C     C_R   0.479938 0.047456 0.779920 -0.018510
C87   C     C_R   0.020030 0.547471 0.779940 -0.018890
C88   C     C_R   0.520061 0.952544 0.779920 -0.018510
C89   C     C_R   0.479970 0.047471 0.720060 -0.018890
C90   C     C_R   0.979938 0.452544 0.720080 -0.018510
C91   C     C_R   0.520030 0.952529 0.720060 -0.018891
C92   C     C_R   0.020062 0.547456 0.720080 -0.018510
C93   C     C_R   0.452545 0.979936 0.279920 -0.018511
C94   C     C_R   0.952529 0.520032 0.279940 -0.018890
C95   C     C_R   0.547455 0.020064 0.279920 -0.018510
C96   C     C_R   0.047471 0.479968 0.279940 -0.018890
C97   C     C_R   1.000000 0.500000 0.235027 -0.016051
C98   C     C_R   0.500000 1.000000 0.235007 -0.015986
C99   C     C_R   1.000000 0.500000 0.764993 -0.015985
C100  C     C_R   0.500000 0.000000 0.764973 -0.016051
C101  C     C_R   0.500000 1.000000 0.735007 -0.015985
C102  C     C_R   1.000000 0.500000 0.735027 -0.016051
C103  C     C_R   0.500000 0.000000 0.264973 -0.016050
C104  C     C_R   1.000000 0.500000 0.264993 -0.015986
C105  C     C_R   0.905442 0.539991 0.235198 -0.154488
C106  C     C_R   0.405430 0.960033 0.235178 -0.154471
C107  C     C_R   0.094558 0.460009 0.235198 -0.154489
C108  C     C_R   0.594570 0.039966 0.235178 -0.154471
C109  C     C_R   0.960037 0.405429 0.764822 -0.154472
C110  C     C_R   0.460013 0.094560 0.764802 -0.154489
C111  C     C_R   0.039963 0.594571 0.764822 -0.154472
C112  C     C_R   0.539987 0.905440 0.764802 -0.154489
C113  C     C_R   0.460037 0.094571 0.735178 -0.154472
C114  C     C_R   0.960012 0.405440 0.735198 -0.154488
C115  C     C_R   0.539962 0.905429 0.735178 -0.154471
C116  C     C_R   0.039987 0.594560 0.735198 -0.154488
C117  C     C_R   0.405442 0.960009 0.264802 -0.154489
C118  C     C_R   0.905430 0.539966 0.264822 -0.154471
C119  C     C_R   0.594558 0.039991 0.264802 -0.154489
C120  C     C_R   0.094570 0.460034 0.264822 -0.154471
C121  C     C_R   0.964145 0.463557 0.369218 -0.130626
C122  C     C_R   0.536451 0.964154 0.369219 -0.130800
C123  C     C_R   0.035854 0.536443 0.369218 -0.130626
C124  C     C_R   0.463548 0.035846 0.369219 -0.130800
C125  C     C_R   0.964153 0.536451 0.630781 -0.130800
C126  C     C_R   0.536444 0.035854 0.630782 -0.130626
C127  C     C_R   0.035847 0.463549 0.630781 -0.130800
C128  C     C_R   0.463556 0.964146 0.630782 -0.130626
C129  C     C_R   0.464153 0.963549 0.869219 -0.130800
C130  C     C_R   0.036444 0.464146 0.869218 -0.130625
C131  C     C_R   0.535847 0.036451 0.869219 -0.130800
C132  C     C_R   0.963556 0.535854 0.869218 -0.130626
C133  C     C_R   0.464145 0.036443 0.130782 -0.130626
C134  C     C_R   0.036451 0.535846 0.130781 -0.130800
C135  C     C_R   0.535854 0.963557 0.130782 -0.130626
C136  C     C_R   0.963549 0.464154 0.130781 -0.130800
C137  C     C_R   0.963837 0.463213 0.398873 -0.073190
C138  C     C_R   0.536808 0.963861 0.398873 -0.074105
C139  C     C_R   0.036163 0.536787 0.398873 -0.073191
C140  C     C_R   0.463192 0.036139 0.398873 -0.074105
C141  C     C_R   0.963861 0.536807 0.601126 -0.074105
C142  C     C_R   0.536787 0.036162 0.601127 -0.073191
C143  C     C_R   0.036139 0.463193 0.601126 -0.074105
C144  C     C_R   0.463213 0.963838 0.601127 -0.073191
C145  C     C_R   0.463861 0.963193 0.898873 -0.074105
C146  C     C_R   0.036787 0.463838 0.898873 -0.073191
C147  C     C_R   0.536139 0.036807 0.898873 -0.074106
C148  C     C_R   0.963212 0.536162 0.898873 -0.073191
C149  C     C_R   0.463837 0.036787 0.101127 -0.073191
C150  C     C_R   0.036808 0.536139 0.101126 -0.074105
C151  C     C_R   0.536163 0.963213 0.101127 -0.073190
C152  C     C_R   0.963192 0.463861 0.101126 -0.074105
C153  C     C_R   1.000000 0.500000 0.414056 -0.122249
C154  C     C_R   0.500000 0.000000 0.414056 -0.122009
C155  C     C_R   1.000000 0.500000 0.585944 -0.122010
C156  C     C_R   0.500000 0.000000 0.585944 -0.122249
C157  C     C_R   0.500000 1.000000 0.914056 -0.122010
C158  C     C_R   1.000000 0.500000 0.914056 -0.122248
C159  C     C_R   0.500000 0.000000 0.085944 -0.122249
C160  C     C_R   1.000000 0.500000 0.085944 -0.122009
Cu1   Cu    Cu3+1 0.944110 0.500000 0.500000 1.023699
Cu2   Cu    Cu3+1 0.500000 0.944110 0.500000 1.023699
Cu3   Cu    Cu3+1 0.055890 0.500000 0.500000 1.023699
Cu4   Cu    Cu3+1 0.500000 0.055890 0.500000 1.023698
Cu5   Cu    Cu3+1 0.444110 0.000000 0.000000 1.023699
Cu6   Cu    Cu3+1 0.000000 0.444110 0.000000 1.023699
Cu7   Cu    Cu3+1 0.555890 0.000000 0.000000 1.023699
Cu8   Cu    Cu3+1 1.000000 0.555890 0.000000 1.023699
Cu9   Cu    Cu3+1 0.000000 1.000000 0.471960 1.004010
Cu10  Cu    Cu3+1 0.000000 0.000000 0.528040 1.004010
Cu11  Cu    Cu3+1 0.500000 0.500000 0.971960 1.004010
Cu12  Cu    Cu3+1 0.500000 0.500000 0.028040 1.004010
H1    H     H_    0.868445 0.555653 0.224206 0.192258
H2    H     H_    0.368426 0.944390 0.224186 0.192402
H3    H     H_    0.131555 0.444347 0.224206 0.192258
H4    H     H_    0.631574 0.055610 0.224186 0.192402
H5    H     H_    0.944395 0.368424 0.775814 0.192402
H6    H     H_    0.444353 0.131557 0.775794 0.192259
H7    H     H_    0.055605 0.631576 0.775814 0.192402
H8    H     H_    0.555647 0.868443 0.775794 0.192259
H9    H     H_    0.444396 0.131576 0.724185 0.192402
H10   H     H_    0.944352 0.368443 0.724206 0.192258
H11   H     H_    0.555604 0.868424 0.724185 0.192402
H12   H     H_    0.055648 0.631557 0.724206 0.192258
H13   H     H_    0.368445 0.944347 0.275794 0.192258
H14   H     H_    0.868426 0.555610 0.275814 0.192402
H15   H     H_    0.631555 0.055653 0.275794 0.192258
H16   H     H_    0.131574 0.444390 0.275814 0.192402
H17   H     H_    0.936839 0.435139 0.357496 0.151139
H18   H     H_    0.564640 0.936600 0.357504 0.152086
H19   H     H_    0.063161 0.564860 0.357496 0.151140
H20   H     H_    0.435359 0.063400 0.357504 0.152086
H21   H     H_    0.936599 0.564639 0.642496 0.152086
H22   H     H_    0.564862 0.063159 0.642504 0.151140
H23   H     H_    0.063401 0.435361 0.642496 0.152086
H24   H     H_    0.435138 0.936840 0.642504 0.151140
H25   H     H_    0.436599 0.935361 0.857504 0.152087
H26   H     H_    0.064862 0.436840 0.857496 0.151140
H27   H     H_    0.563401 0.064639 0.857504 0.152087
H28   H     H_    0.935138 0.563159 0.857496 0.151140
H29   H     H_    0.436839 0.064861 0.142504 0.151139
H30   H     H_    0.064640 0.563400 0.142496 0.152086
H31   H     H_    0.563161 0.935139 0.142504 0.151139
H32   H     H_    0.935360 0.436600 0.142496 0.152086
N1    N     N_R   1.000000 0.500000 0.176080 -0.463077
N2    N     N_R   0.500000 0.000000 0.176066 -0.463535
N3    N     N_R   1.000000 0.500000 0.823934 -0.463534
N4    N     N_R   0.500000 0.000000 0.823920 -0.463076
N5    N     N_R   0.500000 0.000000 0.676066 -0.463534
N6    N     N_R   1.000000 0.500000 0.676080 -0.463076
N7    N     N_R   0.500000 0.000000 0.323920 -0.463077
N8    N     N_R   1.000000 0.500000 0.323934 -0.463534
O1    O     O_R   0.952780 0.418580 0.499940 -0.569050
O2    O     O_R   0.581420 0.952780 0.499940 -0.569119
O3    O     O_R   0.047220 0.581420 0.499940 -0.569051
O4    O     O_R   0.418580 0.047220 0.499940 -0.569120
O5    O     O_R   0.952780 0.581420 0.500060 -0.569119
O6    O     O_R   0.581420 0.047220 0.500060 -0.569051
O7    O     O_R   0.047220 0.418580 0.500060 -0.569120
O8    O     O_R   0.418580 0.952780 0.500060 -0.569050
O9    O     O_R   0.452780 0.918580 0.999940 -0.569119
O10   O     O_R   0.081420 0.452780 0.999940 -0.569050
O11   O     O_R   0.547220 0.081420 0.999940 -0.569120
O12   O     O_R   0.918580 0.547220 0.999940 -0.569051
O13   O     O_R   0.452780 0.081420 0.000060 -0.569050
O14   O     O_R   0.081420 0.547220 0.000060 -0.569120
O15   O     O_R   0.547220 0.918580 0.000060 -0.569051
O16   O     O_R   0.918580 0.452780 0.000060 -0.569119
O17   O     O_R   0.952780 0.500010 0.458880 -0.572786
O18   O     O_R   0.499990 0.952780 0.458880 -0.573620
O19   O     O_R   0.047220 0.499990 0.458880 -0.572786
O20   O     O_R   0.500010 0.047220 0.458880 -0.573620
O21   O     O_R   0.952780 0.499990 0.541120 -0.573620
O22   O     O_R   0.499990 0.047220 0.541120 -0.572786
O23   O     O_R   0.047220 0.500010 0.541120 -0.573620
O24   O     O_R   0.500010 0.952780 0.541120 -0.572786
O25   O     O_R   0.452780 0.000010 0.958880 -0.573620
O26   O     O_R   0.999990 0.452780 0.958880 -0.572786
O27   O     O_R   0.547220 0.999990 0.958880 -0.573620
O28   O     O_R   0.000010 0.547220 0.958880 -0.572786
O29   O     O_R   0.452780 0.999990 0.041120 -0.572786
O30   O     O_R   0.999990 0.547220 0.041120 -0.573620
O31   O     O_R   0.547220 0.000010 0.041120 -0.572786
O32   O     O_R   0.000010 0.452780 0.041120 -0.573620
O33   O     O_2   0.091263 0.460508 0.175641 -0.529600
O34   O     O_2   0.591340 0.039291 0.175614 -0.528056
O35   O     O_2   0.908737 0.539492 0.175641 -0.529600
O36   O     O_2   0.408660 0.960708 0.175614 -0.528056
O37   O     O_2   0.039288 0.591342 0.824386 -0.528057
O38   O     O_2   0.539488 0.908735 0.824359 -0.529600
O39   O     O_2   0.960712 0.408658 0.824386 -0.528057
O40   O     O_2   0.460511 0.091265 0.824359 -0.529600
O41   O     O_2   0.539288 0.908658 0.675614 -0.528057
O42   O     O_2   0.039489 0.591264 0.675641 -0.529600
O43   O     O_2   0.460712 0.091342 0.675614 -0.528057
O44   O     O_2   0.960511 0.408735 0.675641 -0.529600
O45   O     O_2   0.591263 0.039492 0.324359 -0.529600
O46   O     O_2   0.091340 0.460709 0.324386 -0.528057
O47   O     O_2   0.408737 0.960508 0.324359 -0.529600
O48   O     O_2   0.908660 0.539291 0.324386 -0.528057
O49   O     O_R   0.080090 0.000000 0.475550 -0.567599
O50   O     O_R   1.000000 0.080090 0.475550 -0.567914
O51   O     O_R   0.919910 0.000000 0.475550 -0.567600
O52   O     O_R   1.000000 0.919910 0.475550 -0.567914
O53   O     O_R   0.080090 0.000000 0.524450 -0.567914
O54   O     O_R   1.000000 0.919910 0.524450 -0.567600
O55   O     O_R   0.919910 0.000000 0.524450 -0.567914
O56   O     O_R   1.000000 0.080090 0.524450 -0.567599
O57   O     O_R   0.580090 0.500000 0.975550 -0.567914
O58   O     O_R   0.500000 0.580090 0.975550 -0.567599
O59   O     O_R   0.419910 0.500000 0.975550 -0.567914
O60   O     O_R   0.500000 0.419910 0.975550 -0.567600
O61   O     O_R   0.580090 0.500000 0.024450 -0.567599
O62   O     O_R   0.500000 0.419910 0.024450 -0.567914
O63   O     O_R   0.419910 0.500000 0.024450 -0.567600
O64   O     O_R   0.500000 0.580090 0.024450 -0.567914
C161  C     C_1   0.927468 0.423295 0.413163 0.275565
N9    N     N_1   0.898375 0.391292 0.424608 -0.254431
C162  C     C_1   0.576710 0.927476 0.413164 0.276575
N10   N     N_1   0.608701 0.898370 0.424609 -0.254312
C163  C     C_1   0.072531 0.576705 0.413163 0.275565
N11   N     N_1   0.101625 0.608708 0.424608 -0.254431
C164  C     C_1   0.423290 0.072524 0.413164 0.276576
N12   N     N_1   0.391299 0.101630 0.424609 -0.254313
C165  C     C_1   0.927474 0.576709 0.586835 0.276577
N13   N     N_1   0.898368 0.608699 0.575391 -0.254312
C166  C     C_1   0.576706 0.072530 0.586836 0.275564
N14   N     N_1   0.608710 0.101623 0.575392 -0.254431
C167  C     C_1   0.072526 0.423291 0.586835 0.276577
N15   N     N_1   0.101632 0.391301 0.575391 -0.254312
C168  C     C_1   0.423293 0.927470 0.586836 0.275564
N16   N     N_1   0.391290 0.898377 0.575392 -0.254432
C169  C     C_1   0.427474 0.923291 0.913164 0.276577
N17   N     N_1   0.398368 0.891301 0.924609 -0.254312
C170  C     C_1   0.076706 0.427470 0.913163 0.275564
N18   N     N_1   0.108710 0.398378 0.924608 -0.254432
C171  C     C_1   0.572525 0.076709 0.913164 0.276577
N19   N     N_1   0.601632 0.108699 0.924609 -0.254312
C172  C     C_1   0.923293 0.572530 0.913163 0.275564
N20   N     N_1   0.891290 0.601622 0.924608 -0.254432
C173  C     C_1   0.427469 0.076705 0.086836 0.275565
N21   N     N_1   0.398375 0.108708 0.075392 -0.254431
C174  C     C_1   0.076710 0.572524 0.086835 0.276575
N22   N     N_1   0.108701 0.601630 0.075390 -0.254312
C175  C     C_1   0.572531 0.923295 0.086836 0.275565
N23   N     N_1   0.601625 0.891292 0.075392 -0.254431
C176  C     C_1   0.923290 0.427476 0.086835 0.276575
N24   N     N_1   0.891299 0.398370 0.075390 -0.254312

loop_
_geom_bond_atom_site_label_1
_geom_bond_atom_site_label_2
_ccdc_geom_bond_type
Cu1   O5    S    
C130  C146  A    
C168  N16   T    
C34   C42   T    
Cu12  O61   S    
C118  H14   S    
Cu5   O9    S    
C14   C132  A    
C173  N21   T    
C86   C110  A    
C10   C124  A    
C14   C130  A    
C12   C126  A    
C110  H6    S    
C3    O3    A    
C63   O29   A    
C30   C38   S    
C74   C92   A    
C143  C167  S    
Cu8   O30   S    
C78   C96   A    
C51   O55   A    
C46   C55   S    
C9    C121  A    
C3    C19   S    
C78   O46   S    
C129  C145  A    
C67   N1    A    
C92   C102  A    
C138  C154  A    
C71   N3    A    
C94   C104  A    
C111  H7    S    
C82   C98   A    
C120  H16   S    
C71   O39   S    
Cu1   Cu3   S    
Cu2   Cu4   S    
C144  C168  S    
C133  H29   S    
C89   C113  A    
C151  C175  S    
C139  C163  S    
C61   O27   A    
C135  H31   S    
C20   C28   T    
C27   C35   S    
C21   C29   T    
C23   C31   T    
C24   C32   T    
C127  H23   S    
C7    O11   A    
C72   C86   A    
C174  N22   T    
C125  H21   S    
C152  C176  S    
Cu9   O49   S    
C150  C174  S    
C137  C153  A    
C127  C143  A    
C128  C144  A    
C74   O42   S    
Cu1   O17   S    
C2    O2    A    
C149  C173  S    
C96   C104  A    
C56   O62   A    
C105  C118  A    
C36   C44   T    
Cu5   O29   S    
C37   C45   T    
C56   O60   A    
C78   N8    A    
C107  C120  A    
Cu12  O63   S    
C39   C47   T    
C66   O34   S    
C76   N6    A    
C40   C48   T    
C89   C101  A    
Cu10  O55   S    
Cu5   O25   S    
C59   O23   A    
C10   C122  A    
C12   C128  A    
Cu6   O26   S    
Cu4   O20   S    
C17   C25   T    
C79   O47   S    
C9    C123  A    
C90   C114  A    
C15   N2    S    
C58   O20   A    
C4    C20   S    
Cu1   O21   S    
C54   O64   A    
C2    O6    A    
C142  C156  A    
C129  H25   S    
C6    O10   A    
Cu3   O7    S    
C4    O4    A    
C63   C159  S    
C16   C134  A    
C93   C103  A    
C8    O16   A    
C72   N4    A    
C68   O36   S    
C137  C161  S    
C85   C99   A    
C73   N5    A    
C12   N5    S    
C75   O43   S    
Cu8   O14   S    
C135  C151  A    
C43   C52   S    
C65   N1    A    
C123  C139  A    
Cu9   O51   S    
C121  C137  A    
C90   C102  A    
C67   O35   S    
C113  H9    S    
C125  C141  A    
C131  C147  A    
C35   C43   T    
C142  C166  S    
C80   N8    A    
Cu7   O27   S    
Cu5   Cu7   S    
C77   O45   S    
C161  N9    T    
Cu10  O53   S    
Cu6   Cu8   S    
Cu11  O60   S    
C59   O21   A    
C93   C117  A    
C91   C101  A    
C141  C165  S    
C95   C103  A    
C48   C53   S    
C81   C105  A    
Cu4   O22   S    
C16   N1    S    
C148  C158  A    
C7    O13   A    
C51   O51   A    
C5    O15   A    
C151  C159  A    
C144  C156  A    
C11   C127  A    
C169  N17   T    
C58   O18   A    
C143  C155  A    
C99   C102  A    
Cu5   O13   S    
C167  N15   T    
C13   N4    S    
C5    C21   S    
C109  C114  A    
C67   C81   A    
Cu7   O31   S    
C68   N2    A    
C16   C136  A    
Cu2   O2    S    
C22   C30   T    
C8    O12   A    
Cu12  O62   S    
C146  C158  A    
C69   O37   S    
C1    C17   S    
C68   C82   A    
C87   C111  A    
C94   C118  A    
C7    C23   S    
C116  H12   S    
C100  C101  A    
C8    C24   S    
C82   C106  A    
C76   O44   S    
C119  H15   S    
C38   C46   T    
Cu3   O23   S    
C75   C89   A    
C164  N12   T    
C13   C129  A    
Cu11  O58   S    
C25   C33   S    
C47   C56   S    
Cu6   O32   S    
C5    O9    A    
C18   C26   T    
Cu6   O10   S    
Cu8   O28   S    
Cu4   O4    S    
C79   N7    A    
C150  C160  A    
C11   C125  A    
C85   C109  A    
C11   N6    S    
C64   O30   A    
C139  C153  A    
C9    N8    S    
C98   C103  A    
C6    C22   S    
C62   O28   A    
Cu9   Cu10  S    
C58   C154  S    
C136  C152  A    
Cu3   O3    S    
C147  C171  S    
C4    O8    A    
C162  N10   T    
C62   C158  S    
C111  C116  A    
C86   C100  A    
C70   O38   S    
C69   C87   A    
Cu2   O24   S    
C14   N3    S    
C108  C119  A    
Cu12  O64   S    
C122  H18   S    
C52   O52   A    
C50   O56   A    
C69   N3    A    
Cu10  O56   S    
C176  N24   T    
C60   O22   A    
C122  C138  A    
C170  N18   T    
C49   O49   A    
C141  C155  A    
C114  H10   S    
C57   C153  S    
C126  C142  A    
C172  N20   T    
C60   C156  S    
C165  N13   T    
C61   C157  S    
C57   O17   A    
C126  H22   S    
Cu7   O15   S    
C166  N14   T    
C64   C160  S    
C13   C131  A    
Cu7   O11   S    
Cu2   O18   S    
C73   O41   S    
C106  C117  A    
C1    O1    A    
C123  H19   S    
C41   C50   S    
C124  H20   S    
C50   O50   A    
Cu4   O6    S    
C65   O33   S    
C75   N5    A    
C124  C140  A    
C108  H4    S    
C115  H11   S    
C146  C170  S    
C64   O32   A    
C49   O53   A    
C55   O63   A    
C62   O26   A    
C33   C41   T    
C84   C98   A    
C117  H13   S    
C121  H17   S    
C107  H3    S    
C66   N2    A    
C6    O14   A    
Cu9   O50   S    
C84   C108  A    
C91   C115  A    
C97   C104  A    
C95   C119  A    
C88   C112  A    
C109  H5    S    
C10   N7    S    
C148  C172  S    
C28   C36   S    
Cu6   O16   S    
C175  N23   T    
C83   C97   A    
C29   C37   S    
Cu2   O8    S    
C76   C90   A    
C44   C49   S    
C52   O54   A    
Cu11  Cu12  S    
C152  C160  A    
C138  C162  S    
Cu10  O54   S    
C171  N19   T    
Cu11  O59   S    
C60   O24   A    
C132  H28   S    
C70   C88   A    
C74   N6    A    
C79   C93   A    
Cu3   O19   S    
C57   O19   A    
C65   C83   A    
C15   C135  A    
C70   N4    A    
C134  C150  A    
C145  C157  A    
C54   O58   A    
C71   C85   A    
C26   C34   S    
C83   C107  A    
C80   O48   S    
C19   C27   T    
C42   C51   S    
C53   O61   A    
Cu8   O12   S    
C134  H30   S    
C87   C99   A    
C106  H2    S    
C132  C148  A    
C133  C149  A    
C73   C91   A    
C59   C155  S    
C163  N11   T    
C77   C95   A    
Cu9   O52   S    
C131  H27   S    
C92   C116  A    
C3    O5    A    
C63   O31   A    
C1    O7    A    
C88   C100  A    
C72   O40   S    
C149  C159  A    
C110  C113  A    
C45   C54   S    
C53   O57   A    
Cu11  O57   S    
C140  C164  S    
C147  C157  A    
C136  H32   S    
Cu1   O1    S    
C96   C120  A    
C128  H24   S    
C2    C18   S    
C15   C133  A    
C112  H8    S    
C61   O25   A    
C145  C169  S    
C81   C97   A    
C31   C39   S    
C32   C40   S    
C77   N7    A    
C66   C84   A    
C55   O59   A    
C105  H1    S    
C130  H26   S    
C80   C94   A    
C112  C115  A    
C140  C154  A    
