data_mof_unit_10177.cif
_audit_creation_date              2012-12-10T17:18:21-0500
_audit_creation_method            fapswitch 2.2
_symmetry_space_group_name_H-M    P1
_symmetry_Int_Tables_number       1
_space_group_crystal_system       triclinic
_cell_length_a                    10.103887
_cell_length_b                    10.727991
_cell_length_c                    15.007455
_cell_angle_alpha                 90.100819
_cell_angle_beta                  81.244098
_cell_angle_gamma                 95.736891
_cell_volume                      1599.56368297

loop_
_atom_site_label
_atom_site_type_symbol
_atom_type_description
_atom_site_fract_x
_atom_site_fract_y
_atom_site_fract_z
_atom_type_partial_charge
C1    C     C_R   0.556749 0.733261 0.489848 0.834771
C2    C     C_2   0.072837 0.489764 0.492714 -0.130809
C3    C     C_R   0.500309 0.499763 0.673394 0.901152
C4    C     C_R   0.499677 0.500189 0.326604 0.880383
C5    C     C_R   0.377767 0.502563 0.197371 -0.259692
C6    C     C_R   0.622186 0.497269 0.802641 -0.254698
C7    C     C_R   0.499447 0.500667 0.230719 -0.075760
C8    C     C_R   0.500512 0.499188 0.769288 -0.082293
C9    C     C_R   0.621324 0.498830 0.172475 -0.265888
C10   C     C_R   0.378622 0.500952 0.827532 -0.263544
C11   C     C_R   0.622464 0.498528 0.080231 0.119904
C12   C     C_R   0.443262 0.266426 0.503350 0.794707
C13   C     C_R   0.377474 0.501213 0.919779 0.120431
C14   C     C_R   0.499858 0.500123 0.046371 0.060659
C15   C     C_R   0.500079 0.499616 0.953640 0.060221
C16   C     C_R   0.377039 0.502201 0.105231 0.120150
C17   C     C_R   0.622902 0.497565 0.894781 0.119947
C18   C     C_R   0.743993 0.496578 0.021501 -0.221946
C19   C     C_R   0.255944 0.503155 0.978510 -0.220722
C20   C     C_3   0.248985 0.073944 0.613839 0.103660
C21   C     C_3   0.112548 0.999811 0.641528 -0.809247
C22   C     C_3   0.804629 0.919046 0.401371 0.073079
C23   C     C_R   0.744204 0.496092 0.928901 -0.218495
C24   C     C_3   0.942909 0.979883 0.414217 -0.762977
C25   C     C_R   0.255736 0.503661 0.071111 -0.221089
C26   C     C_2   0.590571 0.866097 0.471243 0.266015
C27   C     C_2   0.410373 0.132404 0.493972 0.283131
C28   C     C_2   0.491671 0.932529 0.453913 -0.254613
C29   C     C_2   0.509112 0.067136 0.454634 -0.204215
C30   C     C_2   0.927242 0.510545 0.507069 -0.133837
H1    H     H_    0.283611 0.503599 0.242930 0.159546
H2    H     H_    0.392044 0.887588 0.448045 0.201027
H3    H     H_    0.109119 0.421507 0.443859 0.167679
H4    H     H_    0.891011 0.578997 0.555782 0.168376
H5    H     H_    0.119830 0.615429 0.582870 0.160592
H6    H     H_    0.880121 0.384387 0.417266 0.159955
H7    H     H_    0.243206 0.170522 0.640357 0.148024
H8    H     H_    0.325105 0.027702 0.645059 0.141615
H9    H     H_    0.114875 0.902606 0.616106 0.248178
H10   H     H_    0.087291 0.996353 0.716187 0.205703
H11   H     H_    0.033604 0.045262 0.613363 0.265876
H12   H     H_    0.716351 0.496278 0.757085 0.160723
H13   H     H_    0.768957 0.971385 0.347038 0.132633
H14   H     H_    0.815280 0.820700 0.379769 0.154607
H15   H     H_    0.983006 0.927116 0.466065 0.265712
H16   H     H_    0.013225 0.979328 0.349724 0.203988
H17   H     H_    0.936092 0.078328 0.436082 0.252797
H18   H     H_    0.715492 0.497940 0.198726 0.160282
H19   H     H_    0.284456 0.501843 0.801278 0.161454
H20   H     H_    0.838517 0.495389 0.047165 0.141073
H21   H     H_    0.161420 0.504346 0.952846 0.141591
H22   H     H_    0.838865 0.494582 0.884068 0.142216
H23   H     H_    0.161078 0.505188 0.115944 0.140956
H24   H     H_    0.609806 0.112117 0.431789 0.182555
N1    N     N_2   0.842700 0.448880 0.462930 -0.194424
N2    N     N_2   0.157300 0.551120 0.537070 -0.194481
O1    O     O_R   0.431060 0.692470 0.507460 -0.628419
O2    O     O_3   0.715757 0.923187 0.483333 -0.597102
O3    O     O_R   0.568940 0.307530 0.492540 -0.625562
O4    O     O_R   0.651120 0.659650 0.483670 -0.598454
O5    O     O_R   0.348880 0.340350 0.516330 -0.588184
O6    O     O_R   0.389960 0.516440 0.644050 -0.618290
O7    O     O_R   0.610040 0.483560 0.355950 -0.625818
O8    O     O_R   0.610030 0.483620 0.620260 -0.612093
O9    O     O_R   0.389970 0.516380 0.379740 -0.620708
O10   O     O_3   0.280422 0.075722 0.518911 -0.604372
Zn1   Zn    Zn3+2 0.353060 0.521920 0.515880 0.942503
Zn2   Zn    Zn3+2 0.646940 0.478080 0.484120 0.939854

loop_
_geom_bond_atom_site_label_1
_geom_bond_atom_site_label_2
_ccdc_geom_bond_type
C22   O2    S    
C5    C7    A    
C11   C18   A    
C20   H7    S    
C1    O1    A    
O3    Zn2   S    
C27   C29   D    
N2    Zn1   S    
C20   H8    S    
C30   N1    D    
O5    Zn1   S    
C26   C28   D    
C22   H13   S    
C21   H9    S    
C2    C30   S    
C24   H16   S    
C24   H17   S    
C13   C15   A    
N1    Zn2   S    
H6    N1    S    
C2    N2    D    
C3    O8    A    
C12   O5    A    
C9    C11   A    
C4    O7    A    
C18   H20   S    
C23   H22   S    
C17   C23   A    
C21   H10   S    
O6    Zn1   S    
O1    Zn1   S    
C4    C7    S    
C21   H11   S    
C24   H15   S    
O8    Zn2   S    
C2    H3    S    
C20   O10   S    
C28   C29   S    
C4    O9    A    
C25   H23   S    
C22   C24   S    
C12   O3    A    
C27   O10   S    
C1    C26   S    
C19   C25   A    
C11   C14   A    
C14   C16   A    
C1    O4    A    
C29   H24   S    
C30   H4    S    
C12   C27   S    
C18   C23   A    
C19   H21   S    
C28   H2    S    
C20   C21   S    
O4    Zn2   S    
C9    H18   S    
C7    C9    A    
C3    C8    S    
C6    H12   S    
C3    O6    A    
C16   C25   A    
C15   C17   A    
C6    C17   A    
C13   C19   A    
O7    Zn2   S    
C5    C16   A    
C6    C8    A    
C5    H1    S    
H5    N2    S    
C14   C15   A    
C10   H19   S    
C26   O2    S    
C8    C10   A    
C22   H14   S    
O9    Zn1   S    
C10   C13   A    
