data_mof_unit_63227.cif
_audit_creation_date              2012-12-10T19:01:16-0500
_audit_creation_method            fapswitch 2.2
_symmetry_space_group_name_H-M    P1
_symmetry_Int_Tables_number       1
_space_group_crystal_system       triclinic
_cell_length_a                    15.861391
_cell_length_b                    14.258665
_cell_length_c                    13.381257
_cell_angle_alpha                 89.99639
_cell_angle_beta                  90.069931
_cell_angle_gamma                 89.976925
_cell_volume                      3026.3328285

loop_
_atom_site_label
_atom_site_type_symbol
_atom_type_description
_atom_site_fract_x
_atom_site_fract_y
_atom_site_fract_z
_atom_type_partial_charge
Br1   Br    Br    0.890455 0.320412 0.578542 -0.362599
Br2   Br    Br    0.907860 0.377755 0.336120 -0.309345
Br3   Br    Br    0.087954 0.308942 0.519626 -0.317606
Br4   Br    Br    0.107445 0.419044 0.300977 -0.352655
C1    C     C_R   0.500005 0.326567 0.500003 0.940279
C2    C     C_1   0.499998 0.499979 0.950478 -0.030953
C3    C     C_R   0.336006 0.498441 0.499925 0.941620
C4    C     C_R   0.663986 0.498107 0.500073 0.943507
C5    C     C_R   0.500061 0.673448 0.499997 0.917620
C6    C     C_3   0.048225 0.432777 0.564078 0.128629
C7    C     C_3   0.047427 0.506587 0.389580 0.105907
C8    C     C_3   0.951466 0.440845 0.574968 0.108752
C9    C     C_3   0.950036 0.495952 0.392735 0.115811
C10   C     C_1   0.751860 0.504738 0.500307 -0.160912
C11   C     C_1   0.248062 0.504422 0.499658 -0.159110
C12   C     C_1   0.500116 0.141345 0.500008 0.022429
C13   C     C_3   0.082513 0.516085 0.499074 -0.095793
C14   C     C_3   0.917407 0.516850 0.501305 -0.113873
C15   C     C_3   0.949697 0.618785 0.537275 0.311491
C16   C     C_3   0.052838 0.616304 0.541108 0.257338
C17   C     C_1   0.826375 0.511189 0.500647 0.076214
C18   C     C_1   0.173533 0.510079 0.499179 0.047316
C19   C     C_1   0.500063 0.225914 0.500008 -0.188058
C20   C     C_3   0.074997 0.587711 0.734634 -0.779982
C21   C     C_3   0.084206 0.787860 0.503464 -0.729610
C22   C     C_3   0.922108 0.735704 0.676801 -0.682914
C23   C     C_1   0.500166 0.042284 0.500004 0.031617
C24   C     C_3   0.831982 0.714793 0.454343 -0.787217
C25   C     C_1   0.500186 0.957721 0.500000 0.024736
C26   C     C_1   0.500173 0.858662 0.499995 0.001941
C27   C     C_1   0.500129 0.774096 0.499993 -0.218397
C28   C     C_1   0.499999 0.499978 0.169448 0.102671
C29   C     C_1   0.499999 0.499979 0.830552 0.089027
C30   C     C_1   0.499998 0.499979 0.049522 -0.028395
H1    H     H_    0.060010 0.572642 0.348513 0.099951
H2    H     H_    0.104565 0.832085 0.439595 0.245559
H3    H     H_    0.127757 0.801556 0.566746 0.233468
H4    H     H_    0.019872 0.810500 0.523653 0.274411
H5    H     H_    0.857018 0.611913 0.653159 0.217255
H6    H     H_    0.988429 0.758793 0.681337 0.267756
H7    H     H_    0.896722 0.736726 0.754091 0.223926
H8    H     H_    0.885635 0.786849 0.631843 0.245778
H9    H     H_    0.950738 0.691616 0.396434 0.235188
H10   H     H_    0.802469 0.672692 0.393909 0.235211
H11   H     H_    0.827170 0.789836 0.433102 0.255295
H12   H     H_    0.076058 0.434864 0.639458 0.125082
H13   H     H_    0.796193 0.704539 0.524533 0.245111
H14   H     H_    0.922418 0.548163 0.340463 0.103577
H15   H     H_    0.937391 0.464937 0.651530 0.097637
H16   H     H_    0.153269 0.655945 0.636832 0.236479
H17   H     H_    0.124757 0.534749 0.749592 0.232281
H18   H     H_    0.012477 0.555431 0.739514 0.253856
H19   H     H_    0.078901 0.640239 0.795660 0.254350
H20   H     H_    0.144485 0.674881 0.441436 0.224637
N1    N     N_1   0.500000 0.499980 0.261870 -0.058895
N2    N     N_1   0.500000 0.499980 0.738130 -0.061593
N3    N     N_2   0.091103 0.634780 0.640397 -0.286109
N4    N     N_2   0.087080 0.689720 0.473848 -0.346279
N5    N     N_2   0.914628 0.641337 0.636457 -0.296219
N6    N     N_2   0.920424 0.689909 0.464456 -0.287681
O1    O     O_R   0.500000 0.373720 0.576470 -0.594944
O2    O     O_R   0.500000 0.373720 0.423530 -0.591492
O3    O     O_R   0.377150 0.500010 0.576490 -0.614838
O4    O     O_R   0.377150 0.500010 0.423510 -0.595518
O5    O     O_R   0.622850 0.500010 0.576490 -0.609995
O6    O     O_R   0.622850 0.500010 0.423510 -0.602857
O7    O     O_R   0.500000 0.626290 0.576440 -0.599584
O8    O     O_R   0.500000 0.626290 0.423560 -0.598602
Zn1   Zn    Zn3+2 0.500000 0.500010 0.602090 0.986462
Zn2   Zn    Zn3+2 0.500000 0.500010 0.397910 1.001849

loop_
_geom_bond_atom_site_label_1
_geom_bond_atom_site_label_2
_ccdc_geom_bond_type
C6    H12   S    
C9    H14   S    
C5    O7    A    
C24   H13   S    
C4    O6    A    
C25   C26   S    
O4    Zn2   S    
C15   N6    S    
C23   C25   T    
C14   C17   S    
C22   N5    S    
C28   N1    T    
C15   C16   S    
C1    C19   S    
C2    C29   S    
H5    N5    S    
C20   H17   S    
C7    H1    S    
C8    H15   S    
C20   H19   S    
C5    O8    A    
C1    O1    A    
C4    O5    A    
Br3   C6    S    
C28   C30   S    
Br4   C7    S    
C7    C9    S    
C29   N2    T    
C3    O3    A    
O6    Zn2   S    
Br1   C8    S    
C6    C8    S    
C9    C14   S    
C12   C23   S    
O5    Zn1   S    
H9    N6    S    
C10   C17   T    
C3    C11   S    
C1    O2    A    
N2    Zn1   S    
C12   C19   T    
C20   H18   S    
C24   N6    S    
C22   H8    S    
C26   C27   T    
C24   H11   S    
C22   H6    S    
C3    O4    A    
N1    Zn2   S    
C2    C30   T    
C21   N4    S    
C5    C27   S    
C6    C13   S    
C16   N4    S    
O3    Zn1   S    
C21   H4    S    
C13   C16   S    
O2    Zn2   S    
O8    Zn2   S    
C14   C15   S    
H20   N4    S    
O1    Zn1   S    
Br2   C9    S    
C7    C13   S    
C4    C10   S    
C21   H2    S    
C15   N5    S    
C16   N3    S    
H16   N3    S    
C24   H10   S    
C11   C18   T    
C13   C18   S    
C22   H7    S    
C21   H3    S    
C20   N3    S    
O7    Zn1   S    
C8    C14   S    
