data_mof_unit_57075.cif
_audit_creation_date              2012-12-10T18:42:33-0500
_audit_creation_method            fapswitch 2.2
_symmetry_space_group_name_H-M    P1
_symmetry_Int_Tables_number       1
_space_group_crystal_system       triclinic
_cell_length_a                    8.579189
_cell_length_b                    10.799863
_cell_length_c                    10.020671
_cell_angle_alpha                 89.326336
_cell_angle_beta                  96.502809
_cell_angle_gamma                 93.209718
_cell_volume                      921.021664484

loop_
_atom_site_label
_atom_site_type_symbol
_atom_type_description
_atom_site_fract_x
_atom_site_fract_y
_atom_site_fract_z
_atom_type_partial_charge
C1    C     C_R   0.505345 0.260626 0.501940 0.965025
C2    C     C_R   0.536358 0.059474 0.626368 0.145487
C3    C     C_R   0.488244 0.872125 0.494463 -0.070500
C4    C     C_R   0.511176 0.127827 0.505206 -0.070180
C5    C     C_R   0.609907 0.571826 0.081166 0.129216
C6    C     C_R   0.389380 0.428839 0.918947 0.122671
C7    C     C_R   0.609179 0.571294 0.937900 -0.015819
C8    C     C_R   0.390916 0.428761 0.062372 -0.012494
C9    C     C_2   0.996500 0.327385 0.431374 0.852392
C10   C     C_2   0.005629 0.669980 0.571448 0.906626
C11   C     C_3   0.411286 0.886089 0.234329 -0.376657
C12   C     C_R   0.494657 0.739369 0.498003 0.956963
C13   C     C_3   0.243288 0.829165 0.224090 -0.754919
C14   C     C_3   0.591326 0.113903 0.764649 -0.381145
C15   C     C_3   0.759511 0.170259 0.772134 -0.781437
C16   C     C_3   0.734119 0.653277 0.164104 -0.443080
C17   C     C_3   0.894384 0.597178 0.180453 -0.736871
C18   C     C_3   0.264588 0.347829 0.836198 -0.438110
C19   C     C_3   0.104548 0.404790 0.818921 -0.716478
C20   C     C_2   0.728142 0.650206 0.877568 1.010919
C21   C     C_2   0.273420 0.349299 0.123717 1.008654
C22   C     C_R   0.203091 0.494210 0.467961 1.019147
C23   C     C_R   0.797098 0.504513 0.532035 0.999841
C24   C     C_2   0.042154 0.461358 0.465800 -0.317429
C25   C     C_2   0.958137 0.537017 0.533795 -0.324287
C26   C     C_R   0.481520 0.067597 0.381555 -0.215846
C27   C     C_R   0.516949 0.932390 0.618124 -0.243583
C28   C     C_R   0.463491 0.940457 0.373170 0.138872
H1    H     H_    0.469827 0.120138 0.289431 0.223058
H2    H     H_    0.841256 0.097420 0.754664 0.257375
H3    H     H_    0.770582 0.244786 0.696380 0.275195
H4    H     H_    0.794670 0.210281 0.873362 0.241668
H5    H     H_    0.509773 0.181235 0.795102 0.218710
H6    H     H_    0.590984 0.040994 0.843947 0.210061
H7    H     H_    0.880903 0.496790 0.203403 0.291695
H8    H     H_    0.955415 0.610329 0.089599 0.285463
H9    H     H_    0.969950 0.644077 0.264046 0.235693
H10   H     H_    0.744335 0.747609 0.119802 0.200191
H11   H     H_    0.702329 0.669220 0.264163 0.265136
H12   H     H_    0.527417 0.879827 0.710258 0.224443
H13   H     H_    0.040537 0.388284 0.907455 0.275003
H14   H     H_    0.117790 0.506070 0.800016 0.296913
H15   H     H_    0.030827 0.360039 0.732965 0.227135
H16   H     H_    0.297137 0.330852 0.736496 0.267464
H17   H     H_    0.253385 0.253800 0.881257 0.190129
H18   H     H_    0.804376 0.823980 0.832295 0.363518
H19   H     H_    0.048991 0.327253 0.162941 0.343874
H20   H     H_    0.829904 0.187883 0.401364 0.339344
H21   H     H_    0.165327 0.814946 0.577813 0.342393
H22   H     H_    0.209093 0.792052 0.121419 0.242683
H23   H     H_    0.232197 0.752200 0.296869 0.281348
H24   H     H_    0.160907 0.900847 0.243763 0.264224
H25   H     H_    0.412857 0.959133 0.155254 0.208606
H26   H     H_    0.493910 0.819167 0.205018 0.216443
N1    N     N_R   0.499960 0.499970 0.857200 -0.156535
N2    N     N_R   0.500040 0.500030 0.142800 -0.155545
O1    O     O_R   0.499990 0.316750 0.614620 -0.671062
O2    O     O_R   0.841319 0.279331 0.424519 -0.815114
O3    O     O_2   0.911174 0.734012 0.616916 -0.628941
O4    O     O_R   0.152049 0.724691 0.549862 -0.830679
O5    O     O_2   0.850806 0.607006 0.854928 -0.631481
O6    O     O_R   0.709761 0.777368 0.864600 -0.856725
O7    O     O_2   0.296230 0.240072 0.145190 -0.667362
O8    O     O_R   0.128644 0.395170 0.141280 -0.820862
O9    O     O_R   0.500010 0.683250 0.385380 -0.671139
O10   O     O_R   0.499990 0.316780 0.385290 -0.583455
O11   O     O_R   0.500010 0.683220 0.614710 -0.590382
O12   O     O_R   0.271750 0.499990 0.587840 -0.614240
O13   O     O_R   0.728250 0.500010 0.412160 -0.608298
O14   O     O_R   0.271750 0.500010 0.358510 -0.590021
O15   O     O_R   0.728250 0.499990 0.641490 -0.587802
O16   O     O_2   0.098815 0.257374 0.411346 -0.628038
Zn1   Zn    Zn3+2 0.500000 0.499980 0.653120 0.980627
Zn2   Zn    Zn3+2 0.500000 0.500020 0.346880 0.982309

loop_
_geom_bond_atom_site_label_1
_geom_bond_atom_site_label_2
_ccdc_geom_bond_type
H19   O8    S    
C14   H6    S    
C2    C4    A    
C9    O16   D    
C9    C24   S    
H20   O2    S    
C2    C27   A    
O11   Zn1   S    
C17   H8    S    
C18   H16   S    
C13   H24   S    
C12   O9    A    
C23   O13   A    
C5    N2    A    
C10   O4    S    
C15   H2    S    
C11   H25   S    
C19   H14   S    
C7    N1    A    
C27   H12   S    
C1    C4    S    
C8    N2    A    
C14   H5    S    
C3    C27   A    
C1    O10   A    
C15   H4    S    
C17   H9    S    
C15   H3    S    
C11   C13   S    
C22   O12   A    
H21   O4    S    
C11   C28   S    
H18   O6    S    
C6    N1    A    
C6    C18   S    
C13   H23   S    
C10   C25   S    
C11   H26   S    
C3    C28   A    
C19   H15   S    
C10   O3    D    
C1    O1    A    
C23   C25   S    
C20   O6    S    
C2    C14   S    
C12   O11   A    
C22   C24   S    
C4    C26   A    
C21   O7    D    
N2    Zn2   S    
C16   H11   S    
C13   H22   S    
N1    Zn1   S    
C18   H17   S    
C23   O15   A    
O13   Zn2   S    
C8    C21   S    
C22   O14   A    
C24   C25   D    
C26   H1    S    
C5    C7    A    
C9    O2    S    
O1    Zn1   S    
C20   O5    D    
O15   Zn1   S    
O14   Zn2   S    
C18   C19   S    
C5    C16   S    
C6    C8    A    
C3    C12   S    
C17   H7    S    
O12   Zn1   S    
C14   C15   S    
C26   C28   A    
C7    C20   S    
O9    Zn2   S    
C19   H13   S    
C16   H10   S    
C16   C17   S    
C21   O8    S    
O10   Zn2   S    
