data_mof_unit_27295.cif
_audit_creation_date              2012-10-26T20:46:54-0400
_audit_creation_method            fapswitch 2.2
_symmetry_space_group_name_H-M    P1
_symmetry_Int_Tables_number       1
_space_group_crystal_system       triclinic
_cell_length_a                    15.217236
_cell_length_b                    13.843703
_cell_length_c                    10.94121
_cell_angle_alpha                 90.000981
_cell_angle_beta                  89.841919
_cell_angle_gamma                 90.077529
_cell_volume                      2304.89609758

loop_
_atom_site_label
_atom_site_type_symbol
_atom_type_description
_atom_site_fract_x
_atom_site_fract_y
_atom_site_fract_z
_atom_type_partial_charge
C1    C     C_R   0.329728 0.499966 0.500114 0.583869
C2    C     C_R   0.441673 0.891805 0.425636 -0.151763
C3    C     C_R   0.556912 0.892120 0.575813 -0.151827
C4    C     C_R   0.443671 0.790321 0.425937 0.033431
C5    C     C_R   0.555821 0.790616 0.574602 0.036000
C6    C     C_R   0.499238 0.945149 0.500730 0.023619
C7    C     C_R   0.501077 0.500028 0.265165 0.554437
C8    C     C_R   0.498968 0.500026 0.734836 0.554442
C9    C     C_2   0.502049 0.420684 0.933046 -0.158316
C10   C     C_2   0.498194 0.420671 0.066950 -0.158154
C11   C     C_2   0.494615 0.501617 0.866726 -0.113977
C12   C     C_R   0.670324 0.500111 0.498828 0.582244
C13   C     C_2   0.505521 0.501633 0.133281 -0.113501
C14   C     C_R   0.096443 0.580921 0.442671 0.298518
C15   C     C_R   0.905424 0.583905 0.536549 0.311632
C16   C     C_R   0.187541 0.583968 0.458284 0.203852
C17   C     C_R   0.813806 0.585899 0.527796 0.206201
C18   C     C_R   0.232994 0.500181 0.496497 -0.036926
C19   C     C_R   0.767216 0.500774 0.496870 -0.037368
C20   C     C_R   0.184444 0.416874 0.529880 0.204505
C21   C     C_R   0.814718 0.416959 0.463102 0.204919
C22   C     C_R   0.093066 0.421194 0.532949 -0.184250
C23   C     C_R   0.048479 0.502110 0.488417 -0.047935
C24   C     C_R   0.905849 0.421313 0.453899 -0.178980
C25   C     C_3   0.060088 0.651079 0.261062 0.035417
C26   C     C_3   0.059935 0.752066 0.204636 -0.237189
C27   C     C_3   0.975022 0.806455 0.232302 -0.417345
C28   C     C_3   0.971725 0.650664 0.704501 0.010599
C29   C     C_3   0.895505 0.678943 0.789249 -0.252220
C30   C     C_3   0.925170 0.685616 0.921921 -0.502417
C31   C     C_3   0.226655 0.731356 0.535943 0.047976
C32   C     C_3   0.197058 0.831986 0.496116 -0.257895
C33   C     C_3   0.202846 0.903698 0.601759 -0.496611
C34   C     C_R   0.951898 0.503260 0.492167 -0.042497
C35   C     C_3   0.771835 0.734235 0.456207 0.045455
C36   C     C_3   0.790261 0.836966 0.500624 -0.260890
C37   C     C_3   0.771490 0.910955 0.400582 -0.499484
C38   C     C_3   0.238532 0.268583 0.474903 0.043453
C39   C     C_3   0.163553 0.194857 0.467303 -0.282965
C40   C     C_3   0.184187 0.116193 0.373699 -0.498010
C41   C     C_3   0.763259 0.270343 0.529439 0.042100
C42   C     C_3   0.837946 0.196336 0.534157 -0.282665
C43   C     C_3   0.821510 0.121284 0.633946 -0.496616
C44   C     C_R   0.526187 0.107776 0.603708 -0.151711
C45   C     C_R   0.472735 0.107551 0.397135 -0.151820
C46   C     C_R   0.526585 0.209245 0.601237 0.027802
C47   C     C_R   0.472991 0.209047 0.399063 0.028630
C48   C     C_R   0.499315 0.054462 0.500558 0.025601
Cu1   Cu    Cu3+1 0.500000 0.596430 0.500000 0.945432
Cu2   Cu    Cu3+1 0.500000 0.403570 0.500000 0.955894
H1    H     H_    0.509907 0.351153 0.888318 0.138742
H2    H     H_    0.452740 0.071526 0.314036 0.085557
H3    H     H_    0.548743 0.248023 0.681091 0.113973
H4    H     H_    0.450967 0.247687 0.319078 0.113897
H5    H     H_    0.394264 0.927630 0.367894 0.082062
H6    H     H_    0.603891 0.928251 0.634037 0.081746
H7    H     H_    0.002813 0.609221 0.226661 0.121523
H8    H     H_    0.121250 0.614431 0.228669 0.109773
H9    H     H_    0.116696 0.793992 0.240147 0.166716
H10   H     H_    0.068183 0.745621 0.104174 0.100268
H11   H     H_    0.917451 0.765300 0.198046 0.131960
H12   H     H_    0.490382 0.351107 0.111666 0.138915
H13   H     H_    0.976567 0.877972 0.186445 0.117061
H14   H     H_    0.967883 0.818121 0.332267 0.193513
H15   H     H_    0.028657 0.698576 0.723761 0.140614
H16   H     H_    0.993954 0.575528 0.724506 0.109207
H17   H     H_    0.868716 0.750127 0.760788 0.189848
H18   H     H_    0.842317 0.624168 0.782581 0.174255
H19   H     H_    0.954491 0.616180 0.952106 0.142598
H20   H     H_    0.867845 0.702195 0.981273 0.145729
H21   H     H_    0.974249 0.744444 0.931809 0.142481
H22   H     H_    0.293296 0.736825 0.576510 0.160130
H23   H     H_    0.399308 0.750629 0.367371 0.155870
H24   H     H_    0.181509 0.706004 0.610259 0.110742
H25   H     H_    0.238947 0.857819 0.419430 0.152980
H26   H     H_    0.127939 0.828488 0.464068 0.201892
H27   H     H_    0.163041 0.878052 0.680650 0.142855
H28   H     H_    0.176962 0.974809 0.572430 0.149059
H29   H     H_    0.272305 0.912911 0.630641 0.155324
H30   H     H_    0.706349 0.732078 0.411643 0.160412
H31   H     H_    0.821831 0.715971 0.384819 0.126294
H32   H     H_    0.748714 0.853412 0.581541 0.159606
H33   H     H_    0.860212 0.842787 0.528661 0.185221
H34   H     H_    0.600364 0.751155 0.633020 0.152221
H35   H     H_    0.810563 0.894739 0.317306 0.140638
H36   H     H_    0.789367 0.984191 0.433003 0.150960
H37   H     H_    0.700519 0.910453 0.377083 0.161329
H38   H     H_    0.300226 0.228808 0.494303 0.173102
H39   H     H_    0.248267 0.304692 0.384494 0.114751
H40   H     H_    0.153266 0.161071 0.558374 0.171012
H41   H     H_    0.101855 0.231459 0.439738 0.146505
H42   H     H_    0.192922 0.148434 0.281485 0.145401
H43   H     H_    0.129034 0.063657 0.370170 0.144867
H44   H     H_    0.245107 0.077016 0.399353 0.145558
H45   H     H_    0.483280 0.571619 0.907691 0.096995
H46   H     H_    0.700590 0.230451 0.517290 0.171906
H47   H     H_    0.757736 0.309203 0.618681 0.113092
H48   H     H_    0.843451 0.159288 0.444362 0.170497
H49   H     H_    0.901151 0.233281 0.553602 0.146129
H50   H     H_    0.819659 0.156657 0.725043 0.146867
H51   H     H_    0.875323 0.067179 0.633254 0.146286
H52   H     H_    0.758171 0.083281 0.618267 0.142396
H53   H     H_    0.516829 0.571678 0.092330 0.096960
H54   H     H_    0.056722 0.360642 0.570352 0.130007
H55   H     H_    0.940999 0.359567 0.417721 0.130238
H56   H     H_    0.545919 0.071968 0.687032 0.085417
N1    N     N_R   0.500000 0.258690 0.500000 -0.222511
N2    N     N_R   0.500000 0.741330 0.500000 -0.235754
O1    O     O_R   0.371460 0.581430 0.500010 -0.482801
O2    O     O_3   0.948625 0.664761 0.580640 -0.521207
O3    O     O_3   0.231224 0.669380 0.432622 -0.559504
O4    O     O_3   0.770438 0.670484 0.557725 -0.563821
O5    O     O_3   0.225222 0.334255 0.572672 -0.545995
O6    O     O_3   0.772713 0.332838 0.427531 -0.544055
O7    O     O_R   0.628540 0.581430 0.499990 -0.482163
O8    O     O_R   0.371470 0.418560 0.500010 -0.477266
O9    O     O_R   0.628530 0.418560 0.499990 -0.474561
O10   O     O_R   0.500000 0.581410 0.321940 -0.511564
O11   O     O_R   0.500000 0.581410 0.678060 -0.511586
O12   O     O_R   0.500010 0.418540 0.321940 -0.511191
O13   O     O_R   0.499990 0.418540 0.678060 -0.511383
O14   O     O_3   0.054486 0.658796 0.389757 -0.511292

loop_
_geom_bond_atom_site_label_1
_geom_bond_atom_site_label_2
_ccdc_geom_bond_type
C14   O14   S    
Cu2   O9    S    
C41   C42   S    
C28   H16   S    
C35   C36   S    
C9    H1    S    
C41   O6    S    
C3    C6    A    
C32   H25   S    
C30   H21   S    
C35   H31   S    
C2    C6    A    
C4    N2    A    
C38   H39   S    
C26   C27   S    
C6    C48   S    
Cu2   O12   S    
C37   H35   S    
C36   C37   S    
C19   C21   A    
C2    H5    S    
C42   H48   S    
C20   O5    S    
C8    O13   A    
C41   H46   S    
C36   H33   S    
C35   H30   S    
C22   H54   S    
C46   H3    S    
C15   C17   A    
C27   H11   S    
C1    O1    A    
C29   H17   S    
C31   C32   S    
C36   H32   S    
C1    O8    A    
C13   H53   S    
C9    C10   S    
C40   H43   S    
C15   C34   A    
Cu2   O8    S    
C12   O7    A    
C7    O10   A    
C10   H12   S    
Cu2   O13   S    
C25   H7    S    
C39   H41   S    
C30   H20   S    
C44   C46   A    
Cu1   N2    S    
C45   C47   A    
C38   C39   S    
C37   H36   S    
C43   H50   S    
C39   C40   S    
C38   O5    S    
C33   H29   S    
C31   H24   S    
C45   H2    S    
C28   O2    S    
C25   C26   S    
C24   C34   A    
C38   H38   S    
C14   C23   A    
C2    C4    A    
C43   H51   S    
C29   C30   S    
C29   H18   S    
C3    H6    S    
Cu1   O10   S    
C23   C34   S    
C46   N1    A    
C1    C18   S    
C40   H42   S    
C9    C11   D    
C4    H23   S    
C27   H13   S    
C47   H4    S    
C31   H22   S    
Cu1   O7    S    
C20   C22   A    
C47   N1    A    
Cu2   N1    S    
C41   H47   S    
C42   C43   S    
C17   O4    S    
C30   H19   S    
Cu1   O1    S    
C25   O14   S    
C45   C48   A    
C11   H45   S    
C5    H34   S    
C28   C29   S    
C39   H40   S    
C14   C16   A    
C7    O12   A    
C37   H37   S    
C40   H44   S    
C21   O6    S    
C3    C5    A    
C10   C13   D    
C32   H26   S    
C44   H56   S    
C32   C33   S    
C28   H15   S    
C43   H52   S    
C42   H49   S    
C33   H27   S    
Cu1   O11   S    
C8    C11   S    
C12   C19   S    
C17   C19   A    
C18   C20   A    
C33   H28   S    
C15   O2    S    
C27   H14   S    
C12   O9    A    
C7    C13   S    
C16   O3    S    
C16   C18   A    
Cu1   Cu2   S    
C25   H8    S    
C21   C24   A    
C31   O3    S    
C22   C23   A    
C26   H9    S    
C24   H55   S    
C26   H10   S    
C35   O4    S    
C44   C48   A    
C8    O11   A    
C5    N2    A    
