data_mof_unit_23417.cif
_audit_creation_date              2012-12-10T19:11:26-0500
_audit_creation_method            fapswitch 2.2
_symmetry_space_group_name_H-M    P1
_symmetry_Int_Tables_number       1
_space_group_crystal_system       triclinic
_cell_length_a                    10.632797
_cell_length_b                    9.709124
_cell_length_c                    10.495129
_cell_angle_alpha                 90.357926
_cell_angle_beta                  89.984294
_cell_angle_gamma                 89.9852
_cell_volume                      1083.44494096

loop_
_atom_site_label
_atom_site_type_symbol
_atom_type_description
_atom_site_fract_x
_atom_site_fract_y
_atom_site_fract_z
_atom_type_partial_charge
C1    C     C_R   0.257627 0.499766 0.498646 0.903549
C2    C     C_3   0.500046 0.498425 0.122182 0.028048
C3    C     C_3   0.071690 0.559389 0.625615 0.414030
C4    C     C_3   0.071326 0.348761 0.481856 0.414383
C5    C     C_3   0.927267 0.560732 0.624559 -0.455315
C6    C     C_3   0.928360 0.348807 0.483566 -0.450380
C7    C     C_3   0.072071 0.586812 0.385081 -0.349227
C8    C     C_3   0.121180 0.498945 0.497584 -0.044714
C9    C     C_3   0.878721 0.498670 0.497599 0.027210
C10   C     C_3   0.927731 0.585177 0.384236 -0.408826
C11   C     C_3   0.382777 0.080856 0.440434 -0.198624
C12   C     C_3   0.382828 0.918409 0.440292 -0.244164
C13   C     C_3   0.606710 0.080722 0.422773 -0.239647
C14   C     C_3   0.606788 0.918234 0.422874 -0.235285
C15   C     C_3   0.509803 0.081924 0.628156 -0.240534
C16   C     C_3   0.509681 0.919703 0.628160 -0.231692
C17   C     C_R   0.500048 0.499487 0.257111 0.872398
C18   C     C_R   0.742515 0.499695 0.498451 0.889768
C19   C     C_R   0.500147 0.500520 0.742775 0.873535
C20   C     C_3   0.396540 0.565012 0.042794 -0.159648
C21   C     C_3   0.500027 0.368412 0.039218 -0.140011
C22   C     C_3   0.396524 0.435174 0.957100 -0.163445
C23   C     C_3   0.500111 0.501616 0.877704 0.027745
C24   C     C_3   0.500129 0.631635 0.960665 -0.138770
C25   C     C_3   0.603614 0.435037 0.957096 -0.189764
C26   C     C_3   0.603633 0.564875 0.042787 -0.190920
H1    H     H_    0.312387 0.382741 0.917151 0.128297
H2    H     H_    0.892320 0.692919 0.390816 0.184646
H3    H     H_    0.893363 0.540783 0.292571 0.167886
H4    H     H_    0.371500 0.119088 0.341382 0.173733
H5    H     H_    0.371836 0.879098 0.341122 0.145409
H6    H     H_    0.299636 0.118436 0.494681 0.180629
H7    H     H_    0.299540 0.881273 0.494176 0.194380
H8    H     H_    0.602533 0.118553 0.323033 0.144561
H9    H     H_    0.602807 0.878965 0.323162 0.147456
H10   H     H_    0.597316 0.120491 0.674239 0.149896
H11   H     H_    0.597053 0.881500 0.674364 0.143697
H12   H     H_    0.430231 0.120355 0.687368 0.151009
H13   H     H_    0.429986 0.882143 0.687220 0.167616
H14   H     H_    0.697133 0.118655 0.462925 0.153832
H15   H     H_    0.697197 0.880902 0.463189 0.152045
H16   H     H_    0.312414 0.617551 0.082760 0.130069
H17   H     H_    0.499984 0.261186 0.075423 0.134481
H18   H     H_    0.500185 0.738862 0.924465 0.133044
H19   H     H_    0.687736 0.382490 0.917140 0.127509
H20   H     H_    0.687766 0.617313 0.082751 0.126791
H21   H     H_    0.105201 0.494808 0.706094 0.040476
H22   H     H_    0.105610 0.283540 0.561629 0.062400
H23   H     H_    0.891110 0.500060 0.706492 0.116627
H24   H     H_    0.895241 0.284635 0.564593 0.136170
H25   H     H_    0.892352 0.668185 0.636539 0.223502
H26   H     H_    0.891816 0.301081 0.394136 0.219882
H27   H     H_    0.105457 0.695108 0.394027 0.203330
H28   H     H_    0.108386 0.545695 0.292898 0.190899
N1    N     N_3   0.499750 0.138610 0.497240 -0.046129
N2    N     N_3   0.499750 0.861390 0.497240 -0.038121
O1    O     O_R   0.314910 0.616040 0.499970 -0.587075
O2    O     O_R   0.314910 0.383960 0.499970 -0.616577
O3    O     O_R   0.500080 0.616020 0.313900 -0.638294
O4    O     O_R   0.500080 0.383980 0.313900 -0.624807
O5    O     O_R   0.685320 0.616040 0.499930 -0.638098
O6    O     O_R   0.685320 0.383960 0.499930 -0.637553
O7    O     O_R   0.500150 0.616060 0.686000 -0.626127
O8    O     O_R   0.500150 0.383940 0.686000 -0.640692
Zn1   Zn    Zn3+2 0.500150 0.654960 0.499940 0.921863
Zn2   Zn    Zn3+2 0.500150 0.345040 0.499940 0.914427
F1    F     F_    0.115885 0.692313 0.645405 -0.668455
F2    F     F_    0.113499 0.290780 0.368300 -0.674334

loop_
_geom_bond_atom_site_label_1
_geom_bond_atom_site_label_2
_ccdc_geom_bond_type
C7    C10   S    
C14   N2    S    
C23   C24   S    
O7    Zn1   S    
C18   O5    A    
C5    C9    S    
C1    O1    A    
C1    C8    S    
C9    C10   S    
C19   O8    A    
C20   H16   S    
C7    H28   S    
C16   H11   S    
C4    C8    S    
C13   N1    S    
C20   C24   S    
N1    Zn2   S    
C2    C21   S    
C16   N2    S    
C12   H7    S    
O4    Zn2   S    
C7    C8    S    
C2    C26   S    
C19   O7    A    
C21   H17   S    
C21   C22   S    
O3    Zn1   S    
C2    C17   S    
C10   H3    S    
C5    H23   S    
C12   N2    S    
C15   H12   S    
C21   C25   S    
C9    C18   S    
C17   O3    A    
C14   H15   S    
C3    H21   S    
C24   C26   S    
C11   H6    S    
C22   H1    S    
C23   C25   S    
C12   H5    S    
C24   H18   S    
C20   C22   S    
C16   H13   S    
C2    C20   S    
C15   C16   S    
C6    H24   S    
O5    Zn1   S    
C15   H10   S    
C13   H8    S    
C6    C9    S    
C11   N1    S    
C18   O6    A    
C11   H4    S    
C4    C6    S    
C3    C8    S    
C4    H22   S    
C15   N1    S    
C10   H2    S    
C14   H9    S    
O6    Zn2   S    
C7    H27   S    
C19   C23   S    
C5    H25   S    
C13   H14   S    
C25   H19   S    
C17   O4    A    
C13   C14   S    
C6    H26   S    
C25   C26   S    
C1    O2    A    
C26   H20   S    
C4    F2    S    
O2    Zn2   S    
C22   C23   S    
C3    F1    S    
N2    Zn1   S    
C11   C12   S    
O1    Zn1   S    
C3    C5    S    
O8    Zn2   S    
