data_mof_unit_62813.cif
_audit_creation_date              2013-03-05T16:59:11-0500
_audit_creation_method            fapswitch 2.2
_symmetry_space_group_name_H-M    P1
_symmetry_Int_Tables_number       1
_space_group_crystal_system       triclinic
_cell_length_a                    16.791659
_cell_length_b                    16.675559
_cell_length_c                    17.619836
_cell_angle_alpha                 88.659203
_cell_angle_beta                  90.149444
_cell_angle_gamma                 93.946938
_cell_volume                      4920.68374993

loop_
_atom_site_label
_atom_site_type_symbol
_atom_site_description
_atom_site_fract_x
_atom_site_fract_y
_atom_site_fract_z
_atom_type_partial_charge
O1    O     O_R   0.433430 0.500000 0.610870 -0.588957
O2    O     O_R   0.566570 0.500000 0.389130 -0.589246
O3    O     O_R   0.566520 0.499990 0.610900 -0.593629
O4    O     O_R   0.433480 0.500010 0.389100 -0.593432
C1    C     C_R   0.500030 0.502666 0.646567 0.939833
C2    C     C_R   0.499971 0.497360 0.353440 0.940466
O5    O     O_R   0.426030 0.383870 0.500690 -0.592440
O6    O     O_R   0.573970 0.616130 0.499310 -0.592461
O7    O     O_R   0.559120 0.383870 0.500710 -0.582133
O8    O     O_R   0.440880 0.616130 0.499290 -0.582172
C3    C     C_R   0.489860 0.345956 0.499442 1.023219
C4    C     C_R   0.510140 0.654040 0.500588 1.022435
Zn1   Zn    Zn3+2 0.411140 0.500000 0.499980 1.072936
Zn2   Zn    Zn3+2 0.588860 0.500000 0.500020 1.072614
C5    C     C_R   0.483740 0.259333 0.489729 -0.347295
C6    C     C_R   0.516267 0.740638 0.510449 -0.347285
C7    C     C_R   0.548960 0.222777 0.459612 -0.249041
C8    C     C_R   0.451088 0.777127 0.540732 -0.250324
C9    C     C_R   0.544857 0.140258 0.448224 0.219194
C10   C     C_R   0.455203 0.859622 0.552263 0.219337
C11   C     C_R   0.474790 0.094021 0.470281 -0.004827
C12   C     C_R   0.525255 0.905897 0.530220 -0.004754
C13   C     C_R   0.408075 0.130918 0.495897 0.599889
C14   C     C_R   0.591947 0.869046 0.504482 0.599721
C15   C     C_R   0.412322 0.213355 0.505942 0.531813
C16   C     C_R   0.587677 0.786639 0.494266 0.531893
N1    N     N_2   0.474150 0.010187 0.477277 -0.032924
N2    N     N_2   0.525867 0.989732 0.523273 -0.032928
H1    H     H_    0.397370 0.741146 0.556677 0.278234
H2    H     H_    0.602703 0.258719 0.443674 0.278322
C17   C     C_R   0.440426 0.528809 0.151886 -0.133326
C18   C     C_R   0.560434 0.472728 0.848108 -0.133590
H3    H     H_    0.392490 0.555319 0.120945 0.210627
H4    H     H_    0.608798 0.446935 0.879024 0.210793
C19   C     C_R   0.438703 0.525990 0.230226 -0.171755
C20   C     C_R   0.561897 0.475183 0.769765 -0.171354
H5    H     H_    0.389786 0.551458 0.258788 0.232537
H6    H     H_    0.611102 0.450211 0.741193 0.232352
C21   C     C_R   0.500448 0.492737 0.271056 -0.205930
C22   C     C_R   0.499603 0.507489 0.728953 -0.206262
C23   C     C_R   0.563466 0.458687 0.232486 0.215598
C24   C     C_R   0.436255 0.540956 0.767561 0.215689
C25   C     C_R   0.565139 0.461785 0.152846 0.243088
C26   C     C_R   0.434826 0.538178 0.847208 0.243089
C27   C     C_R   0.503404 0.497762 0.113675 -0.051065
C28   C     C_R   0.497151 0.503165 0.886355 -0.051151
C29   C     C_1   0.501313 0.499769 0.033670 0.123937
C30   C     C_1   0.499372 0.501337 0.966359 0.123763
C31   C     C_R   0.164030 0.433886 0.533673 0.640111
C32   C     C_R   0.835973 0.566055 0.466256 0.639908
C33   C     C_R   0.248441 0.436262 0.532221 -0.093383
C34   C     C_R   0.751564 0.563693 0.467708 -0.093976
H7    H     H_    0.278419 0.386737 0.557178 0.236954
H8    H     H_    0.721588 0.613192 0.442695 0.236812
N3    N     N_R   0.292770 0.500020 0.499970 -0.184571
N4    N     N_R   0.707230 0.499980 0.500030 -0.184608
C35   C     C_R   0.254052 0.563711 0.469664 0.430113
C36   C     C_R   0.745939 0.436326 0.530424 0.429827
C37   C     C_R   0.170102 0.563423 0.471192 -0.326757
C38   C     C_R   0.829888 0.436600 0.528900 -0.326743
H9    H     H_    0.140936 0.613918 0.446594 0.236821
H10   H     H_    0.859049 0.386134 0.553562 0.236844
C39   C     C_R   0.123932 0.498241 0.502423 -0.092763
C40   C     C_R   0.876064 0.501734 0.497585 -0.092702
C41   C     C_1   0.036362 0.498909 0.501048 0.159414
C42   C     C_1   0.963633 0.501055 0.498958 0.159342
N5    N     N_R   0.297464 0.631895 0.435504 0.228998
O9    O     O_R   0.279305 0.703882 0.452647 -0.324498
O10   O     O_R   0.339697 0.622928 0.375055 -0.376790
N6    N     N_R   0.702515 0.368191 0.564665 0.228920
O11   O     O_R   0.720667 0.296178 0.547605 -0.324642
O12   O     O_R   0.660308 0.377238 0.625116 -0.376433
N7    N     N_R   0.388595 0.895885 0.585583 0.280452
O13   O     O_R   0.399961 0.960671 0.625068 -0.263565
O14   O     O_R   0.317285 0.860124 0.583025 -0.243104
N8    N     N_R   0.611484 0.103940 0.415003 0.280554
O15   O     O_R   0.600123 0.039168 0.375497 -0.263417
O16   O     O_R   0.682810 0.139656 0.417641 -0.243027
F1    F     F_    0.340613 0.085907 0.515851 -0.515584
F2    F     F_    0.659398 0.914088 0.484553 -0.515610
F3    F     F_    0.347864 0.247317 0.534335 -0.582167
F4    F     F_    0.652103 0.752730 0.465737 -0.582169
N9    N     N_R   0.625131 0.420776 0.273554 0.247403
O17   O     O_R   0.699734 0.444714 0.262866 -0.281700
O18   O     O_R   0.606994 0.359565 0.318856 -0.367990
N10   N     N_R   0.373990 0.577947 0.726536 0.247463
O19   O     O_R   0.299665 0.552940 0.737258 -0.281929
O20   O     O_R   0.391250 0.639458 0.681345 -0.366818
N11   N     N_R   0.627501 0.426220 0.112173 0.234536
O21   O     O_R   0.646617 0.353799 0.129803 -0.258242
O22   O     O_R   0.664913 0.465716 0.056897 -0.337580
N12   N     N_R   0.372050 0.573056 0.887897 0.234346
O23   O     O_R   0.351897 0.645070 0.870038 -0.258311
O24   O     O_R   0.335218 0.533306 0.943362 -0.337344
F5    F     F_    0.122117 0.369210 0.565425 -0.582656
F6    F     F_    0.877893 0.630684 0.434428 -0.582834

loop_
_geom_bond_atom_site_label_1
_geom_bond_atom_site_label_2
_geom_bond_distance
_ccdc_geom_bond_type
Zn2   N4    1.987651 S    
C39   C41   1.471378 S    
C31   C39   1.406447 A    
C32   C40   1.406455 A    
N7    O13   1.301410 A    
C21   C23   1.417228 A    
O5    C3    1.281825 A    
C25   N11   1.439158 S    
O1    C1    1.280248 A    
C18   C20   1.380280 A    
C9    N8    1.440270 S    
C9    C11   1.411837 A    
C14   C16   1.387043 A    
N10   O20   1.300853 A    
C35   C37   1.409655 A    
C36   C38   1.409660 A    
C23   N9    1.435361 S    
C38   H10   1.084114 S    
O4    Zn1   1.990330 S    
C3    C5    1.455137 S    
C14   F2    1.357527 S    
N9    O17   1.301144 A    
C26   C28   1.404793 A    
C31   C33   1.415499 A    
C32   C34   1.415493 A    
C17   H3    1.084416 S    
N6    O11   1.301178 A    
C24   N10   1.435323 S    
N11   O22   1.301247 A    
C33   N3    1.368340 A    
C26   N12   1.439199 S    
C22   C24   1.417382 A    
C11   N1    1.399827 S    
C16   F4    1.357602 S    
C12   N2    1.399825 S    
C15   F3    1.357580 S    
C7    H2    1.082339 S    
C23   C25   1.403264 A    
O2    C2    1.280174 A    
C24   C26   1.403254 A    
C35   N5    1.429213 S    
C34   H8    1.080704 S    
C27   C29   1.409706 S    
C11   C13   1.395628 A    
C6    C16   1.404437 A    
C28   C30   1.409718 S    
C37   H9    1.084116 S    
N5    O9    1.301180 A    
C4    C6    1.455088 S    
C20   C22   1.398931 A    
N8    O15   1.301409 A    
O4    C2    1.286485 A    
N10   O19   1.301175 A    
C36   N6    1.429254 S    
N5    O10   1.298345 A    
C18   H4    1.084476 S    
C19   C21   1.398788 A    
O7    Zn2   1.966086 S    
C25   C27   1.404771 A    
C29   C30   1.186089 T    
O6    C4    1.281796 A    
N12   O24   1.301283 A    
C8    H1    1.082359 S    
C31   F5    1.356771 S    
O7    C3    1.285326 A    
O3    Zn2   1.990330 S    
O8    C4    1.285320 A    
N9    O18   1.300808 A    
C10   C12   1.411857 A    
N3    C35   1.379329 A    
C12   C14   1.395645 A    
O1    Zn1   1.988433 S    
N7    O14   1.301590 A    
C5    C7    1.400948 A    
O6    Zn2   1.969349 S    
C19   H5    1.080978 S    
C18   C28   1.391017 A    
N8    O16   1.301587 A    
O3    C1    1.286589 A    
O8    Zn1   1.966083 S    
C37   C39   1.394115 A    
C38   C40   1.394130 A    
C13   F1    1.357530 S    
C20   H6    1.081141 S    
C32   F6    1.356769 S    
C17   C19   1.380346 A    
N12   O23   1.301291 A    
C7    C9    1.392229 A    
N4    C36   1.379325 A    
C10   N7    1.440297 S    
C8    C10   1.392277 A    
C13   C15   1.387073 A    
O2    Zn2   1.988431 S    
C5    C15   1.404469 A    
O5    Zn1   1.969349 S    
C6    C8    1.400962 A    
C41   C42   1.224659 T    
C17   C27   1.391061 A    
C1    C22   1.455786 S    
N1    N2    1.245585 D    
C2    C21   1.455507 S    
N6    O12   1.298364 A    
C33   H7    1.080685 S    
N11   O21   1.301259 A    
C34   N4    1.368332 A    
C40   C42   1.471377 S    
Zn1   N3    1.987651 S    
