data_mof_unit_32144.cif
_audit_creation_date              2013-03-05T16:35:52-0500
_audit_creation_method            fapswitch 2.2
_symmetry_space_group_name_H-M    P1
_symmetry_Int_Tables_number       1
_space_group_crystal_system       triclinic
_cell_length_a                    23.554423
_cell_length_b                    9.105929
_cell_length_c                    7.794398
_cell_angle_alpha                 90.047218
_cell_angle_beta                  89.997239
_cell_angle_gamma                 90.014494
_cell_volume                      1671.78007955

loop_
_atom_site_label
_atom_site_type_symbol
_atom_site_description
_atom_site_fract_x
_atom_site_fract_y
_atom_site_fract_z
_atom_type_partial_charge
O1    O     O_R   0.500000 0.288390 0.642760 -0.574236
O2    O     O_R   0.500000 0.711610 0.357240 -0.574521
O3    O     O_R   0.500000 0.711610 0.642760 -0.575601
O4    O     O_R   0.500000 0.288390 0.357240 -0.573921
H1    H     H_    0.948123 0.131686 0.490655 0.182647
H2    H     H_    0.051900 0.872658 0.516903 0.181867
H3    H     H_    0.948656 0.873285 0.502039 0.181992
H4    H     H_    0.051416 0.131400 0.479477 0.181720
C1    C     C_R   0.499999 0.220035 0.499957 0.849777
C2    C     C_R   0.500003 0.779965 0.500043 0.847956
O5    O     O_R   0.417880 0.500000 0.642820 -0.581113
O6    O     O_R   0.582120 0.500000 0.357180 -0.585684
O7    O     O_R   0.582120 0.500000 0.642820 -0.581643
O8    O     O_R   0.417880 0.500000 0.357180 -0.581310
C3    C     C_R   0.208858 0.501402 0.499468 0.203157
C4    C     C_R   0.791139 0.503108 0.494108 0.235416
C5    C     C_R   0.390700 0.500055 0.499993 0.815302
C6    C     C_R   0.609302 0.499876 0.499915 0.806213
Cu1   Cu    Cu3+1 0.500000 0.500000 0.669080 1.023021
Cu2   Cu    Cu3+1 0.500000 0.500000 0.330920 1.023333
C7    C     C_R   0.298558 0.546856 0.354387 -0.218458
C8    C     C_R   0.701132 0.455094 0.352154 -0.229476
C9    C     C_R   0.298336 0.454452 0.645174 -0.218050
C10   C     C_R   0.701995 0.546873 0.643422 -0.270178
H5    H     H_    0.322076 0.582127 0.242263 0.202934
H6    H     H_    0.677355 0.419315 0.240694 0.197133
H7    H     H_    0.321668 0.418820 0.757483 0.202533
H8    H     H_    0.678977 0.579205 0.757670 0.165598
C11   C     C_R   0.328259 0.500429 0.499881 -0.082655
C12   C     C_R   0.671746 0.500303 0.498904 -0.042665
C13   C     C_R   0.880862 0.633934 0.487921 0.623569
C14   C     C_R   0.119287 0.370942 0.485404 0.627057
C15   C     C_R   0.880651 0.371627 0.501530 0.626177
C16   C     C_R   0.119438 0.632557 0.512543 0.629247
N1    N     N_R   0.852270 0.502886 0.493591 -0.450185
N2    N     N_R   0.147796 0.501640 0.499196 -0.443288
C17   C     C_R   0.940151 0.368633 0.496886 0.003571
C18   C     C_R   0.059945 0.635736 0.506990 0.001928
C19   C     C_R   0.940348 0.636412 0.495051 0.000097
C20   C     C_R   0.059778 0.368267 0.489337 0.001884
C21   C     C_R   0.970111 0.502394 0.496499 -0.009284
C22   C     C_R   0.030005 0.502133 0.497626 -0.007311
C23   C     C_R   0.970265 0.235685 0.491972 -0.137985
C24   C     C_R   0.029810 0.768711 0.509911 -0.142324
C25   C     C_R   0.970641 0.769091 0.501410 -0.135526
C26   C     C_R   0.029460 0.235545 0.485595 -0.142787
C27   C     C_1   0.500001 0.065353 0.499941 -0.154822
C28   C     C_1   0.500002 0.934646 0.500059 -0.155946
C29   C     C_R   0.239115 0.548759 0.351778 -0.009275
C30   C     C_R   0.760557 0.454476 0.347560 0.003001
C31   C     C_R   0.238883 0.453516 0.647313 -0.008369
C32   C     C_R   0.761437 0.551644 0.642141 -0.087931
N3    N     N_1   0.500000 0.500000 0.076820 -0.042408
N4    N     N_1   0.500000 0.500000 0.923180 -0.042603
O9    O     O_2   0.851717 0.761155 0.476989 -0.503731
O10   O     O_2   0.148544 0.244256 0.469540 -0.515491
O11   O     O_2   0.851272 0.244697 0.512049 -0.512872
O12   O     O_2   0.148835 0.758980 0.529275 -0.515051
C33   C     C_2   0.210285 0.600614 0.192645 0.899156
O13   O     O_2   0.160355 0.572141 0.165836 -0.560328
O14   O     O_R   0.240833 0.681323 0.070932 -0.752752
H9    H     H_    0.216892 0.710249 0.968257 0.357886
C34   C     C_2   0.788956 0.402804 0.187601 0.929979
O15   O     O_2   0.839059 0.429207 0.161117 -0.538245
O16   O     O_R   0.757898 0.324072 0.065137 -0.763199
H10   H     H_    0.781675 0.294196 0.962435 0.360438
C35   C     C_2   0.209753 0.401979 0.806052 0.898699
O17   O     O_2   0.160054 0.432858 0.833372 -0.560639
O18   O     O_R   0.239756 0.318837 0.926804 -0.751523
H11   H     H_    0.215670 0.290610 0.029457 0.357759
C36   C     C_2   0.791907 0.605189 0.797918 0.927614
O19   O     O_2   0.837865 0.552833 0.836191 -0.520216
O20   O     O_R   0.769336 0.715396 0.902951 -0.697288
H12   H     H_    0.734820 0.765634 0.852690 0.302227

loop_
_geom_bond_atom_site_label_1
_geom_bond_atom_site_label_2
_geom_bond_distance
_ccdc_geom_bond_type
C10   C32   1.400834 A    
C34   O16   1.399629 S    
C5    C11   1.470781 S    
C21   C22   1.410799 A    
Cu1   Cu2   2.635754 S    
C7    C29   1.400418 A    
C19   C21   1.407597 A    
N3    N4    1.197532 T    
C20   C26   1.403903 A    
O5    Cu1   1.945101 S    
O7    C6    1.284732 A    
C9    C11   1.398246 A    
C4    C30   1.420862 A    
C18   C22   1.407897 A    
C4    N1    1.439906 S    
O20   H12   1.012045 S    
O3    Cu1   1.937964 S    
C6    C12   1.470860 S    
C9    H7    1.083606 S    
C10   H8    1.083143 S    
C8    C30   1.400179 A    
C20   C22   1.407906 A    
H1    C23   1.081046 S    
C33   O13   1.222227 D    
H2    C24   1.081339 S    
C30   C34   1.490781 S    
O8    C5    1.284086 A    
O14   H9    1.014057 S    
C10   C12   1.398371 A    
O1    Cu1   1.937628 S    
C33   O14   1.399528 S    
O7    Cu1   1.945079 S    
O2    Cu2   1.937627 S    
C35   O17   1.222645 D    
O8    Cu2   1.945081 S    
O1    C1    1.274834 A    
C36   O20   1.399585 S    
C7    C11   1.398282 A    
C15   C17   1.402223 A    
C35   O18   1.399974 S    
C17   C23   1.403761 A    
C18   C24   1.403895 A    
C9    C31   1.400510 A    
C27   C28   1.190211 T    
O6    Cu2   1.945098 S    
C31   C35   1.490828 S    
Cu1   N4    1.980556 S    
C1    C27   1.408517 S    
C3    C31   1.421012 A    
C2    C28   1.408514 S    
C13   N1    1.370838 A    
O2    C2    1.274833 A    
H3    C25   1.081020 S    
C3    N2    1.438291 S    
C14   C20   1.402237 A    
C24   C25   1.395272 A    
C16   O12   1.349487 S    
C7    H5    1.083569 S    
O5    C5    1.284230 A    
C15   O11   1.349545 S    
C8    C12   1.398650 A    
C16   C18   1.402294 A    
C4    C32   1.419629 A    
Cu2   N3    1.980556 S    
C14   N2    1.370506 A    
C29   C33   1.491228 S    
C19   C25   1.403828 A    
C36   O19   1.220098 D    
C32   C36   1.491986 S    
C15   N1    1.371072 A    
C13   C19   1.402426 A    
C16   N2    1.370521 A    
C3    C29   1.421120 A    
C17   C21   1.407528 A    
O18   H11   1.014072 S    
C23   C26   1.395198 A    
H4    C26   1.081320 S    
C34   O15   1.221923 D    
O4    Cu2   1.937965 S    
O16   H10   1.013988 S    
C8    H6    1.083533 S    
O6    C6    1.283634 A    
O3    C2    1.275140 A    
C13   O9    1.349502 S    
O4    C1    1.275141 A    
C14   O10   1.349490 S    
