data_mof_unit_28300.cif
_audit_creation_date              2012-12-11T14:44:03-0500
_audit_creation_method            fapswitch 2.2
_symmetry_space_group_name_H-M    P1
_symmetry_Int_Tables_number       1
_space_group_crystal_system       triclinic
_cell_length_a                    19.020346
_cell_length_b                    10.893378
_cell_length_c                    18.886053
_cell_angle_alpha                 90.215076
_cell_angle_beta                  90.228597
_cell_angle_gamma                 89.992969
_cell_volume                      3913.05247574

loop_
_atom_site_label
_atom_site_type_symbol
_atom_type_description
_atom_site_fract_x
_atom_site_fract_y
_atom_site_fract_z
_atom_type_partial_charge
C1    C     C_R   0.728017 0.374595 0.144423 0.642517
C2    C     C_R   0.950207 0.979588 0.055318 0.304836
C3    C     C_R   0.983463 0.763959 0.040774 -0.037313
C4    C     C_R   0.533544 0.057531 0.026449 0.251909
C5    C     C_R   0.532078 0.071044 0.952854 0.246415
C6    C     C_R   0.033544 0.557532 0.026449 0.251907
C7    C     C_R   0.032078 0.571044 0.952854 0.246415
C8    C     C_R   0.459323 0.497759 0.982857 0.340906
C9    C     C_R   0.450207 0.479588 0.055318 0.304836
C10   C     C_R   0.714294 0.841254 0.042862 0.202503
C11   C     C_R   0.313871 0.907827 0.968066 0.203501
C12   C     C_R   0.214294 0.341254 0.042862 0.202505
C13   C     C_R   0.813871 0.407827 0.968066 0.203501
C14   C     C_R   0.712285 0.825550 0.969823 0.164145
C15   C     C_R   0.306113 0.908963 0.041513 0.202083
C16   C     C_R   0.212285 0.325550 0.969823 0.164147
C17   C     C_R   0.269860 0.374528 0.854711 0.557616
C18   C     C_R   0.806113 0.408963 0.041513 0.202083
C19   C     C_R   0.747146 0.911027 0.925111 -0.061721
C20   C     C_R   0.238696 0.903960 0.069986 0.002642
C21   C     C_R   0.247146 0.411027 0.925111 -0.061723
C22   C     C_R   0.738696 0.403960 0.069986 0.002643
C23   C     C_R   0.772770 0.021323 0.952837 0.176504
C24   C     C_R   0.179040 0.904790 0.024488 0.263340
C25   C     C_R   0.272770 0.521323 0.952837 0.176503
C26   C     C_R   0.679040 0.404790 0.024488 0.263340
C27   C     C_R   0.774586 0.036902 0.025890 0.218243
C28   C     C_R   0.228017 0.874595 0.144423 0.642517
C29   C     C_R   0.186659 0.903155 0.951931 0.280766
C30   C     C_R   0.274586 0.536902 0.025890 0.218243
C31   C     C_R   0.686659 0.403155 0.951931 0.280766
C32   C     C_R   0.745868 0.946250 0.070898 -0.010585
C33   C     C_R   0.253690 0.915921 0.923273 -0.027425
C34   C     C_R   0.245869 0.446250 0.070898 -0.010585
C35   C     C_R   0.753690 0.415921 0.923273 -0.027425
C36   C     C_R   0.462442 0.056336 0.447845 0.258924
C37   C     C_R   0.450294 0.051538 0.520329 0.224229
C38   C     C_R   0.962442 0.556336 0.447845 0.258925
C39   C     C_R   0.769860 0.874528 0.854711 0.557617
C40   C     C_R   0.950294 0.551538 0.520330 0.224233
C41   C     C_R   0.454479 0.160234 0.561964 -0.047699
C42   C     C_R   0.487223 0.165902 0.416924 -0.024826
C43   C     C_R   0.954479 0.660234 0.561964 -0.047696
C44   C     C_R   0.987223 0.665901 0.416924 -0.024826
C45   C     C_R   0.533564 0.153501 0.145260 0.579014
C46   C     C_R   0.468735 0.157361 0.853057 0.601096
C47   C     C_R   0.033565 0.653501 0.145260 0.579015
C48   C     C_R   0.968735 0.657361 0.853057 0.601095
C49   C     C_R   0.467415 0.274386 0.527792 0.220446
C50   C     C_R   0.474248 0.397004 0.938724 -0.054244
C51   C     C_R   0.483313 0.276771 0.455481 0.223900
C52   C     C_R   0.967415 0.774386 0.527792 0.220445
C53   C     C_R   0.983312 0.776771 0.455481 0.223898
C54   C     C_R   0.786541 0.044629 0.480331 0.250903
C55   C     C_R   0.206179 0.828038 0.558058 0.210708
C56   C     C_R   0.286541 0.544629 0.480331 0.250903
C57   C     C_R   0.706178 0.328038 0.558058 0.210709
C58   C     C_R   0.785211 0.031606 0.553242 0.253545
C59   C     C_R   0.193512 0.796228 0.486645 0.199379
C60   C     C_R   0.285212 0.531606 0.553242 0.253546
C61   C     C_R   0.458986 0.361703 0.083412 -0.120096
C62   C     C_R   0.693512 0.296228 0.486645 0.199379
C63   C     C_R   0.743463 0.938879 0.583686 -0.053096
C64   C     C_R   0.224866 0.866136 0.432906 0.051149
C65   C     C_R   0.243463 0.438880 0.583686 -0.053094
C66   C     C_R   0.724866 0.366135 0.432906 0.051149
C67   C     C_R   0.691059 0.880640 0.542512 0.248572
C68   C     C_R   0.260659 0.975295 0.448622 0.300018
C69   C     C_R   0.191058 0.380642 0.542513 0.248575
C70   C     C_R   0.760660 0.475294 0.448622 0.300020
C71   C     C_R   0.690217 0.896427 0.469489 0.227127
C72   C     C_R   0.974248 0.897004 0.938724 -0.054244
C73   C     C_R   0.270227 0.010749 0.518591 0.253254
C74   C     C_R   0.190216 0.396429 0.469490 0.227127
C75   C     C_R   0.770228 0.510749 0.518591 0.253254
C76   C     C_R   0.738380 0.978295 0.437295 -0.043466
C77   C     C_R   0.247619 0.931497 0.573537 0.037877
C78   C     C_R   0.238379 0.478297 0.437295 -0.043463
C79   C     C_R   0.747619 0.431497 0.573537 0.037877
C80   C     C_R   0.740322 0.974223 0.145792 0.612987
C81   C     C_R   0.259714 0.968519 0.852572 0.558269
C82   C     C_R   0.240322 0.474223 0.145792 0.612987
C83   C     C_R   0.958986 0.861703 0.083412 -0.120095
C84   C     C_R   0.759714 0.468519 0.852572 0.558269
C85   C     C_R   0.711389 0.333183 0.359721 0.619336
C86   C     C_R   0.268203 0.383391 0.649852 0.545488
C87   C     C_R   0.211389 0.833183 0.359721 0.619336
C88   C     C_R   0.768202 0.883391 0.649852 0.545485
C89   C     C_R   0.528582 0.157443 0.351278 0.605524
C90   C     C_R   0.437975 0.153130 0.638378 0.577548
C91   C     C_R   0.028582 0.657443 0.351278 0.605524
C92   C     C_R   0.937975 0.653129 0.638378 0.577553
C93   C     C_R   0.730781 0.011854 0.362363 0.574010
C94   C     C_R   0.959323 0.997759 0.982857 0.340906
C95   C     C_R   0.257761 0.969861 0.646338 0.579785
C96   C     C_R   0.230781 0.511854 0.362363 0.574012
C97   C     C_R   0.757761 0.469861 0.646338 0.579785
C98   C     C_R   0.500404 0.173685 0.923403 0.035026
C99   C     C_R   0.511092 0.155847 0.070790 0.066139
C100  C     C_R   0.000403 0.673685 0.923403 0.035025
C101  C     C_R   0.011093 0.655847 0.070790 0.066139
C102  C     C_R   0.484532 0.277782 0.966628 -0.044560
C103  C     C_R   0.483463 0.263959 0.040774 -0.037313
C104  C     C_R   0.984532 0.777782 0.966628 -0.044560
Cl1   Cl    Cl    0.849264 0.149734 0.446928 -0.323272
Cl2   Cl    Cl    0.398990 0.881215 0.935006 -0.433773
Cl3   Cl    Cl    0.179213 0.226734 0.099100 -0.497342
Cl4   Cl    Cl    0.898990 0.381215 0.935006 -0.433773
Cl5   Cl    Cl    0.658497 0.705724 0.937186 -0.474069
Cl6   Cl    Cl    0.380996 0.912979 0.097586 -0.438485
Cl7   Cl    Cl    0.158497 0.205725 0.937186 -0.474066
Cl8   Cl    Cl    0.880996 0.412979 0.097586 -0.438489
Cl9   Cl    Cl    0.444469 0.922375 0.396431 -0.316534
Cl10  Cl    Cl    0.429552 0.905019 0.556056 -0.345488
Cl11  Cl    Cl    0.944470 0.422374 0.396432 -0.316532
Cl12  Cl    Cl    0.167504 0.744829 0.628377 -0.605386
Cl13  Cl    Cl    0.929553 0.405018 0.556056 -0.345484
Cl14  Cl    Cl    0.467675 0.417520 0.573059 -0.327163
Cl15  Cl    Cl    0.497380 0.421026 0.414408 -0.366437
Cl16  Cl    Cl    0.967674 0.917520 0.573059 -0.327164
Cl17  Cl    Cl    0.997379 0.921026 0.414408 -0.366439
Cl18  Cl    Cl    0.349265 0.649734 0.446928 -0.323271
Cl19  Cl    Cl    0.667504 0.244830 0.628377 -0.605384
Cl20  Cl    Cl    0.626307 0.782982 0.579098 -0.344209
Cl21  Cl    Cl    0.288913 0.075389 0.380729 -0.468776
Cl22  Cl    Cl    0.126306 0.282985 0.579098 -0.344208
Cl23  Cl    Cl    0.788915 0.575388 0.380729 -0.468777
Cl24  Cl    Cl    0.679213 0.726734 0.099100 -0.497342
Cr1   Cr    Cr6+3 0.772000 0.169640 0.250110 1.193266
Cr2   Cr    Cr6+3 0.383330 0.010620 0.749160 1.178547
Cr3   Cr    Cr6+3 0.116670 0.510620 0.250840 1.201600
Cr4   Cr    Cr6+3 0.883330 0.510620 0.749160 1.178548
Cr5   Cr    Cr6+3 0.228000 0.169640 0.749890 1.168545
Cr6   Cr    Cr6+3 0.272000 0.669640 0.250110 1.193267
Cr7   Cr    Cr6+3 0.728000 0.669640 0.749890 1.168544
Cr8   Cr    Cr6+3 0.614960 0.323350 0.249260 1.138554
Cr9   Cr    Cr6+3 0.385040 0.323350 0.750740 1.103741
Cr10  Cr    Cr6+3 0.114960 0.823350 0.249260 1.138554
Cr11  Cr    Cr6+3 0.885040 0.823350 0.750740 1.103741
Cr12  Cr    Cr6+3 0.616670 0.010620 0.250840 1.201600
H1    H     H_    0.484850 0.416669 0.883890 0.169585
H2    H     H_    0.130194 0.659702 0.508896 0.365012
H3    H     H_    0.305130 0.619315 0.640588 0.354209
H4    H     H_    0.630196 0.159700 0.508896 0.365012
H5    H     H_    0.670926 0.780938 0.395444 0.374624
H6    H     H_    0.299870 0.145989 0.581232 0.312280
H7    H     H_    0.170922 0.280940 0.395447 0.374625
H8    H     H_    0.799865 0.645993 0.581231 0.312285
H9    H     H_    0.962559 0.113596 0.904765 0.357928
H10   H     H_    0.934456 0.052512 0.148127 0.338402
H11   H     H_    0.462559 0.613596 0.904765 0.357928
H12   H     H_    0.450032 0.348844 0.139406 0.128816
H13   H     H_    0.434456 0.552512 0.148127 0.338402
H14   H     H_    0.772564 0.108949 0.863123 0.341659
H15   H     H_    0.103608 0.987917 0.068747 0.389390
H16   H     H_    0.272564 0.608949 0.863123 0.341659
H17   H     H_    0.603607 0.487916 0.068746 0.389390
H18   H     H_    0.837206 0.176576 0.021501 0.430896
H19   H     H_    0.140039 0.860224 0.863572 0.329866
H20   H     H_    0.337206 0.676576 0.021501 0.430896
H21   H     H_    0.640039 0.360224 0.863572 0.329866
H22   H     H_    0.984850 0.916669 0.883890 0.169584
H23   H     H_    0.950032 0.848844 0.139406 0.128816
H24   H     H_    0.543966 0.879663 0.023905 0.411367
H25   H     H_    0.600149 0.944864 0.932065 0.346956
H26   H     H_    0.043964 0.379664 0.023906 0.411369
H27   H     H_    0.100149 0.444864 0.932065 0.346957
H28   H     H_    0.805130 0.119315 0.640588 0.354209
O1    O     O_R   0.787540 0.042690 0.170470 -0.466670
O2    O     O_R   0.454130 0.051100 0.669160 -0.427933
O3    O     O_R   0.045870 0.551100 0.330840 -0.440837
O4    O     O_R   0.954130 0.551100 0.669160 -0.427934
O5    O     O_R   0.681340 0.959300 0.325510 -0.474374
O6    O     O_R   0.318660 0.959300 0.674490 -0.489758
O7    O     O_R   0.181340 0.459300 0.325510 -0.474373
O8    O     O_R   0.818660 0.459300 0.674490 -0.489755
O9    O     O_3   0.667880 0.167870 0.250070 -0.368883
O10   O     O_3   0.332120 0.167870 0.749930 -0.346677
O11   O     O_3   0.167880 0.667870 0.250070 -0.368883
O12   O     O_R   0.212460 0.042690 0.829530 -0.440275
O13   O     O_3   0.832120 0.667870 0.749930 -0.346676
O14   O     O_R   0.765660 0.292160 0.175050 -0.420709
O15   O     O_R   0.234340 0.292160 0.824950 -0.440027
O16   O     O_R   0.265660 0.792160 0.175050 -0.420709
O17   O     O_R   0.734340 0.792160 0.824950 -0.440026
O18   O     O_R   0.670190 0.408980 0.168550 -0.475489
O19   O     O_R   0.329810 0.408980 0.831450 -0.514336
O20   O     O_R   0.170190 0.908980 0.168550 -0.475490
O21   O     O_R   0.829810 0.908980 0.831450 -0.514336
O22   O     O_R   0.556580 0.251450 0.175160 -0.517594
O23   O     O_R   0.287540 0.542690 0.170470 -0.466670
O24   O     O_R   0.443420 0.251450 0.824840 -0.543312
O25   O     O_R   0.056580 0.751450 0.175160 -0.517594
O26   O     O_R   0.943420 0.751450 0.824840 -0.543312
O27   O     O_R   0.545920 0.049510 0.170320 -0.405535
O28   O     O_R   0.454080 0.049510 0.829680 -0.388517
O29   O     O_R   0.045920 0.549510 0.170320 -0.405535
O30   O     O_R   0.954080 0.549510 0.829680 -0.388517
O31   O     O_R   0.681390 0.957840 0.176710 -0.437581
O32   O     O_R   0.318610 0.957840 0.823290 -0.460945
O33   O     O_R   0.181390 0.457840 0.176710 -0.437580
O34   O     O_R   0.712460 0.542690 0.829530 -0.440275
O35   O     O_R   0.818610 0.457840 0.823290 -0.460945
O36   O     O_R   0.787500 0.044280 0.330990 -0.453176
O37   O     O_R   0.212500 0.044280 0.669010 -0.457149
O38   O     O_R   0.287500 0.544280 0.330990 -0.453177
O39   O     O_R   0.712500 0.544280 0.669010 -0.457151
O40   O     O_R   0.765610 0.293630 0.323860 -0.440731
O41   O     O_R   0.234390 0.293630 0.676140 -0.465909
O42   O     O_R   0.265610 0.793630 0.323860 -0.440731
O43   O     O_R   0.734390 0.793630 0.676140 -0.465912
O44   O     O_R   0.670140 0.410570 0.329080 -0.438045
O45   O     O_R   0.556540 0.252920 0.323970 -0.471624
O46   O     O_R   0.329860 0.410570 0.670920 -0.471901
O47   O     O_R   0.170140 0.910570 0.329080 -0.438045
O48   O     O_R   0.829860 0.910570 0.670920 -0.471900
O49   O     O_3   0.556862 0.948647 0.055774 -0.610867
O50   O     O_3   0.560080 0.983854 0.907857 -0.624390
O51   O     O_3   0.056864 0.448648 0.055774 -0.610870
O52   O     O_3   0.060079 0.483852 0.907857 -0.624388
O53   O     O_3   0.827103 0.109000 0.593429 -0.538356
O54   O     O_3   0.150009 0.700269 0.466791 -0.752019
O55   O     O_3   0.327104 0.609000 0.593429 -0.538356
O56   O     O_R   0.443460 0.252920 0.676030 -0.433551
O57   O     O_3   0.650009 0.200269 0.466791 -0.752019
O58   O     O_3   0.643033 0.827330 0.430822 -0.544631
O59   O     O_3   0.299341 0.125518 0.530362 -0.680855
O60   O     O_3   0.143031 0.327336 0.430823 -0.544633
O61   O     O_3   0.799343 0.625516 0.530362 -0.680860
O62   O     O_3   0.955320 0.115601 0.956718 -0.553574
O63   O     O_3   0.937422 0.079916 0.098222 -0.569421
O64   O     O_3   0.455320 0.615601 0.956718 -0.553574
O65   O     O_3   0.437422 0.579916 0.098222 -0.569420
O66   O     O_3   0.795686 0.115998 0.910083 -0.665364
O67   O     O_R   0.056540 0.752920 0.323970 -0.471624
O68   O     O_3   0.111857 0.903930 0.050087 -0.647003
O69   O     O_3   0.295687 0.615998 0.910083 -0.665363
O70   O     O_3   0.611857 0.403930 0.050087 -0.647003
O71   O     O_3   0.801910 0.143110 0.054452 -0.625377
O72   O     O_3   0.126965 0.894296 0.910448 -0.638075
O73   O     O_3   0.301910 0.643110 0.054452 -0.625377
O74   O     O_3   0.626965 0.394296 0.910448 -0.638075
O75   O     O_R   0.943460 0.752920 0.676030 -0.433551
O76   O     O_R   0.545870 0.051100 0.330840 -0.440838

loop_
_geom_bond_atom_site_label_1
_geom_bond_atom_site_label_2
_ccdc_geom_bond_type
C70   Cl23  S    
H24   O49   S    
C14   Cl5   S    
Cr7   O43   S    
Cr1   O14   S    
C85   O44   A    
C45   O27   A    
C16   C21   A    
Cr6   O42   S    
C96   O7    A    
C55   C59   A    
C82   O23   A    
C34   C82   S    
Cr5   O41   S    
C57   C79   A    
C31   O74   S    
C36   C42   A    
C86   O41   A    
H28   O53   S    
C67   Cl20  S    
C81   O32   A    
C2    C83   A    
C27   O71   S    
C57   C62   A    
C1    O18   A    
Cr2   O6    S    
C90   O56   A    
Cr9   O56   S    
Cr3   O3    S    
C59   C64   A    
C21   C25   A    
C13   C18   A    
C48   O26   A    
C9    C61   A    
H9    O62   S    
C64   C68   A    
C95   O37   A    
Cr1   O1    S    
C36   C37   A    
C61   C103  A    
C95   O6    A    
C17   O19   A    
C13   C35   A    
Cr2   O28   S    
C28   O20   A    
H3    O55   S    
C71   C76   A    
C55   C77   A    
C92   O75   A    
Cr2   O32   S    
Cr5   O10   S    
Cr6   O38   S    
C32   C80   S    
C55   Cl12  S    
Cr10  O11   S    
Cr5   O37   S    
C91   O67   A    
C100  C104  A    
C56   C78   A    
Cr4   O8    S    
C6    C101  A    
C93   O5    A    
C75   O61   S    
C93   O36   A    
C17   O15   A    
C24   C29   A    
C74   O60   S    
Cr2   O10   S    
Cr8   O44   S    
C23   O66   S    
C11   C15   A    
C44   C53   A    
Cr5   O15   S    
C40   C43   A    
Cr9   O10   S    
C20   C24   A    
C29   C33   A    
C78   C96   S    
C8    C9    A    
C49   C51   A    
C88   O43   A    
C25   O69   S    
C51   Cl15  S    
H19   O72   S    
H7    O60   S    
C23   C27   A    
H20   O73   S    
Cr11  O75   S    
C29   O72   S    
C74   C78   A    
Cr11  O13   S    
Cr11  O26   S    
C42   C51   A    
Cr8   O18   S    
C3    C101  A    
C40   Cl13  S    
C46   C98   S    
C26   C31   A    
C97   O8    A    
C5    C98   A    
Cr1   O36   S    
C15   Cl6   S    
H14   O66   S    
Cr10  O67   S    
C80   O1    A    
C66   C85   S    
C13   Cl4   S    
C10   Cl24  S    
C36   Cl9   S    
C41   C49   A    
Cr12  O27   S    
C58   O53   S    
C47   O25   A    
Cr7   O34   S    
Cr6   O16   S    
Cr10  O20   S    
C15   C20   A    
C48   C100  S    
C63   C67   A    
Cr10  O47   S    
C7    C100  A    
C62   C66   A    
Cr12  O31   S    
C9    O65   S    
Cr7   O17   S    
C12   C16   A    
C65   C86   S    
C99   C103  A    
C45   C99   S    
C46   O24   A    
C3    C104  A    
C73   O59   S    
Cr1   O40   S    
C30   C34   A    
Cr12  O5    S    
C37   Cl10  S    
C72   C104  A    
C82   O33   A    
C68   C73   A    
C98   C102  A    
C80   O31   A    
Cr1   O9    S    
Cr8   O9    S    
C30   O73   S    
C17   C21   S    
H10   O63   S    
C56   C60   A    
C48   O30   A    
Cr12  O76   S    
C56   Cl18  S    
Cr6   O23   S    
Cr7   O39   S    
C19   C23   A    
C86   O46   A    
C38   C44   A    
C24   O68   S    
C59   O54   S    
C76   C93   S    
C57   Cl19  S    
Cr9   O24   S    
C2    O63   S    
C26   O70   S    
C96   O38   A    
C5    O50   S    
C2    C94   A    
Cr11  O48   S    
C35   C84   S    
C90   O2    A    
C11   Cl2   S    
Cr4   O30   S    
Cr12  O9    S    
C89   O76   A    
H13   O65   S    
C69   C74   A    
C97   O39   A    
H21   O74   S    
C44   C91   S    
C19   C39   S    
H25   O50   S    
C54   C76   A    
C7    O52   S    
C52   Cl16  S    
C84   O35   A    
C69   Cl22  S    
C50   C102  A    
Cr3   O33   S    
C3    C83   A    
Cr6   O11   S    
C71   O58   S    
C31   C35   A    
H4    O57   S    
Cr7   O13   S    
C12   C34   A    
C63   C88   S    
C60   O55   S    
C8    C50   A    
H27   O52   S    
C52   C53   A    
C94   O62   S    
C89   O45   A    
Cr8   O45   S    
C54   C58   A    
Cr10  O25   S    
C84   O34   A    
C25   C30   A    
C83   H23   S    
H6    O59   S    
Cr4   O35   S    
C72   H22   S    
C88   O48   A    
C54   Cl1   S    
Cr3   O29   S    
C27   C32   A    
C18   C22   A    
C14   C19   A    
C79   C97   S    
C47   O29   A    
C58   C63   A    
C81   O12   A    
C18   Cl8   S    
C4    C5    A    
Cr11  O21   S    
H11   O64   S    
C60   C65   A    
C12   Cl3   S    
C1    O14   A    
C50   H1    S    
Cr5   O12   S    
C46   O28   A    
C6    C7    A    
C11   C33   A    
H16   O69   S    
C62   O57   S    
C20   C28   S    
H5    O58   S    
H18   O71   S    
C43   C92   S    
C87   O47   A    
C91   O3    A    
C42   C89   S    
C28   O16   A    
C72   C94   A    
C53   Cl17  S    
C38   C40   A    
C38   Cl11  S    
C8    O64   S    
C66   C70   A    
C75   C79   A    
H15   O68   S    
C92   O4    A    
Cr4   O13   S    
C65   C69   A    
Cr3   O11   S    
H26   O51   S    
Cr3   O7    S    
C87   O42   A    
C77   C95   S    
C41   C90   S    
C67   C71   A    
C47   C101  S    
C37   C41   A    
C102  C103  A    
C43   C52   A    
C61   H12   S    
Cr9   O46   S    
C39   O17   A    
C49   Cl14  S    
C10   C32   A    
H17   O70   S    
C1    C22   S    
C6    O51   S    
C85   O40   A    
C4    O49   S    
C22   C26   A    
C4    C99   A    
Cr8   O22   S    
C70   C75   A    
C39   O21   A    
C73   C77   A    
Cr2   O2    S    
H8    O61   S    
Cr4   O4    S    
C33   C81   S    
C68   Cl21  S    
H2    O54   S    
C64   C87   S    
C45   O22   A    
C16   Cl7   S    
C10   C14   A    
Cr9   O19   S    
