data_mof_unit_14534.cif
_audit_creation_date              2012-10-26T20:17:38-0400
_audit_creation_method            fapswitch 2.2
_symmetry_space_group_name_H-M    P1
_symmetry_Int_Tables_number       1
_space_group_crystal_system       triclinic
_cell_length_a                    27.804975
_cell_length_b                    8.673846
_cell_length_c                    7.430173
_cell_angle_alpha                 103.282025
_cell_angle_beta                  94.024402
_cell_angle_gamma                 92.521495
_cell_volume                      1736.40718728

loop_
_atom_site_label
_atom_site_type_symbol
_atom_type_description
_atom_site_fract_x
_atom_site_fract_y
_atom_site_fract_z
_atom_type_partial_charge
C1    C     C_R   0.498475 0.199482 0.452922 0.548635
C2    C     C_R   0.868825 0.363169 0.444967 0.027699
C3    C     C_R   0.354778 0.480193 0.506976 0.012467
C4    C     C_R   0.645219 0.519768 0.492982 0.012512
C5    C     C_R   0.970927 0.354762 0.460120 0.019251
C6    C     C_R   0.029065 0.645456 0.539136 0.019247
C7    C     C_R   0.977847 0.648034 0.527023 0.019616
C8    C     C_R   0.022145 0.352182 0.472202 0.019618
C9    C     C_R   0.949121 0.502706 0.488353 0.033985
C10   C     C_R   0.050871 0.497512 0.510907 0.033986
C11   C     C_R   0.940395 0.213968 0.420202 -0.146631
C12   C     C_R   0.501527 0.800518 0.547078 0.548676
C13   C     C_R   0.059598 0.786252 0.579101 -0.146637
C14   C     C_R   0.890509 0.218548 0.414550 -0.113851
C15   C     C_R   0.109485 0.781674 0.584837 -0.113863
C16   C     C_R   0.407566 0.491046 0.501279 0.543282
C17   C     C_R   0.592434 0.508947 0.498719 0.543329
C18   C     C_R   0.045959 0.208714 0.447631 -0.145083
C19   C     C_R   0.954032 0.791497 0.551552 -0.145076
C20   C     C_2   0.497630 0.031367 0.426547 -0.158930
C21   C     C_2   0.502374 0.968634 0.573453 -0.158922
C22   C     C_R   0.175007 0.349875 0.508096 0.393926
C23   C     C_R   0.102104 0.494844 0.521038 -0.026327
C24   C     C_R   0.824983 0.650333 0.491239 0.393937
C25   C     C_R   0.181551 0.631479 0.554916 0.399987
C26   C     C_R   0.818447 0.368744 0.444611 0.399990
C27   C     C_R   0.285328 0.575808 0.670871 -0.071420
C28   C     C_R   0.714648 0.424151 0.328940 -0.071369
C29   C     C_R   0.335063 0.575501 0.660186 -0.166243
C30   C     C_R   0.664919 0.424352 0.339804 -0.166180
C31   C     C_R   0.323493 0.377893 0.365337 -0.029646
C32   C     C_R   0.676515 0.622261 0.634410 -0.029730
C33   C     C_R   0.273476 0.388415 0.372857 -0.047529
C34   C     C_R   0.897888 0.505374 0.478274 -0.026326
C35   C     C_R   0.726533 0.611939 0.626674 -0.047635
C36   C     C_R   0.254163 0.484865 0.525419 0.217956
C37   C     C_R   0.745831 0.515339 0.474174 0.217889
C38   C     C_3   0.340759 0.250485 0.210480 -0.269279
C39   C     C_3   0.325502 0.083534 0.231818 -0.292080
C40   C     C_3   0.344390 0.954958 0.081269 -0.448360
C41   C     C_3   0.659269 0.749766 0.789200 -0.269272
C42   C     C_3   0.674203 0.916660 0.766760 -0.292099
C43   C     C_3   0.655395 0.045379 0.917349 -0.448485
C44   C     C_R   0.124424 0.349932 0.497088 0.027577
C45   C     C_R   0.875567 0.650280 0.502195 0.027586
C46   C     C_R   0.095963 0.208078 0.460959 -0.117236
C47   C     C_R   0.904027 0.792132 0.538248 -0.117222
C48   C     C_R   0.131170 0.637054 0.554438 0.027682
Cu1   Cu    Cu3+1 0.505380 0.517380 0.684380 0.939066
Cu2   Cu    Cu3+1 0.494620 0.482620 0.315620 0.939073
H1    H     H_    0.462098 0.377979 0.948267 0.236523
H2    H     H_    0.271010 0.648847 0.791352 0.146023
H3    H     H_    0.868881 0.107337 0.384670 0.174282
H4    H     H_    0.131114 0.892888 0.614763 0.174289
H5    H     H_    0.953583 0.096983 0.391992 0.104924
H6    H     H_    0.046409 0.903237 0.607305 0.104939
H7    H     H_    0.027229 0.093540 0.417536 0.101397
H8    H     H_    0.972761 0.906669 0.581595 0.101386
H9    H     H_    0.493095 0.958974 0.285303 0.129646
H10   H     H_    0.506910 0.041027 0.714698 0.129644
H11   H     H_    0.330002 0.965652 0.941672 0.168337
H12   H     H_    0.537902 0.622022 0.051733 0.236511
H13   H     H_    0.384498 0.964940 0.090296 0.154613
H14   H     H_    0.332529 0.836140 0.100058 0.154956
H15   H     H_    0.340035 0.068956 0.369822 0.178879
H16   H     H_    0.285493 0.066585 0.222821 0.200550
H17   H     H_    0.325220 0.267284 0.074773 0.150178
H18   H     H_    0.380356 0.255764 0.206825 0.179974
H19   H     H_    0.615310 0.034907 0.909225 0.154697
H20   H     H_    0.670053 0.035306 0.056831 0.168199
H21   H     H_    0.667018 0.164168 0.897804 0.155086
H22   H     H_    0.714186 0.934060 0.774821 0.200731
H23   H     H_    0.249148 0.317968 0.260878 0.143341
H24   H     H_    0.659391 0.930602 0.628829 0.178584
H25   H     H_    0.619695 0.743924 0.793701 0.180016
H26   H     H_    0.675066 0.733653 0.924897 0.150131
H27   H     H_    0.750867 0.682631 0.738469 0.143518
H28   H     H_    0.112253 0.094877 0.439795 0.159988
H29   H     H_    0.887736 0.905330 0.559392 0.159979
H30   H     H_    0.641690 0.348208 0.228488 0.127917
H31   H     H_    0.358283 0.651490 0.771650 0.127947
H32   H     H_    0.728948 0.351005 0.208483 0.146126
N1    N     N_R   0.202586 0.489096 0.531863 -0.396326
N2    N     N_R   0.797407 0.511120 0.467613 -0.396304
N3    N     N_2   0.486510 0.456430 0.038510 -0.257443
N4    N     N_2   0.513490 0.543570 0.961490 -0.257457
O1    O     O_R   0.503500 0.286120 0.619780 -0.500540
O2    O     O_2   0.803533 0.788625 0.503641 -0.499305
O3    O     O_2   0.790839 0.233028 0.425076 -0.491455
O4    O     O_2   0.209168 0.767201 0.574628 -0.491435
O5    O     O_R   0.496500 0.713880 0.380220 -0.500538
O6    O     O_R   0.494410 0.256780 0.308360 -0.505495
O7    O     O_R   0.505590 0.743220 0.691640 -0.505458
O8    O     O_R   0.434810 0.514700 0.655690 -0.504190
O9    O     O_R   0.565190 0.485300 0.344310 -0.504189
O10   O     O_R   0.425720 0.485350 0.344280 -0.507690
O11   O     O_R   0.574280 0.514650 0.655720 -0.507734
O12   O     O_2   0.196454 0.211570 0.495607 -0.499296

loop_
_geom_bond_atom_site_label_1
_geom_bond_atom_site_label_2
_ccdc_geom_bond_type
C1    O1    A    
C22   O12   S    
C27   C29   A    
C41   C42   S    
Cu1   O1    S    
C12   O5    A    
C47   H29   S    
H1    N3    S    
N3    N4    D    
C26   O3    S    
C29   H31   S    
H12   N4    S    
C25   O4    S    
C40   H13   S    
C24   C45   A    
C35   C37   A    
C5    C11   A    
C38   C39   S    
C11   C14   A    
C19   C47   A    
Cu2   O9    S    
C36   N1    S    
C33   C36   A    
C3    C29   A    
Cu2   N3    S    
C22   C44   A    
C26   N2    A    
C32   C41   S    
C31   C33   A    
C37   N2    S    
C17   O9    A    
Cu1   O8    S    
C13   H6    S    
C30   H30   S    
C2    C34   A    
C43   H19   S    
C39   H15   S    
C15   C48   A    
C18   C46   A    
C44   C46   A    
C45   C47   A    
C19   H8    S    
C16   O10   A    
C42   H24   S    
C28   H32   S    
C15   H4    S    
C21   H10   S    
C39   C40   S    
C46   H28   S    
C12   C21   S    
C35   H27   S    
C8    C18   A    
C40   H11   S    
C32   C35   A    
C5    C9    A    
C41   H25   S    
C18   H7    S    
C42   H22   S    
C2    C26   A    
C34   C45   A    
C38   H17   S    
C20   H9    S    
C3    C31   A    
C24   O2    S    
C25   C48   A    
C4    C32   A    
C4    C17   S    
C33   H23   S    
C38   H18   S    
C43   H20   S    
C7    C19   A    
C13   C15   A    
C9    C34   A    
C10   C23   A    
C39   H16   S    
C12   O7    A    
C42   C43   S    
C11   H5    S    
C27   H2    S    
Cu2   O6    S    
C7    C9    A    
C1    C20   S    
C43   H21   S    
C23   C48   A    
Cu1   N4    S    
C6    C10   A    
C5    C8    A    
C6    C7    A    
C27   C36   A    
C1    O6    A    
C16   O8    A    
C40   H14   S    
C31   C38   S    
C22   N1    A    
C28   C30   A    
C24   N2    A    
C41   H26   S    
Cu2   O10   S    
C28   C37   A    
C2    C14   A    
C23   C44   A    
Cu1   O11   S    
Cu2   O5    S    
C14   H3    S    
C20   C21   D    
C8    C10   A    
Cu1   Cu2   S    
C25   N1    A    
Cu1   O7    S    
C17   O11   A    
C4    C30   A    
C3    C16   S    
C6    C13   A    
