data_mof_unit_61657.cif
_audit_creation_date              2012-12-10T17:09:41-0500
_audit_creation_method            fapswitch 2.2
_symmetry_space_group_name_H-M    P1
_symmetry_Int_Tables_number       1
_space_group_crystal_system       triclinic
_cell_length_a                    18.270847
_cell_length_b                    18.451879
_cell_length_c                    27.636405
_cell_angle_alpha                 90.025959
_cell_angle_beta                  89.782877
_cell_angle_gamma                 89.996892
_cell_volume                      9317.0336441

loop_
_atom_site_label
_atom_site_type_symbol
_atom_type_description
_atom_site_fract_x
_atom_site_fract_y
_atom_site_fract_z
_atom_type_partial_charge
C1    C     C_R   0.500110 0.000026 0.870807 0.512171
C2    C     C_1   0.500124 0.000072 0.775489 -0.035766
C3    C     C_R   0.297753 0.809595 0.495566 0.042026
C4    C     C_R   0.303143 0.750138 0.034659 -0.155757
C5    C     C_R   0.251477 0.304098 0.033843 -0.155271
C6    C     C_R   0.703256 0.243533 0.037771 -0.153907
C7    C     C_R   0.741547 0.688830 0.028017 -0.152228
C8    C     C_R   0.307833 0.254134 0.030819 -0.159381
C9    C     C_R   0.253514 0.693580 0.031965 -0.160234
C10   C     C_R   0.685992 0.739625 0.024759 -0.154827
C11   C     C_R   0.753024 0.300045 0.036281 -0.160021
C12   C     C_R   0.802647 0.250610 0.534902 -0.153951
C13   C     C_1   0.499951 0.999968 0.275520 -0.032649
C14   C     C_R   0.751982 0.804643 0.533451 -0.154665
C15   C     C_R   0.203219 0.743565 0.537762 -0.153504
C16   C     C_R   0.241621 0.188925 0.528159 -0.151903
C17   C     C_R   0.808341 0.754684 0.530400 -0.158974
C18   C     C_R   0.753043 0.194037 0.532267 -0.159456
C19   C     C_R   0.186046 0.239706 0.524907 -0.154530
C20   C     C_R   0.252981 0.800082 0.536262 -0.159551
C21   C     C_1   0.499978 0.000025 0.180932 0.013029
C22   C     C_1   0.999731 0.500035 0.180992 0.010497
C23   C     C_1   0.999977 0.500024 0.680932 0.013479
C24   C     C_1   0.000125 0.500067 0.275489 -0.036398
C25   C     C_1   0.499730 0.000038 0.680992 0.011254
C26   C     C_1   0.999957 0.499957 0.819092 0.010264
C27   C     C_1   0.500259 0.000060 0.819028 0.011269
C28   C     C_1   0.499959 0.999958 0.319092 0.010118
C29   C     C_1   0.000260 0.500056 0.319027 0.011336
C30   C     C_R   0.500000 0.000012 0.129083 0.502209
C31   C     C_R   0.999888 0.500007 0.129202 0.503396
C32   C     C_R   1.000000 0.500012 0.629083 0.502318
C33   C     C_R   0.999982 0.499985 0.870928 0.509801
C34   C     C_R   0.499888 0.000007 0.629202 0.503541
C35   C     C_R   0.638898 0.858050 0.997839 0.508539
C36   C     C_R   0.142480 0.638062 0.997859 0.536448
C37   C     C_R   0.361739 0.142265 0.997697 0.537717
C38   C     C_R   0.857654 0.361957 0.998344 0.542356
C39   C     C_R   0.642741 0.138229 0.001039 0.507717
C40   C     C_R   0.137610 0.357175 0.002183 0.506429
C41   C     C_R   0.357032 0.862312 0.001908 0.505087
C42   C     C_R   0.861900 0.642312 0.002257 0.504793
C43   C     C_R   0.138871 0.358033 0.497834 0.508636
C44   C     C_R   0.000110 0.500024 0.370807 0.511822
C45   C     C_R   0.642470 0.138068 0.497879 0.536227
C46   C     C_R   0.861745 0.642275 0.497686 0.536985
C47   C     C_R   0.357653 0.861956 0.498341 0.542345
C48   C     C_R   0.142748 0.638219 0.501048 0.507622
C49   C     C_R   0.637629 0.857195 0.502186 0.506121
C50   C     C_R   0.857026 0.362311 0.501867 0.503396
C51   C     C_R   0.361887 0.142308 0.502248 0.504696
C52   C     C_R   0.210276 0.878007 0.948666 0.119899
C53   C     C_R   0.117243 0.209946 0.952555 0.124531
C54   C     C_R   0.776189 0.137582 0.931143 0.156298
C55   C     C_R   0.499983 0.999985 0.370928 0.509537
C56   C     C_R   0.891930 0.798628 0.972112 0.110433
C57   C     C_R   0.252830 0.165472 0.914665 0.123584
C58   C     C_R   0.168463 0.741457 0.913336 0.123436
C59   C     C_R   0.766859 0.852294 0.924945 0.111328
C60   C     C_R   0.814867 0.280685 0.908144 0.133930
C61   C     C_R   0.710962 0.377262 0.447458 0.159196
C62   C     C_R   0.616604 0.709025 0.453755 0.122825
C63   C     C_R   0.276336 0.637438 0.431266 0.156331
C64   C     C_R   0.391653 0.298374 0.471574 0.112193
C65   C     C_R   0.751691 0.664049 0.415303 0.127455
C66   C     C_1   0.499960 0.000002 0.224508 -0.032689
C67   C     C_R   0.669418 0.240248 0.412918 0.134136
C68   C     C_R   0.266302 0.351793 0.424602 0.111788
C69   C     C_R   0.314995 0.780516 0.408175 0.133928
C70   C     C_R   0.171421 0.872442 0.904907 0.127322
C71   C     C_R   0.120140 0.170658 0.908911 0.134654
C72   C     C_R   0.805327 0.153977 0.885285 0.133681
C73   C     C_R   0.899017 0.852743 0.936570 0.153929
C74   C     C_R   0.188229 0.153795 0.888120 0.119712
C75   C     C_R   0.155317 0.803972 0.885623 0.114909
C76   C     C_R   0.837353 0.876772 0.911043 0.156359
C77   C     C_1   0.999859 0.500057 0.224534 -0.036586
C78   C     C_R   0.820336 0.226392 0.872716 0.089178
C79   C     C_R   0.672714 0.371289 0.403682 0.132354
C80   C     C_R   0.618871 0.668169 0.410723 0.142373
C81   C     C_R   0.305561 0.653757 0.385421 0.134011
C82   C     C_R   0.398547 0.352091 0.435764 0.156102
C83   C     C_R   0.686636 0.650852 0.389631 0.136730
C84   C     C_R   0.656558 0.302299 0.384660 0.078166
C85   C     C_R   0.336721 0.376066 0.410386 0.157022
C86   C     C_R   0.320552 0.726155 0.372799 0.089120
C87   C     C_R   0.200854 0.748041 0.959744 0.011794
C88   C     C_1   0.999959 0.500000 0.724508 -0.032287
C89   C     C_R   0.248849 0.198938 0.960919 0.013908
C90   C     C_R   0.790457 0.262682 0.955419 0.011637
C91   C     C_R   0.759644 0.808049 0.966872 -0.012647
C92   C     C_R   0.183683 0.235230 0.973451 -0.010379
C93   C     C_R   0.236036 0.813630 0.971385 -0.009976
C94   C     C_R   0.821566 0.769092 0.982088 -0.003156
C95   C     C_R   0.756196 0.195243 0.962984 -0.023568
C96   C     C_R   0.701308 0.247527 0.459426 0.011009
C97   C     C_R   0.748406 0.698484 0.461234 0.012749
C98   C     C_R   0.290532 0.762590 0.455451 0.011557
C99   C     C_1   0.499859 0.000061 0.724534 -0.035617
C100  C     C_R   0.259355 0.307791 0.466662 -0.012821
C101  C     C_R   0.683365 0.734877 0.473923 -0.012045
C102  C     C_R   0.736421 0.313247 0.470805 -0.023090
C103  C     C_R   0.321361 0.268931 0.481832 -0.003678
C104  C     C_R   0.256279 0.695155 0.463047 -0.023644
C105  C     C_R   0.295973 0.810358 0.004188 0.009902
C106  C     C_R   0.189301 0.296201 0.004900 0.008973
C107  C     C_R   0.703609 0.190550 0.001473 0.006777
C108  C     C_R   0.809442 0.702224 0.006092 0.015519
C109  C     C_R   0.307293 0.200699 0.994737 0.038261
C110  C     C_1   0.999949 0.499965 0.775520 -0.032439
C111  C     C_R   0.201479 0.691914 0.994889 0.039157
C112  C     C_R   0.694053 0.800019 0.994473 0.010043
C113  C     C_R   0.797744 0.309613 0.995566 0.042115
C114  C     C_R   0.795911 0.310411 0.504027 0.007088
C115  C     C_R   0.689390 0.796293 0.504942 0.009341
C116  C     C_R   0.203628 0.690525 0.501499 0.006726
C117  C     C_R   0.309399 0.202208 0.506047 0.015236
C118  C     C_R   0.807324 0.700745 0.494668 0.038324
C119  C     C_R   0.701484 0.191893 0.494920 0.039450
C120  C     C_R   0.193950 0.299942 0.494458 0.010052
H1    H     H_    0.346594 0.747109 0.061139 0.148053
H2    H     H_    0.757152 0.849429 0.558561 0.149164
H3    H     H_    0.165572 0.740325 0.568066 0.147125
H4    H     H_    0.231631 0.139522 0.548284 0.148279
H5    H     H_    0.853429 0.759210 0.555557 0.148848
H6    H     H_    0.755824 0.151412 0.559135 0.146066
H7    H     H_    0.136147 0.230814 0.545345 0.148083
H8    H     H_    0.256061 0.836648 0.566868 0.144188
H9    H     H_    0.243933 0.983206 0.953727 0.269488
H10   H     H_    0.230136 0.942409 0.008444 0.239437
H11   H     H_    0.011926 0.245207 0.959313 0.270533
H12   H     H_    0.256309 0.348521 0.059269 0.148761
H13   H     H_    0.055319 0.233740 0.013254 0.235758
H14   H     H_    0.746987 0.030814 0.929601 0.290246
H15   H     H_    0.775706 0.060291 0.985298 0.238734
H16   H     H_    0.992661 0.754194 0.982209 0.268625
H17   H     H_    0.939669 0.754306 0.033122 0.231540
H18   H     H_    0.323981 0.098893 0.880150 0.272136
H19   H     H_    0.326222 0.185981 0.861435 0.237902
H20   H     H_    0.103552 0.668032 0.879915 0.278193
H21   H     H_    0.191835 0.667201 0.861709 0.236506
H22   H     H_    0.721731 0.844337 0.858458 0.222696
H23   H     H_    0.665655 0.240246 0.068098 0.146476
H24   H     H_    0.662534 0.829381 0.902141 0.228586
H25   H     H_    0.878843 0.359482 0.879503 0.276273
H26   H     H_    0.788554 0.368722 0.868236 0.238474
H27   H     H_    0.744000 0.482654 0.451592 0.285180
H28   H     H_    0.730144 0.442917 0.506733 0.227302
H29   H     H_    0.511570 0.744970 0.460628 0.269942
H30   H     H_    0.555465 0.734566 0.514501 0.235874
H31   H     H_    0.247125 0.530668 0.429748 0.290116
H32   H     H_    0.275670 0.560217 0.485465 0.238815
H33   H     H_    0.492544 0.254260 0.481684 0.269129
H34   H     H_    0.731439 0.639309 0.047988 0.147711
H35   H     H_    0.439704 0.254627 0.532667 0.231448
H36   H     H_    0.822874 0.597553 0.380692 0.277508
H37   H     H_    0.823513 0.684208 0.361097 0.235446
H38   H     H_    0.604735 0.166265 0.379829 0.279804
H39   H     H_    0.693181 0.165055 0.361967 0.237432
H40   H     H_    0.220614 0.343632 0.358293 0.222446
H41   H     H_    0.161751 0.328946 0.402212 0.228241
H42   H     H_    0.378945 0.859306 0.379498 0.276379
H43   H     H_    0.288663 0.868453 0.368175 0.238397
H44   H     H_    0.115825 0.967257 0.901692 0.266366
H45   H     H_    0.352559 0.258272 0.056286 0.148515
H46   H     H_    0.196576 0.965962 0.871219 0.236511
H47   H     H_    0.023145 0.194768 0.877570 0.235233
H48   H     H_    0.024340 0.115400 0.908437 0.260506
H49   H     H_    0.790057 0.104556 0.820577 0.231933
H50   H     H_    0.876032 0.097190 0.843247 0.237711
H51   H     H_    0.003969 0.840269 0.914733 0.243321
H52   H     H_    0.990865 0.906384 0.956385 0.256626
H53   H     H_    0.170008 0.162071 0.816379 0.250422
H54   H     H_    0.160136 0.077630 0.838746 0.261113
H55   H     H_    0.158907 0.821430 0.813472 0.252899
H56   H     H_    0.256666 0.650586 0.058550 0.146160
H57   H     H_    0.074120 0.825930 0.838134 0.264013
H58   H     H_    0.797974 0.944981 0.858000 0.260534
H59   H     H_    0.874893 0.971558 0.884512 0.280010
H60   H     H_    0.804775 0.228897 0.800180 0.234561
H61   H     H_    0.893184 0.217501 0.817423 0.234640
H62   H     H_    0.675334 0.435781 0.344437 0.223365
H63   H     H_    0.594466 0.435917 0.374841 0.250342
H64   H     H_    0.521174 0.690663 0.379796 0.231814
H65   H     H_    0.523330 0.612478 0.411950 0.266254
H66   H     H_    0.290454 0.604195 0.320744 0.231528
H67   H     H_    0.635974 0.730610 0.045045 0.147612
H68   H     H_    0.376386 0.596930 0.343499 0.236168
H69   H     H_    0.503185 0.338988 0.413458 0.237259
H70   H     H_    0.490832 0.405523 0.454939 0.263109
H71   H     H_    0.665723 0.654516 0.318001 0.244016
H72   H     H_    0.659262 0.571136 0.342771 0.270646
H73   H     H_    0.660808 0.317149 0.312098 0.234954
H74   H     H_    0.575560 0.322604 0.336428 0.240816
H75   H     H_    0.297018 0.444224 0.357425 0.260620
H76   H     H_    0.374383 0.470543 0.383453 0.279005
H77   H     H_    0.305104 0.728510 0.300251 0.234375
H78   H     H_    0.756155 0.336560 0.066911 0.143308
H79   H     H_    0.393491 0.717195 0.317564 0.233778
H80   H     H_    0.845726 0.247946 0.561665 0.148194
N1    N     N_3   0.210895 0.947044 0.973025 -0.621370
N2    N     N_3   0.548382 0.712837 0.479917 -0.617761
N3    N     N_3   0.283995 0.564028 0.448115 -0.590023
N4    N     N_3   0.454112 0.283712 0.501656 -0.628369
N5    N     N_3   0.820892 0.651619 0.391995 -0.589700
N6    N     N_3   0.658694 0.169787 0.392080 -0.588920
N7    N     N_3   0.205237 0.362781 0.392474 -0.587742
N8    N     N_3   0.326742 0.854791 0.394803 -0.597775
N9    N     N_3   0.149438 0.936100 0.879128 -0.630600
N10   N     N_3   0.054296 0.148569 0.884950 -0.639065
N11   N     N_3   0.820362 0.096170 0.852072 -0.638301
N12   N     N_3   0.048705 0.212783 0.978415 -0.619313
N13   N     N_3   0.969432 0.882665 0.925134 -0.604000
N14   N     N_3   0.192496 0.124210 0.840210 -0.639762
N15   N     N_3   0.123464 0.797270 0.838491 -0.632723
N16   N     N_3   0.847840 0.925892 0.871154 -0.586519
N17   N     N_3   0.844598 0.245267 0.824933 -0.649070
N18   N     N_3   0.651303 0.435991 0.378808 -0.616564
N19   N     N_3   0.552689 0.644896 0.387679 -0.636669
N20   N     N_3   0.320698 0.595892 0.352274 -0.638842
N21   N     N_3   0.468945 0.381619 0.423890 -0.617454
N22   N     N_3   0.690124 0.618746 0.342437 -0.633175
N23   N     N_3   0.783908 0.064153 0.947938 -0.591255
N24   N     N_3   0.625080 0.294343 0.337482 -0.648542
N25   N     N_3   0.346958 0.424940 0.370334 -0.591543
N26   N     N_3   0.344878 0.744949 0.325016 -0.649245
N27   N     N_3   0.954250 0.783594 0.002232 -0.629803
N28   N     N_3   0.322421 0.152727 0.891964 -0.589440
N29   N     N_3   0.157615 0.671362 0.891992 -0.590519
N30   N     N_3   0.706044 0.863324 0.892619 -0.587836
N31   N     N_3   0.826655 0.354977 0.894831 -0.597835
N32   N     N_3   0.711100 0.446742 0.471224 -0.575413
O1    O     O_3   0.500000 0.000000 0.000010 -0.434683
O2    O     O_R   0.500000 0.939270 0.393730 -0.544133
O3    O     O_R   0.060730 0.500000 0.393730 -0.525193
O4    O     O_R   0.500000 0.060730 0.393730 -0.538713
O5    O     O_R   0.500000 0.939240 0.106280 -0.536419
O6    O     O_R   0.060760 0.500000 0.106280 -0.537947
O7    O     O_R   0.500000 0.060760 0.106280 -0.537574
O8    O     O_R   0.939240 0.500000 0.106280 -0.538976
O9    O     O_R   0.000000 0.439240 0.606280 -0.536371
O10   O     O_R   0.560760 0.000000 0.606280 -0.537982
O11   O     O_R   0.000000 0.560760 0.606280 -0.537307
O12   O     O_3   0.000000 0.500000 0.000010 -0.432788
O13   O     O_R   0.439240 0.000000 0.606280 -0.538406
O14   O     O_R   0.646170 0.914530 0.972140 -0.523933
O15   O     O_R   0.085470 0.646170 0.972140 -0.541833
O16   O     O_R   0.353830 0.085470 0.972140 -0.537572
O17   O     O_R   0.914530 0.353830 0.972140 -0.542878
O18   O     O_R   0.646170 0.085470 0.972140 -0.557043
O19   O     O_R   0.085470 0.353830 0.972140 -0.551020
O20   O     O_R   0.353830 0.914530 0.972140 -0.554053
O21   O     O_R   0.914530 0.646170 0.972140 -0.545239
O22   O     O_R   0.146170 0.414530 0.472140 -0.523888
O23   O     O_3   0.000000 0.500000 0.500010 -0.435350
O24   O     O_R   0.585470 0.146170 0.472140 -0.542258
O25   O     O_R   0.853830 0.585470 0.472140 -0.536811
O26   O     O_R   0.414530 0.853830 0.472140 -0.542934
O27   O     O_R   0.146170 0.585470 0.472140 -0.557188
O28   O     O_R   0.585470 0.853830 0.472140 -0.551155
O29   O     O_R   0.853830 0.414530 0.472140 -0.556414
O30   O     O_R   0.414530 0.146170 0.472140 -0.545432
O31   O     O_R   0.414540 0.146130 0.027870 -0.548139
O32   O     O_R   0.853870 0.414540 0.027870 -0.548089
O33   O     O_R   0.585460 0.853870 0.027870 -0.545065
O34   O     O_3   0.500000 0.000000 0.500010 -0.432908
O35   O     O_R   0.146130 0.585460 0.027870 -0.548822
O36   O     O_R   0.414540 0.853870 0.027870 -0.543690
O37   O     O_R   0.853870 0.585460 0.027870 -0.545344
O38   O     O_R   0.585460 0.146130 0.027870 -0.538495
O39   O     O_R   0.146130 0.414540 0.027870 -0.542844
O40   O     O_R   0.914540 0.646130 0.527870 -0.548303
O41   O     O_R   0.353870 0.914540 0.527870 -0.547808
O42   O     O_R   0.085460 0.353870 0.527870 -0.545036
O43   O     O_R   0.646130 0.085460 0.527870 -0.548687
O44   O     O_R   0.914540 0.353870 0.527870 -0.542877
O45   O     O_R   0.439270 1.000000 0.893730 -0.545020
O46   O     O_R   0.353870 0.085460 0.527870 -0.545054
O47   O     O_R   0.085460 0.646130 0.527870 -0.538443
O48   O     O_R   0.646130 0.914540 0.527870 -0.542829
O49   O     O_R   0.000000 0.439270 0.893730 -0.544207
O50   O     O_R   0.560730 1.000000 0.893730 -0.524817
O51   O     O_R   0.000000 0.560730 0.893730 -0.538451
O52   O     O_R   0.939270 0.500000 0.393730 -0.543300
Zn1   Zn    Zn3+2 0.500000 0.913210 0.039810 0.937096
Zn2   Zn    Zn3+2 0.000000 0.586760 0.960200 0.933364
Zn3   Zn    Zn3+2 0.413240 0.000000 0.960200 0.923549
Zn4   Zn    Zn3+2 0.000000 0.413240 0.960200 0.927641
Zn5   Zn    Zn3+2 0.086760 0.500000 0.460200 0.942668
Zn6   Zn    Zn3+2 0.500000 0.086760 0.460200 0.933257
Zn7   Zn    Zn3+2 0.913240 0.500000 0.460200 0.928301
Zn8   Zn    Zn3+2 0.500000 0.913240 0.460200 0.927619
Zn9   Zn    Zn3+2 0.086790 0.500000 0.039810 0.940065
Zn10  Zn    Zn3+2 0.500000 0.086790 0.039810 0.943271
Zn11  Zn    Zn3+2 0.913210 0.500000 0.039810 0.940648
Zn12  Zn    Zn3+2 0.000000 0.413210 0.539810 0.937419
Zn13  Zn    Zn3+2 0.586790 1.000000 0.539810 0.940292
Zn14  Zn    Zn3+2 0.000000 0.586790 0.539810 0.943428
Zn15  Zn    Zn3+2 0.413210 1.000000 0.539810 0.941615
Zn16  Zn    Zn3+2 0.586760 0.000000 0.960200 0.942942

loop_
_geom_bond_atom_site_label_1
_geom_bond_atom_site_label_2
_ccdc_geom_bond_type
C64   C103  A    
C33   O51   A    
C96   C102  A    
O10   Zn13  S    
C90   C95   A    
O47   Zn14  S    
C41   C105  S    
C49   O28   A    
C38   O17   A    
O27   Zn5   S    
H49   N11   S    
C9    H56   S    
C52   N1    S    
C104  C116  A    
C57   N28   S    
H59   N16   S    
C37   C109  S    
C81   C86   A    
C39   O38   A    
C25   C34   S    
H26   N31   S    
C62   C101  A    
C69   C98   A    
C64   N4    S    
H20   N29   S    
C74   N14   S    
C103  C117  A    
C80   C83   A    
C15   C20   A    
C51   O30   A    
H37   N5    S    
H47   N10   S    
C6    C11   A    
C40   O19   A    
C63   C104  A    
C49   O48   A    
C81   N20   S    
H66   N20   S    
H19   N28   S    
C50   C114  S    
C1    O45   A    
C102  C114  A    
C36   C111  S    
C59   C91   A    
C17   C118  A    
C92   C106  A    
C49   C115  S    
C19   C120  A    
C29   C44   S    
C101  C115  A    
C53   C71   A    
C69   N8    S    
C46   O40   A    
C56   C73   A    
O23   Zn12  S    
C5    C8    A    
C60   C90   A    
C82   C85   A    
H15   N23   S    
C16   H4    S    
C91   C94   A    
C3    C98   A    
C54   N23   S    
O11   Zn14  S    
C75   N15   S    
O31   Zn10  S    
C11   C113  A    
O37   Zn11  S    
C24   C77   S    
H41   N7    S    
O34   Zn8   S    
O43   Zn13  S    
C50   O29   A    
C31   O8    A    
O28   Zn8   S    
O12   Zn2   S    
C21   C66   T    
C60   N31   S    
H57   N15   S    
C55   O4    A    
O9    Zn12  S    
C43   O42   A    
C60   C78   A    
C63   N3    S    
C62   C80   A    
C78   N17   S    
C79   C84   A    
O44   Zn12  S    
H22   N30   S    
C65   N5    S    
C47   O26   A    
H43   N8    S    
C61   N32   S    
O1    Zn10  S    
C72   C78   A    
H73   N24   S    
O39   Zn9   S    
H32   N3    S    
O32   Zn11  S    
O33   Zn1   S    
C48   C116  S    
H9    N1    S    
H77   N26   S    
O49   Zn4   S    
O51   Zn2   S    
C68   C85   A    
C14   C17   A    
H60   N17   S    
C12   C114  A    
C13   C66   S    
H75   N25   S    
O21   Zn2   S    
O8    Zn11  S    
C18   C119  A    
C91   C112  A    
C68   C100  A    
O38   Zn10  S    
C26   C33   S    
C12   H80   S    
C52   C93   A    
O34   Zn6   S    
C35   O33   A    
C54   C95   A    
C31   O6    A    
C2    C99   S    
O12   Zn4   S    
C23   C88   T    
H61   N17   S    
C85   N25   S    
C55   O2    A    
O40   Zn14  S    
O25   Zn7   S    
C40   C106  S    
O26   Zn8   S    
H76   N25   S    
H42   N8    S    
O34   Zn15  S    
O3    Zn5   S    
O16   Zn3   S    
C43   C120  S    
H58   N16   S    
C11   H78   S    
H72   N22   S    
H17   N27   S    
C18   H6    S    
C7    H34   S    
C61   C79   A    
C53   N12   S    
C87   C93   A    
C3    C47   S    
C51   C117  S    
H79   N26   S    
C8    H45   S    
C70   C75   A    
C36   O15   A    
C4    C9    A    
C59   C76   A    
C35   C112  S    
C7    C10   A    
C14   H2    S    
O36   Zn1   S    
C96   C119  A    
O5    Zn1   S    
C80   N19   S    
O7    Zn10  S    
C56   C94   A    
O45   Zn3   S    
C57   C89   A    
H24   N30   S    
O12   Zn9   S    
C72   N11   S    
C87   C111  A    
H21   N29   S    
C14   C115  A    
C44   O52   A    
C46   C118  S    
O35   Zn9   S    
O42   Zn12  S    
C24   C29   T    
C62   N2    S    
C25   C99   T    
O1    Zn1   S    
O17   Zn4   S    
C6    C107  A    
C13   C28   T    
C10   C112  A    
C2    C27   T    
H28   N32   S    
O2    Zn8   S    
C88   C110  S    
C45   C119  S    
H25   N31   S    
O34   Zn13  S    
O48   Zn13  S    
C73   N13   S    
O15   Zn2   S    
C5    C106  A    
H68   N20   S    
H38   N6    S    
H48   N10   S    
C84   N24   S    
C44   O3    A    
C38   C113  S    
C42   O21   A    
C45   O43   A    
C100  C103  A    
H54   N14   S    
H55   N15   S    
O41   Zn15  S    
H27   N32   S    
C76   N16   S    
O46   Zn15  S    
H44   N9    S    
C34   O13   A    
C3    C20   A    
O23   Zn14  S    
H36   N5    S    
H10   N1    S    
C95   C107  A    
C43   O22   A    
H16   N27   S    
C36   O35   A    
O19   Zn4   S    
H30   N2    S    
H52   N13   S    
O20   Zn3   S    
C48   O47   A    
C35   O14   A    
C56   N27   S    
C22   C77   T    
C71   C74   A    
O12   Zn11  S    
C21   C30   S    
C23   C32   S    
H53   N14   S    
C16   C117  A    
O1    Zn3   S    
C16   C19   A    
O29   Zn7   S    
C41   O20   A    
C4    H1    S    
C45   O24   A    
H51   N13   S    
O23   Zn5   S    
H14   N23   S    
C15   C116  A    
C41   O36   A    
O4    Zn6   S    
C9    C111  A    
C48   O27   A    
O1    Zn16  S    
C32   O9    A    
C34   O10   A    
C30   O7    A    
C58   C87   A    
O24   Zn6   S    
O50   Zn16  S    
C82   N21   S    
C39   C107  S    
C39   O18   A    
C94   C108  A    
C37   O16   A    
C15   H3    S    
C63   C81   A    
C20   H8    S    
H46   N9    S    
C1    O50   A    
O6    Zn9   S    
H69   N21   S    
C65   C83   A    
C89   C109  A    
C90   C113  A    
C97   C118  A    
C93   C105  A    
C83   N22   S    
H64   N19   S    
H50   N11   S    
O52   Zn7   S    
O23   Zn7   S    
C100  C120  A    
O22   Zn5   S    
C26   C110  T    
H33   N4    S    
C46   O25   A    
C67   C84   A    
C68   N7    S    
C28   C55   S    
C58   C75   A    
C5    H12   S    
C33   O49   A    
C22   C31   S    
H70   N21   S    
C79   N18   S    
O30   Zn6   S    
C51   O46   A    
C57   C74   A    
C37   O31   A    
C38   O32   A    
O13   Zn15  S    
O14   Zn16  S    
C71   N10   S    
C53   C92   A    
C10   H67   S    
C89   C92   A    
H18   N28   S    
C67   N6    S    
H71   N22   S    
C64   C82   A    
H62   N18   S    
H63   N18   S    
O18   Zn16  S    
C32   O11   A    
C67   C96   A    
C86   N26   S    
C30   O5    A    
C50   O44   A    
H35   N4    S    
H39   N6    S    
H74   N24   S    
C40   O39   A    
H13   N12   S    
H65   N19   S    
H31   N3    S    
C47   O41   A    
C4    C105  A    
C42   O37   A    
C61   C102  A    
C65   C97   A    
C58   N29   S    
C8    C109  A    
H40   N7    S    
C17   H5    S    
C98   C104  A    
H29   N2    S    
C19   H7    S    
C73   C76   A    
C52   C70   A    
C54   C72   A    
C12   C18   A    
H11   N12   S    
C1    C27   S    
C70   N9    S    
C7    C108  A    
C6    H23   S    
C59   N30   S    
C42   C108  S    
C97   C101  A    
C69   C86   A    
