data_mof_unit_6134.cif
_audit_creation_date              2012-12-10T17:05:24-0500
_audit_creation_method            fapswitch 2.2
_symmetry_space_group_name_H-M    P1
_symmetry_Int_Tables_number       1
_space_group_crystal_system       triclinic
_cell_length_a                    10.152999
_cell_length_b                    10.66183
_cell_length_c                    15.165989
_cell_angle_alpha                 90.535726
_cell_angle_beta                  68.666028
_cell_angle_gamma                 91.49344
_cell_volume                      1528.69485243

loop_
_atom_site_label
_atom_site_type_symbol
_atom_type_description
_atom_site_fract_x
_atom_site_fract_y
_atom_site_fract_z
_atom_type_partial_charge
C1    C     C_R   0.502702 0.737103 0.498541 0.921233
C2    C     C_R   0.713586 0.543814 0.024711 0.042695
C3    C     C_R   0.585590 0.592283 0.087342 0.023707
C4    C     C_R   0.411614 0.501321 0.675985 0.869139
C5    C     C_R   0.785582 0.458261 0.060735 -0.043837
C6    C     C_R   0.750378 0.448365 0.159428 -0.068388
C7    C     C_R   0.564596 0.599861 0.183584 -0.082859
C8    C     C_2   0.625241 0.070506 0.448127 -0.179005
C9    C     C_2   0.504170 0.131895 0.476021 -0.347413
C10   C     C_2   0.622257 0.935101 0.439611 0.021105
C11   C     C_2   0.509229 0.870146 0.497839 -0.332610
C12   C     C_R   0.399291 0.590576 0.917084 0.061419
C13   C     C_2   0.039488 0.445131 0.562088 -0.120277
C14   C     C_2   0.898318 0.428199 0.550729 -0.138028
C15   C     C_R   0.500913 0.262974 0.494816 0.941695
C16   C     C_R   0.588464 0.504042 0.323855 0.869311
C17   C     C_R   0.357644 0.512954 0.778917 -0.140356
C18   C     C_R   0.641093 0.521725 0.220919 -0.149558
C19   C     C_R   0.202389 0.446408 0.935095 -0.216003
C20   C     C_R   0.251054 0.431008 0.836812 -0.010629
C21   C     C_R   0.422573 0.601127 0.820305 -0.088622
C22   C     C_1   0.856098 0.354636 0.001524 0.151465
C23   C     C_R   0.274835 0.527441 0.975707 0.127091
C24   C     C_1   0.741598 0.876280 0.368512 0.227956
C25   C     C_1   0.913333 0.618404 0.476320 0.342598
C26   C     C_1   0.473135 0.695350 0.241712 0.180474
C27   C     C_1   0.820051 0.357677 0.197232 0.179003
C28   C     C_1   0.895676 0.561307 0.860992 0.178893
C29   C     C_1   0.195031 0.328888 0.796605 0.208872
C30   C     C_1   0.502422 0.707526 0.765776 0.171424
C31   C     C_R   0.507509 0.613285 0.953835 0.057199
C32   C     C_R   0.474126 0.605689 0.053080 0.079068
C33   C     C_R   0.332786 0.577580 0.112519 -0.187326
C34   C     C_R   0.236134 0.532503 0.073717 -0.206754
C35   C     C_R   0.650954 0.610839 0.893561 -0.243699
C36   C     C_R   0.752548 0.570235 0.927555 -0.014843
H1    H     H_    0.136494 0.491221 0.119976 0.158596
H2    H     H_    0.683565 0.618981 0.817700 0.166962
H3    H     H_    0.726497 0.119262 0.433019 0.186801
H4    H     H_    0.404857 0.086079 0.480970 0.168355
H5    H     H_    0.419905 0.914892 0.550572 0.147910
H6    H     H_    0.051492 0.404936 0.624094 0.179391
H7    H     H_    0.141970 0.516414 0.434186 0.180339
H8    H     H_    0.829587 0.352192 0.590105 0.164801
H9    H     H_    0.119861 0.385260 0.980528 0.158518
H10   H     H_    0.302062 0.566829 0.188166 0.159753
N1    N     N_2   0.148330 0.498670 0.499030 -0.186337
N2    N     N_1   0.565815 0.792364 0.722261 -0.186764
N3    N     N_2   0.852680 0.498640 0.499000 -0.148274
N4    N     N_1   0.908490 0.269659 0.955242 -0.184776
N5    N     N_1   0.836585 0.829405 0.311395 -0.186867
N6    N     N_1   0.963289 0.718094 0.457672 -0.218512
N7    N     N_1   0.400506 0.771547 0.287942 -0.180978
N8    N     N_1   0.875633 0.285345 0.227393 -0.199342
N9    N     N_1   0.009630 0.556645 0.806113 -0.192290
N10   N     N_1   0.151097 0.247182 0.763742 -0.191050
O1    O     O_R   0.386950 0.680940 0.500010 -0.590651
O2    O     O_R   0.613110 0.680900 0.499990 -0.604818
O3    O     O_R   0.322330 0.500030 0.632270 -0.592273
O4    O     O_R   0.548480 0.499990 0.632240 -0.608050
O5    O     O_R   0.386890 0.319100 0.500010 -0.606612
O6    O     O_R   0.613050 0.319060 0.499990 -0.609908
O7    O     O_R   0.451520 0.500010 0.367760 -0.610268
O8    O     O_R   0.677670 0.499970 0.367730 -0.602231
Zn1   Zn    Zn3+2 0.349000 0.500030 0.500020 0.974043
Zn2   Zn    Zn3+2 0.651000 0.499970 0.499980 0.970396

loop_
_geom_bond_atom_site_label_1
_geom_bond_atom_site_label_2
_ccdc_geom_bond_type
C30   N2    T    
C19   C23   A    
O7    Zn1   S    
C16   O7    A    
C1    O1    A    
C34   H1    S    
C21   C30   S    
C19   C20   A    
C6    C27   S    
C1    C11   S    
C22   N4    T    
C23   C34   A    
O1    Zn1   S    
C32   C33   A    
C7    C18   A    
C24   N5    T    
C19   H9    S    
C33   C34   A    
C9    C15   S    
C25   N6    T    
O4    Zn2   S    
C1    O2    A    
O3    Zn1   S    
C33   H10   S    
C12   C23   A    
C4    O4    A    
C5    C6    A    
C7    C26   S    
N1    Zn1   S    
C4    C17   S    
C4    O3    A    
C14   H8    S    
C13   H6    S    
C29   N10   T    
C15   O6    A    
C28   N9    T    
C11   H5    S    
C3    C7    A    
C20   C29   S    
C12   C31   A    
C15   O5    A    
C3    C32   A    
C6    C18   A    
C31   C35   A    
C27   N8    T    
C2    C5    A    
C10   C11   D    
O6    Zn2   S    
C14   N3    D    
C26   N7    T    
O5    Zn1   S    
C17   C20   A    
C28   C36   S    
C16   C18   S    
N3    Zn2   S    
C2    C36   A    
C13   N1    D    
C8    H3    S    
C35   H2    S    
C2    C3    A    
C35   C36   A    
C16   O8    A    
C10   C24   S    
C13   C14   S    
H7    N1    S    
C12   C21   A    
O2    Zn2   S    
C9    H4    S    
C17   C21   A    
C5    C22   S    
C31   C32   A    
C8    C10   S    
C8    C9    D    
C25   N3    S    
O8    Zn2   S    
