data_mof_unit_58820.cif
_audit_creation_date              2012-12-10T18:57:07-0500
_audit_creation_method            fapswitch 2.2
_symmetry_space_group_name_H-M    P1
_symmetry_Int_Tables_number       1
_space_group_crystal_system       triclinic
_cell_length_a                    10.723402
_cell_length_b                    9.902677
_cell_length_c                    10.746537
_cell_angle_alpha                 89.998427
_cell_angle_beta                  91.4354
_cell_angle_gamma                 90.001596
_cell_volume                      1140.82081728

loop_
_atom_site_label
_atom_site_type_symbol
_atom_type_description
_atom_site_fract_x
_atom_site_fract_y
_atom_site_fract_z
_atom_type_partial_charge
C1    C     C_R   0.260065 0.499937 0.499786 0.861504
C2    C     C_R   0.739935 0.499938 0.500259 0.861383
C3    C     C_R   0.578239 0.069643 0.579558 0.239645
C4    C     C_R   0.421788 0.069641 0.420415 0.239814
C5    C     C_R   0.577074 0.926630 0.578710 -0.107310
C6    C     C_R   0.422947 0.926628 0.421268 -0.107271
C7    C     C_R   0.499817 0.499850 0.260601 0.884383
C8    C     C_R   0.500292 0.499848 0.739401 0.884323
C9    C     C_R   0.499859 0.617104 0.062046 0.137998
C10   C     C_R   0.500289 0.617105 0.937951 0.137840
C11   C     C_R   0.500009 0.498108 0.129294 -0.109762
C12   C     C_R   0.500579 0.498107 0.870721 -0.109777
C13   C     C_R   0.500616 0.374471 0.064599 -0.227339
C14   C     C_R   0.500857 0.374472 0.935447 -0.227361
C15   C     C_3   0.499586 0.767278 0.928368 -0.483422
C16   C     C_3   0.499065 0.767275 0.071587 -0.483690
C17   C     C_R   0.063820 0.376727 0.498507 -0.197307
C18   C     C_R   0.936100 0.376724 0.498805 -0.197156
C19   C     C_R   0.872513 0.499887 0.500334 -0.009494
C20   C     C_R   0.127488 0.499889 0.499823 -0.009476
C21   C     C_R   0.936189 0.623034 0.501714 -0.197309
C22   C     C_R   0.063895 0.623035 0.501399 -0.197335
H1    H     H_    0.500902 0.278369 0.112754 0.179060
H2    H     H_    0.501094 0.278371 0.887314 0.179037
H3    H     H_    0.411850 0.806383 0.884438 0.209423
H4    H     H_    0.586396 0.807408 0.115525 0.209465
H5    H     H_    0.112159 0.280679 0.497264 0.162025
H6    H     H_    0.887692 0.280672 0.497707 0.162196
H7    H     H_    0.638490 0.870530 0.641361 0.143526
H8    H     H_    0.361550 0.870530 0.358599 0.143737
N1    N     N_R   0.500000 0.857200 0.500000 -0.113518
N2    N     N_R   0.500000 0.142810 0.500000 -0.084931
O1    O     O_R   0.316770 0.614620 0.499990 -0.626716
O2    O     O_R   0.683230 0.614620 0.500010 -0.626637
O3    O     O_R   0.316800 0.385290 0.500000 -0.632539
O4    O     O_R   0.683200 0.385290 0.500000 -0.632711
O5    O     O_R   0.500000 0.614690 0.316780 -0.617184
O6    O     O_R   0.500000 0.614690 0.683220 -0.617325
O7    O     O_R   0.500020 0.385360 0.316780 -0.631217
O8    O     O_R   0.499980 0.385360 0.683220 -0.631114
Zn1   Zn    Zn3+2 0.500000 0.653120 0.500000 0.938279
Zn2   Zn    Zn3+2 0.500000 0.346880 0.500000 0.939282
H9    H     H_    0.587233 0.807421 0.889451 0.199706
H10   H     H_    0.411013 0.806385 0.110472 0.199719
H11   H     H_    0.887857 0.719097 0.503025 0.157207
H12   H     H_    0.112293 0.719103 0.502467 0.157424
C23   C     C_3   0.668609 0.133597 0.670881 -0.893763
H13   H     H_    0.669334 0.243649 0.669239 0.295672
H14   H     H_    0.645705 0.101674 0.766720 0.212545
H15   H     H_    0.764684 0.099250 0.651028 0.211205
C24   C     C_3   0.331516 0.133595 0.328994 -0.894117
H16   H     H_    0.330632 0.243643 0.330790 0.295593
H17   H     H_    0.354655 0.101869 0.233162 0.212934
H18   H     H_    0.235440 0.099060 0.348596 0.210856

loop_
_geom_bond_atom_site_label_1
_geom_bond_atom_site_label_2
_ccdc_geom_bond_type
C5    N1    A    
C24   H17   S    
C2    O4    A    
O7    Zn2   S    
C9    C11   A    
C9    C10   A    
C16   H10   S    
O4    Zn2   S    
C23   H13   S    
C8    C12   S    
C24   H18   S    
O1    Zn1   S    
C2    O2    A    
O8    Zn2   S    
C17   C18   A    
C7    O5    A    
C15   H9    S    
C23   H14   S    
C21   C22   A    
C7    C11   S    
C11   C13   A    
C1    O3    A    
C4    N2    A    
O2    Zn1   S    
C10   C12   A    
C3    C23   S    
C19   C21   A    
C9    C16   S    
C12   C14   A    
C6    N1    A    
C23   H15   S    
C21   H11   S    
C10   C15   S    
C8    O6    A    
O5    Zn1   S    
C3    N2    A    
C15   H3    S    
C4    C24   S    
C1    O1    A    
C24   H16   S    
C17   H5    S    
C5    H7    S    
C17   C20   A    
C18   H6    S    
C13   H1    S    
O6    Zn1   S    
C4    C6    A    
C18   C19   A    
C14   H2    S    
C8    O8    A    
O3    Zn2   S    
N2    Zn2   S    
C1    C20   S    
C7    O7    A    
N1    Zn1   S    
C22   H12   S    
C2    C19   S    
C13   C14   A    
C6    H8    S    
C15   C16   S    
C20   C22   A    
C3    C5    A    
C16   H4    S    
