data_mof_unit_8433.cif
_audit_creation_date              2013-03-05T16:02:39-0500
_audit_creation_method            fapswitch 2.2
_symmetry_space_group_name_H-M    P1
_symmetry_Int_Tables_number       1
_space_group_crystal_system       triclinic
_cell_length_a                    6.95277
_cell_length_b                    17.133396
_cell_length_c                    19.005485
_cell_angle_alpha                 106.055403
_cell_angle_beta                  89.93096
_cell_angle_gamma                 90.706092
_cell_volume                      2175.54039132

loop_
_atom_site_label
_atom_site_type_symbol
_atom_site_description
_atom_site_fract_x
_atom_site_fract_y
_atom_site_fract_z
_atom_type_partial_charge
O1    O     O_R   0.494360 0.415680 0.413760 -0.551106
O2    O     O_R   0.818810 0.432910 0.557230 -0.585003
O3    O     O_R   0.994290 0.584320 0.586240 -0.600491
C1    C     C_R   0.649864 0.415748 0.580449 1.005011
O4    O     O_R   0.823740 0.406440 0.412520 -0.576170
O5    O     O_R   0.999250 0.557660 0.440500 -0.530027
C2    C     C_R   0.653280 0.381524 0.386803 1.177663
O6    O     O_R   0.489400 0.442340 0.559500 -0.545294
O7    O     O_3   0.662500 0.549650 0.509350 -0.266064
V1    V     V_3+5 0.935340 0.490790 0.498270 1.257507
O8    O     O_R   0.329270 0.567090 0.442770 -0.572202
C3    C     C_R   0.161204 0.584288 0.419573 0.965272
O9    O     O_R   0.324340 0.593560 0.587480 -0.597828
C4    C     C_R   0.155766 0.617683 0.613896 0.888976
V2    V     V_3+5 0.435970 0.509210 0.501730 1.260077
O10   O     O_3   0.158940 0.450350 0.490650 -0.240511
C5    C     C_R   0.046064 0.585078 0.747481 -0.431721
C6    C     C_R   0.990803 0.563516 0.810014 0.167934
C7    C     C_R   0.985807 0.623603 0.876433 0.704471
C8    C     C_R   0.035206 0.704500 0.880754 0.092450
C9    C     C_R   0.081138 0.729080 0.816542 -0.131997
C10   C     C_R   0.089687 0.666518 0.748883 0.070996
C11   C     C_R   0.119588 0.812276 0.817237 -0.153259
C12   C     C_R   0.170354 0.830185 0.750258 -0.163454
C13   C     C_R   0.188203 0.765753 0.684265 -0.010692
C14   C     C_R   0.146272 0.684530 0.683520 -0.072006
C15   C     C_R   0.201903 0.911429 0.746300 0.412129
C16   C     C_R   0.257108 0.927046 0.680853 0.559295
C17   C     C_R   0.278795 0.863796 0.617659 0.659017
C18   C     C_R   0.243231 0.784230 0.618925 -0.500581
H1    H     H_    0.054174 0.536510 0.697345 0.204288
H2    H     H_    0.258270 0.737407 0.567767 0.191165
C19   C     C_1   0.111437 0.867194 0.135440 -0.043199
C20   C     C_1   0.118947 0.824553 0.178929 0.193649
C21   C     C_1   0.128414 0.773833 0.230371 0.101168
C22   C     C_1   0.136496 0.730960 0.273667 0.075975
C23   C     C_1   0.145947 0.679991 0.324914 0.127214
C24   C     C_1   0.153462 0.636836 0.367981 -0.220997
C25   C     C_1   0.640859 0.362933 0.631738 -0.192292
C26   C     C_1   0.635911 0.319530 0.674614 0.200027
C27   C     C_1   0.632046 0.268437 0.725775 0.128205
C28   C     C_1   0.629339 0.225487 0.769055 0.114849
C29   C     C_1   0.625943 0.174691 0.820474 0.184286
C30   C     C_1   0.622046 0.132032 0.863989 -0.100572
C31   C     C_R   0.765827 0.409788 0.249905 0.600064
C32   C     C_R   0.830227 0.424891 0.186115 -0.451156
C33   C     C_R   0.818176 0.365374 0.120745 0.765788
C34   C     C_R   0.741568 0.288592 0.117730 0.104326
C35   C     C_R   0.688455 0.267540 0.183192 -0.162652
C36   C     C_R   0.699844 0.330666 0.250894 -0.112767
C37   C     C_R   0.627410 0.186911 0.183559 -0.071462
C38   C     C_R   0.580562 0.170993 0.251753 -0.151130
C39   C     C_R   0.568653 0.236528 0.317068 -0.139375
C40   C     C_R   0.639311 0.315121 0.317273 -0.158614
C41   C     C_R   0.545922 0.090431 0.257168 0.055723
C42   C     C_R   0.460570 0.077737 0.319775 0.600186
C43   C     C_R   0.428341 0.142496 0.381441 0.036289
C44   C     C_R   0.490365 0.220650 0.381297 0.493612
H3    H     H_    0.882109 0.485016 0.186926 0.227925
O11   O     O_R   0.775690 0.057750 0.940570 -0.553781
O12   O     O_R   0.441200 0.093570 0.087490 -0.586383
O13   O     O_R   0.265840 0.942320 0.059480 -0.558943
C45   C     C_R   0.611773 0.118690 0.113950 1.011318
O14   O     O_R   0.446270 0.067110 0.942790 -0.534114
O15   O     O_R   0.270950 0.915660 0.913750 -0.565452
C46   C     C_R   0.614385 0.080907 0.916843 1.030793
O16   O     O_R   0.770580 0.084400 0.086300 -0.571608
O17   O     O_3   0.602640 0.950400 0.990690 -0.256945
V3    V     V_3+5 0.329740 0.009200 0.001730 1.336172
O18   O     O_R   0.940900 0.906360 0.912450 -0.603387
C47   C     C_R   0.109630 0.880889 0.886436 1.111153
O19   O     O_R   0.935830 0.932820 0.057160 -0.533799
C48   C     C_R   0.103630 0.918541 0.082730 1.055961
V4    V     V_3+5 0.829130 0.990680 0.998180 1.330914
O20   O     O_3   0.106100 0.049590 0.009310 -0.249894
F1    F     F_    0.331391 0.879652 0.554195 -0.589480
F2    F     F_    0.763434 0.475414 0.309354 -0.698289
F3    F     F_    0.869043 0.384474 0.058443 -0.570368
N1    N     N_R   0.702133 0.237137 0.046593 0.218347
O21   O     O_R   0.841776 0.221498 0.999307 -0.345761
O22   O     O_R   0.525684 0.233179 0.023072 -0.402526
N2    N     N_R   0.629970 0.021411 0.206610 0.257731
O23   O     O_R   0.527784 0.955838 0.179811 -0.349525
O24   O     O_R   0.816465 0.017102 0.203010 -0.414868
F4    F     F_    0.426055 0.000538 0.322934 -0.582950
F5    F     F_    0.466508 0.280695 0.444068 -0.678939
N3    N     N_R   0.948130 0.479841 0.806028 0.264665
O25   O     O_R   0.847458 0.460855 0.856811 -0.257877
O26   O     O_R   0.008444 0.421730 0.751002 -0.406954
F6    F     F_    0.947170 0.602817 0.939063 -0.566875
N4    N     N_R   0.058265 0.757531 0.952403 0.213682
O27   O     O_R   0.232134 0.771442 0.978428 -0.416345
O28   O     O_R   0.914349 0.765940 0.997611 -0.354271
F7    F     F_    0.175022 0.977326 0.804293 -0.665370
F8    F     F_    0.287800 0.004718 0.678687 -0.590153
N5    N     N_R   0.342005 0.127951 0.445781 0.305082
O29   O     O_R   0.222299 0.067452 0.439815 -0.241182
O30   O     O_R   0.383152 0.174342 0.510837 -0.282698

loop_
_geom_bond_atom_site_label_1
_geom_bond_atom_site_label_2
_geom_bond_distance
_ccdc_geom_bond_type
N3    O25   1.301411 A    
C32   H3    1.083339 S    
C27   C28   1.246147 T    
C30   C46   1.504860 S    
C21   C22   1.247124 T    
C12   C15   1.428905 A    
C1    O6    1.313304 A    
C42   F4    1.358959 S    
C17   F1    1.356489 S    
C39   C40   1.426678 A    
C36   C40   1.421779 A    
C16   F8    1.357018 S    
C34   N1    1.419830 S    
C16   C17   1.386816 A    
C23   C24   1.247071 T    
C6    C7    1.391572 A    
O5    C3    1.311831 A    
O17   V4    1.701690 S    
V2    O10   2.146382 S    
C42   C43   1.393216 A    
C20   C21   1.478809 S    
O12   C45   1.309106 A    
O8    V2    1.850474 S    
C7    C8    1.404000 A    
O17   V3    2.142047 S    
C35   C37   1.442021 A    
C43   N5    1.442491 S    
N5    O30   1.301531 A    
O18   V4    2.017022 S    
C11   C12   1.432298 A    
O13   C48   1.311578 A    
O18   C47   1.304999 A    
O1    V2    2.015070 S    
O7    V1    2.142117 S    
C38   C41   1.429735 A    
O11   C46   1.315183 A    
O9    C4    1.300896 A    
C44   F5    1.354252 S    
C19   C20   1.246875 T    
C8    N4    1.420608 S    
C45   O16   1.297790 A    
V4    O20   2.146350 S    
C37   C38   1.432689 A    
C11   C47   1.504338 S    
C37   C45   1.506700 S    
C12   C13   1.429795 A    
O19   V4    1.850518 S    
C25   C26   1.246069 T    
N1    O22   1.300763 A    
C13   C14   1.414534 A    
O15   C47   1.302418 A    
O13   V3    1.843101 S    
O14   C46   1.312088 A    
O2    C1    1.312632 A    
C29   C30   1.246087 T    
C17   C18   1.389216 A    
N4    O28   1.301236 A    
C33   C34   1.399559 A    
C1    C25   1.503099 S    
O8    C3    1.314622 A    
N5    O29   1.301520 A    
C41   C42   1.397695 A    
C5    C6    1.390969 A    
O16   V4    2.018890 S    
O14   V3    1.867745 S    
C4    C14   1.493469 S    
C41   N2    1.431906 S    
O3    C4    1.297268 A    
C19   C48   1.506403 S    
C34   C35   1.434645 A    
C35   C36   1.435272 A    
O6    V2    1.833962 S    
N2    O24   1.300305 A    
C9    C11   1.443508 A    
C5    H1    1.079814 S    
C28   C29   1.477454 S    
O2    V1    1.867673 S    
N4    O27   1.300745 A    
C38   C39   1.428149 A    
O4    C2    1.303558 A    
O12   V3    2.004735 S    
C13   C18   1.414935 A    
C32   C33   1.373965 A    
C26   C27   1.477390 S    
O1    C2    1.294051 A    
C5    C10   1.417288 A    
O19   C48   1.315794 A    
O5    V1    1.843276 S    
C39   C44   1.427876 A    
C6    N3    1.441736 S    
C2    C40   1.488627 S    
O9    V2    2.017126 S    
O7    V2    1.702897 S    
O4    V1    2.004816 S    
C7    F6    1.359118 S    
V1    O10   1.699544 S    
C18   H2    1.081764 S    
C43   C44   1.402434 A    
C31   C36   1.430849 A    
O15   V3    2.008661 S    
O11   V4    1.834352 S    
V3    O20   1.699484 S    
C3    C24   1.504837 S    
N1    O21   1.301237 A    
C31   C32   1.380800 A    
C8    C9    1.431320 A    
C22   C23   1.479049 S    
N2    O23   1.300432 A    
C10   C14   1.414611 A    
C15   C16   1.395174 A    
O3    V1    2.008669 S    
N3    O26   1.301591 A    
C15   F7    1.356784 S    
C31   F2    1.356032 S    
C33   F3    1.358184 S    
C9    C10   1.430033 A    
