data_mof_unit_16487.cif
_audit_creation_date              2012-12-11T15:32:39-0500
_audit_creation_method            fapswitch 2.2
_symmetry_space_group_name_H-M    P1
_symmetry_Int_Tables_number       1
_space_group_crystal_system       triclinic
_cell_length_a                    6.962826
_cell_length_b                    20.448115
_cell_length_c                    24.389861
_cell_angle_alpha                 89.587778
_cell_angle_beta                  90.19772
_cell_angle_gamma                 89.718777
_cell_volume                      3472.39430837

loop_
_atom_site_label
_atom_site_type_symbol
_atom_type_description
_atom_site_fract_x
_atom_site_fract_y
_atom_site_fract_z
_atom_type_partial_charge
O1    O     O_R   0.507320 0.423560 0.460500 -0.535448
O2    O     O_R   0.170760 0.556250 0.437010 -0.536871
O3    O     O_R   0.004030 0.576440 0.539500 -0.536533
C1    C     C_R   0.339272 0.576373 0.421081 0.723484
O4    O     O_R   0.177370 0.422820 0.454110 -0.538012
O5    O     O_R   0.010680 0.442050 0.556720 -0.534377
C2    C     C_R   0.346212 0.398938 0.443438 0.694951
O6    O     O_R   0.500680 0.557950 0.443280 -0.535759
O7    O     O_3   0.340380 0.506470 0.533650 -0.366906
V1    V     V_3+5 0.064130 0.498800 0.493760 1.427834
O8    O     O_R   0.681160 0.443750 0.562990 -0.537102
C3    C     C_R   0.850020 0.423602 0.578851 0.724732
O9    O     O_R   0.674560 0.577180 0.545890 -0.537796
C4    C     C_R   0.842741 0.601119 0.556502 0.693409
V2    V     V_3+5 0.564560 0.501200 0.506240 1.429446
O10   O     O_3   0.838180 0.493530 0.466350 -0.367411
C5    C     C_R   0.976199 0.838194 0.911207 -0.040511
C6    C     C_R   0.847759 0.661852 0.588679 -0.042539
C7    C     C_R   0.040886 0.722206 0.905903 -0.160351
C8    C     C_R   0.031554 0.779477 0.936238 -0.169407
C9    C     C_R   0.930766 0.839403 0.854956 -0.208098
C10   C     C_R   0.942566 0.781656 0.822635 0.086526
C11   C     C_R   0.998354 0.722781 0.849606 0.139221
C12   C     C_R   0.903675 0.780234 0.764705 0.051053
C13   C     C_R   0.921141 0.719941 0.735103 0.058460
C14   C     C_R   0.976477 0.663136 0.764434 -0.184451
C15   C     C_R   0.013757 0.664716 0.820335 -0.198186
C16   C     C_R   0.848555 0.837055 0.735359 -0.171729
C17   C     C_R   0.811162 0.835455 0.679458 -0.182845
C18   C     C_R   0.826224 0.777355 0.650209 0.130026
C19   C     C_R   0.882027 0.718490 0.677190 0.086999
C20   C     C_R   0.783348 0.777873 0.593930 -0.154358
C21   C     C_R   0.792349 0.720558 0.563633 -0.167540
C22   C     C_R   0.893544 0.660707 0.644903 -0.212409
H1    H     H_    0.056409 0.619732 0.840915 0.126235
H2    H     H_    0.932787 0.613849 0.662117 0.093886
H3    H     H_    0.754759 0.721893 0.520488 0.106515
H4    H     H_    0.084251 0.677302 0.926449 0.115449
H5    H     H_    0.068924 0.778105 0.979398 0.105643
H6    H     H_    0.891543 0.886271 0.837752 0.102827
H7    H     H_    0.993095 0.616163 0.745365 0.123952
H8    H     H_    0.832220 0.884049 0.754416 0.139179
H9    H     H_    0.739970 0.822768 0.573373 0.119227
C23   C     C_3   0.823341 0.304190 0.768469 -0.165755
C24   C     C_3   0.018927 0.276662 0.788841 -0.158701
H10   H     H_    0.108962 0.299057 0.821240 0.170215
H11   H     H_    0.751176 0.349049 0.783616 0.141606
H12   H     H_    0.222452 0.277636 0.710685 0.152322
C25   C     C_1   0.964321 0.121759 0.875196 -0.099469
C26   C     C_1   0.859369 0.377889 0.624629 -0.191839
C27   C     C_3   0.738950 0.234319 0.770843 0.186334
C28   C     C_3   0.933275 0.207323 0.790782 0.080405
C29   C     C_3   0.798483 0.222525 0.710564 -0.188200
C30   C     C_3   0.885583 0.291808 0.708742 0.073124
C31   C     C_3   0.993860 0.195395 0.731140 0.201153
C32   C     C_3   0.080902 0.264892 0.728544 -0.127152
C33   C     C_1   0.953285 0.160175 0.837058 0.096566
C34   C     C_1   0.868671 0.339218 0.662642 -0.013526
H13   H     H_    0.706389 0.200509 0.678438 0.161603
C35   C     C_3   0.592973 0.746159 0.231313 -0.139335
C36   C     C_3   0.446702 0.689184 0.232216 -0.135656
H14   H     H_    0.474970 0.638760 0.217630 0.109434
H15   H     H_    0.742467 0.743112 0.215806 0.107764
H16   H     H_    0.187443 0.724411 0.175688 0.107640
C37   C     C_1   0.350076 0.622016 0.375120 -0.193469
C38   C     C_1   0.474110 0.878089 0.124948 -0.190994
C39   C     C_3   0.535115 0.764200 0.290684 -0.138794
C40   C     C_3   0.389095 0.707826 0.290999 0.168782
C41   C     C_3   0.377464 0.810944 0.267867 -0.135593
C42   C     C_3   0.435071 0.792302 0.209084 0.168565
C43   C     C_3   0.231193 0.753969 0.268770 -0.139064
C44   C     C_3   0.289052 0.735928 0.209399 -0.139241
C45   C     C_1   0.365423 0.660541 0.337091 -0.063412
C46   C     C_1   0.458749 0.839580 0.162987 -0.064926
H17   H     H_    0.081699 0.757015 0.284278 0.107951
H18   H     H_    0.349196 0.861368 0.282453 0.109465
H19   H     H_    0.636724 0.775717 0.324395 0.108152
C47   C     C_R   0.472379 0.162600 0.087928 -0.090285
C48   C     C_R   0.352556 0.338296 0.411116 -0.045134
C49   C     C_R   0.525708 0.279231 0.093041 -0.173200
C50   C     C_R   0.519733 0.222024 0.062437 0.143531
C51   C     C_R   0.431854 0.161264 0.144440 -0.252204
C52   C     C_R   0.440229 0.219076 0.176700 0.093241
C53   C     C_R   0.487956 0.278305 0.149502 0.102428
C54   C     C_R   0.405346 0.220263 0.234796 0.067843
C55   C     C_R   0.419215 0.280700 0.264319 0.056745
C56   C     C_R   0.466714 0.337882 0.234737 -0.185910
C57   C     C_R   0.499820 0.336519 0.178688 -0.184413
C58   C     C_R   0.357510 0.163100 0.264379 -0.187580
C59   C     C_R   0.324068 0.164482 0.320430 -0.200980
C60   C     C_R   0.336127 0.222683 0.349621 0.136546
C61   C     C_R   0.384424 0.281914 0.322401 0.086299
C62   C     C_R   0.297913 0.221870 0.406098 -0.155464
C63   C     C_R   0.304516 0.279218 0.436395 -0.162840
C64   C     C_R   0.393357 0.339768 0.354658 -0.213690
H20   H     H_    0.536322 0.381821 0.157912 0.124032
H21   H     H_    0.427256 0.386872 0.337291 0.093353
H22   H     H_    0.270938 0.277598 0.479731 0.114559
H23   H     H_    0.287155 0.119218 0.341201 0.124185
H24   H     H_    0.562441 0.324686 0.072579 0.140427
H25   H     H_    0.398589 0.114162 0.161917 0.101631
H26   H     H_    0.480018 0.385004 0.253705 0.120974
H27   H     H_    0.343935 0.115996 0.245397 0.122501
H28   H     H_    0.260301 0.176680 0.426841 0.121098
O11   O     O_R   0.323550 0.942140 0.056770 -0.540342
O12   O     O_R   0.647080 0.077200 0.045890 -0.532781
O13   O     O_R   0.813610 0.057920 0.943260 -0.522529
C65   C     C_R   0.478330 0.101247 0.056424 0.743662
O14   O     O_R   0.653470 0.943760 0.063000 -0.540977
O15   O     O_R   0.820050 0.923540 0.960490 -0.539769
C66   C     C_R   0.484942 0.923698 0.078964 0.707489
O16   O     O_R   0.317110 0.076520 0.039540 -0.532696
O17   O     O_3   0.483830 0.993580 0.966380 -0.361082
V3    V     V_3+5 0.760140 0.001190 0.006240 1.466171
O18   O     O_R   0.149510 0.922740 0.954070 -0.539854
C67   C     C_R   0.981274 0.898881 0.943423 0.684793
O19   O     O_R   0.143120 0.056170 0.936970 -0.528212
C68   C     C_R   0.974219 0.076300 0.921104 0.745058
V4    V     V_3+5 0.259690 0.998700 0.993700 1.478229
O20   O     O_3   0.986130 0.006420 0.033620 -0.373658
I1    I     I_    0.127231 0.108939 0.700348 -0.392420
I2    I     I_    0.479060 0.205498 0.809414 -0.408257
I3    I     I_    0.584956 0.228438 0.977614 -0.378323
H29   H     H_    0.768629 0.880445 0.658865 0.141432

loop_
_geom_bond_atom_site_label_1
_geom_bond_atom_site_label_2
_ccdc_geom_bond_type
C13   C19   A    
C43   H17   S    
C56   C57   A    
C57   H20   S    
C62   C63   A    
C4    C6    S    
O2    C1    A    
C7    C8    A    
C39   H19   S    
C1    O6    A    
C31   I1    S    
C29   H13   S    
C25   C33   T    
C24   H10   S    
C14   C15   A    
C50   I3    S    
C35   H15   S    
C16   C17   A    
O19   V4    S    
O5    C3    A    
C1    C37   S    
C63   H22   S    
O18   C67   A    
C38   C46   T    
C17   H29   S    
C5    C8    A    
C37   C45   T    
C41   H18   S    
C47   C65   S    
C41   C43   S    
O17   V4    S    
O8    V2    S    
C20   H9    S    
C52   C53   A    
C35   C39   S    
C42   C46   S    
O1    V2    S    
C11   C15   A    
C38   C66   S    
C23   H11   S    
O7    V1    S    
O15   V3    S    
O13   C68   A    
C28   C31   S    
C49   C53   A    
H16   C44   S    
O11   C66   A    
O9    C4    A    
C58   H27   S    
C36   H14   S    
C62   H28   S    
C29   C31   S    
C30   C32   S    
C42   C44   S    
C39   C40   S    
C26   C34   T    
C53   C57   A    
C12   C13   A    
C24   C32   S    
C48   C63   A    
C60   C61   A    
O4    C2    A    
C8    H5    S    
C54   C58   A    
C55   C56   A    
C24   C28   S    
C15   H1    S    
C13   C14   A    
C54   C55   A    
C61   C64   A    
C21   H3    S    
C65   O16   A    
C35   C36   S    
C39   C41   S    
C7    C11   A    
O13   V3    S    
C48   C64   A    
C17   C18   A    
C7    H4    S    
C60   C62   A    
C56   H26   S    
C47   C51   A    
C25   C68   S    
C35   C42   S    
V4    O20   S    
C31   C32   S    
C19   C22   A    
V3    O20   S    
C6    C22   A    
O3    C4    A    
O14   V3    S    
C36   C44   S    
C52   C54   A    
O12   V3    S    
O6    V2    S    
O18   V4    S    
O9    V2    S    
C10   C12   A    
O2    V1    S    
O15   C67   A    
C59   H23   S    
C23   C24   S    
C23   C27   S    
C2    C48   S    
O17   V3    S    
C30   C34   S    
H12   C32   S    
O1    C2    A    
C12   C16   A    
C49   C50   A    
O5    V1    S    
O16   V4    S    
C3    C26   S    
O8    C3    A    
C64   H21   S    
C29   C30   S    
C20   C21   A    
O14   C66   A    
C40   C45   S    
C27   C28   S    
O3    V1    S    
C55   C61   A    
O19   C68   A    
C18   C20   A    
C36   C40   S    
C59   C60   A    
C18   C19   A    
C9    H6    S    
O12   C65   A    
C40   C43   S    
C16   H8    S    
C51   H25   S    
C22   H2    S    
C47   C50   A    
O7    V2    S    
C41   C42   S    
C6    C21   A    
C5    C9    A    
C28   C33   S    
C23   C30   S    
O4    V1    S    
C43   C44   S    
C14   H7    S    
C51   C52   A    
C27   I2    S    
C10   C11   A    
O11   V4    S    
V1    O10   S    
C27   C29   S    
C58   C59   A    
C9    C10   A    
C49   H24   S    
V2    O10   S    
C5    C67   S    
