data_mof_unit_50758.cif
_audit_creation_date              2012-12-10T19:03:36-0500
_audit_creation_method            fapswitch 2.2
_symmetry_space_group_name_H-M    P1
_symmetry_Int_Tables_number       1
_space_group_crystal_system       triclinic
_cell_length_a                    15.877927
_cell_length_b                    10.805702
_cell_length_c                    9.57307
_cell_angle_alpha                 89.868055
_cell_angle_beta                  90.100448
_cell_angle_gamma                 90.340365
_cell_volume                      1642.43635756

loop_
_atom_site_label
_atom_site_type_symbol
_atom_type_description
_atom_site_fract_x
_atom_site_fract_y
_atom_site_fract_z
_atom_type_partial_charge
C1    C     C_R   0.498696 0.262400 0.500145 0.794492
C2    C     C_3   0.952313 0.384980 0.588498 0.275370
C3    C     C_3   0.916727 0.497364 0.503423 0.045054
C4    C     C_3   0.950126 0.620958 0.566123 -0.443400
C5    C     C_3   0.047448 0.629665 0.552523 0.248844
C6    C     C_1   0.824575 0.498597 0.501674 0.070600
C7    C     C_1   0.175149 0.501462 0.501286 0.034828
C8    C     C_1   0.250680 0.500600 0.499978 -0.114743
C9    C     C_R   0.502368 0.063313 0.625051 0.110644
C10   C     C_R   0.491015 0.129141 0.501013 -0.083656
C11   C     C_R   0.467893 0.064534 0.379365 -0.203236
C12   C     C_R   0.340296 0.499996 0.499950 0.812415
C13   C     C_R   0.467373 0.935425 0.379513 -0.169023
C14   C     C_R   0.490750 0.870628 0.500795 -0.076985
C15   C     C_R   0.502416 0.936043 0.624797 0.111984
C16   C     C_3   0.572601 0.929544 0.728548 -0.407724
C17   C     C_3   0.572538 0.070070 0.729036 -0.423253
C18   C     C_R   0.572426 0.480522 0.073126 0.141091
C19   C     C_R   0.427312 0.515022 0.073858 -0.006891
C20   C     C_R   0.427417 0.516078 0.925672 -0.022913
C21   C     C_R   0.571722 0.475171 0.926357 0.156966
C22   C     C_3   0.653735 0.541584 0.914269 -0.454648
C23   C     C_R   0.498500 0.737546 0.499934 0.831382
C24   C     C_3   0.653468 0.554185 0.072454 0.254628
C25   C     C_R   0.659632 0.499979 0.500085 0.844412
C26   C     C_3   0.049680 0.396180 0.599529 -0.411497
C27   C     C_3   0.048876 0.477898 0.353965 -0.487986
C28   C     C_3   0.951318 0.488814 0.351042 -0.056447
C29   C     C_1   0.749108 0.499576 0.500530 -0.081469
C30   C     C_3   0.082951 0.502008 0.503876 0.087482
Cu1   Cu    Cu3+1 0.500000 0.499980 0.640670 0.980511
Cu2   Cu    Cu3+1 0.500000 0.500020 0.359330 1.011883
H1    H     H_    0.938176 0.299464 0.528298 0.140664
H2    H     H_    0.069918 0.411655 0.708859 0.245410
H3    H     H_    0.921549 0.700751 0.509918 0.163471
H4    H     H_    0.453356 0.113152 0.283317 0.167802
H5    H     H_    0.451744 0.886953 0.284070 0.183774
H6    H     H_    0.551786 0.888276 0.829146 0.230118
H7    H     H_    0.631006 0.889285 0.684103 0.215409
H8    H     H_    0.551768 0.109872 0.830180 0.205277
H9    H     H_    0.630955 0.111795 0.684929 0.224358
H10   H     H_    0.368503 0.529118 0.127773 0.142308
H11   H     H_    0.078165 0.306670 0.567654 0.162065
H12   H     H_    0.368736 0.531537 0.871431 0.163028
H13   H     H_    0.704362 0.479795 0.876049 0.229223
H14   H     H_    0.647943 0.629752 0.854866 0.240623
H15   H     H_    0.706588 0.504892 0.123420 0.121468
H16   H     H_    0.076573 0.545564 0.278873 0.196091
H17   H     H_    0.068463 0.384241 0.319191 0.224393
H18   H     H_    0.934357 0.574975 0.293750 0.185038
H19   H     H_    0.061636 0.698273 0.468664 0.096172
H20   H     H_    0.930086 0.629938 0.676253 0.281384
N1    N     N_R   0.500530 0.500930 0.147930 -0.161651
N2    N     N_R   0.500530 0.500890 0.852020 -0.175396
O1    O     O_R   0.500000 0.319640 0.618810 -0.576604
O2    O     O_R   0.500010 0.319680 0.381230 -0.590775
O3    O     O_R   0.379430 0.499990 0.618840 -0.576486
O4    O     O_R   0.379440 0.500030 0.381260 -0.602876
O5    O     O_R   0.499990 0.680320 0.618770 -0.580917
O6    O     O_R   0.500000 0.680360 0.381190 -0.515730
O7    O     O_R   0.620560 0.499970 0.618740 -0.582349
O8    O     O_R   0.620570 0.500010 0.381160 -0.558541
S1    S     S_3+6 0.905049 0.357430 0.757618 0.015881
O9    O     O_2   0.813988 0.322245 0.739706 -0.279419
O10   O     O_2   0.949524 0.250872 0.826365 -0.251607
O11   O     O_3   0.911439 0.482037 0.862142 -0.499641
H21   H     H_    0.960564 0.467047 0.923593 0.395484
S2    S     S_3+6 0.645057 0.713999 0.122818 0.031396
O12   O     O_2   0.663099 0.728546 0.275909 -0.278803
O13   O     O_2   0.708756 0.788611 0.042038 -0.265983
O14   O     O_3   0.548066 0.766885 0.086562 -0.551040
H22   H     H_    0.553164 0.858131 0.092157 0.354898
I1    I     I_    0.896347 0.340993 0.228369 -0.282977
S3    S     S_3+6 0.094540 0.694345 0.708395 0.017412
O15   O     O_2   0.088647 0.606221 0.829471 -0.264859
O16   O     O_2   0.185574 0.725616 0.682683 -0.293805
O17   O     O_3   0.043355 0.824836 0.750371 -0.459573
H23   H     H_    0.049733 0.879414 0.667738 0.347170

loop_
_geom_bond_atom_site_label_1
_geom_bond_atom_site_label_2
_ccdc_geom_bond_type
C27   H16   S    
S1    O10   D    
C18   C21   A    
Cu1   O7    S    
C19   C20   A    
Cu2   O4    S    
C3    C6    S    
C7    C8    T    
O17   H23   S    
C23   O5    A    
S3    O16   D    
C4    H20   S    
C18   C24   S    
C3    C28   S    
C1    O2    A    
C21   N2    A    
C15   C16   S    
Cu1   O5    S    
C5    S3    S    
C18   N1    A    
C28   H18   S    
C26   H2    S    
C16   C17   S    
S3    O17   S    
C9    C10   A    
C13   H5    S    
C19   H10   S    
C12   O4    A    
C19   N1    A    
O11   H21   S    
C4    H3    S    
C7    C30   S    
C13   C14   A    
C27   C30   S    
C28   I1    S    
C20   H12   S    
C26   H11   S    
C25   C29   S    
C23   O6    A    
S3    O15   D    
C20   N2    A    
S2    O12   D    
C17   H8    S    
C14   C23   S    
Cu1   Cu2   S    
C8    C12   S    
C6    C29   T    
C2    C26   S    
C25   O7    A    
C12   O3    A    
C2    H1    S    
C9    C17   S    
C22   H14   S    
C26   C30   S    
C22   C24   S    
Cu2   O6    S    
C3    C4    S    
Cu2   N1    S    
C2    S1    S    
C5    C30   S    
C11   H4    S    
C24   H15   S    
C1    C10   S    
C4    C5    S    
Cu1   O3    S    
C2    C3    S    
C1    O1    A    
Cu2   O8    S    
O14   H22   S    
C11   C13   A    
S2    O14   S    
C25   O8    A    
Cu1   N2    S    
C9    C15   A    
C17   H9    S    
S1    O11   S    
C10   C11   A    
C24   S2    S    
C16   H7    S    
S1    O9    D    
C22   H13   S    
S2    O13   D    
C27   C28   S    
C14   C15   A    
C5    H19   S    
Cu1   O1    S    
C21   C22   S    
Cu2   O2    S    
C27   H17   S    
C16   H6    S    
