data_mof_unit_47008.cif
_audit_creation_date              2012-10-26T19:21:35-0400
_audit_creation_method            fapswitch 2.2
_symmetry_space_group_name_H-M    P1
_symmetry_Int_Tables_number       1
_space_group_crystal_system       triclinic
_cell_length_a                    9.783791
_cell_length_b                    11.049832
_cell_length_c                    15.880041
_cell_angle_alpha                 94.813856
_cell_angle_beta                  78.553461
_cell_angle_gamma                 111.376653
_cell_volume                      1566.7491435

loop_
_atom_site_label
_atom_site_type_symbol
_atom_type_description
_atom_site_fract_x
_atom_site_fract_y
_atom_site_fract_z
_atom_type_partial_charge
C1    C     C_R   0.556201 0.745453 0.506181 0.559806
C2    C     C_2   0.515652 0.069466 0.501570 -0.157150
C3    C     C_2   0.923222 0.489855 0.492721 0.015827
C4    C     C_2   0.077568 0.511488 0.506400 0.016037
C5    C     C_R   0.409950 0.486721 0.663219 0.543539
C6    C     C_R   0.590314 0.514411 0.336855 0.543471
C7    C     C_R   0.355153 0.482017 0.757546 -0.020934
C8    C     C_R   0.647391 0.528862 0.242961 -0.020272
C9    C     C_R   0.164809 0.461758 0.885339 -0.135977
C10   C     C_R   0.844128 0.582406 0.116798 -0.137328
C11   C     C_R   0.205329 0.462534 0.795892 -0.021503
C12   C     C_R   0.443801 0.254546 0.493814 0.559548
C13   C     C_R   0.800508 0.566490 0.205630 -0.022230
C14   C     C_R   0.459848 0.499805 0.810848 -0.143361
C15   C     C_R   0.542502 0.507775 0.189337 -0.141825
C16   C     C_R   0.421843 0.503397 0.900961 0.028881
C17   C     C_R   0.585248 0.529182 0.100352 0.029659
C18   C     C_R   0.270870 0.481435 0.937685 0.036991
C19   C     C_R   0.738553 0.563997 0.064320 0.036990
C20   C     C_R   0.528931 0.525970 0.955462 0.036916
C21   C     C_R   0.479911 0.515536 0.046217 0.036467
C22   C     C_1   0.916275 0.590128 0.255545 0.209873
C23   C     C_R   0.328076 0.495215 0.079888 -0.130032
C24   C     C_1   0.089315 0.441031 0.746537 0.210486
C25   C     C_R   0.683646 0.561520 0.922520 -0.128235
C26   C     C_R   0.226318 0.479029 0.026520 -0.128872
C27   C     C_R   0.785890 0.580854 0.976111 -0.129064
C28   C     C_2   0.587908 0.884638 0.509557 -0.124572
C29   C     C_2   0.412095 0.115357 0.490426 -0.124782
C30   C     C_2   0.484353 0.930524 0.498401 -0.156870
Cu1   Cu    Cu3+1 0.362980 0.479380 0.485080 0.963038
Cu2   Cu    Cu3+1 0.637020 0.520620 0.514920 0.963906
H1    H     H_    0.111151 0.463476 0.055244 0.109288
H2    H     H_    0.375446 0.865373 0.486809 0.160481
H3    H     H_    0.303395 0.049938 0.478812 0.109340
H4    H     H_    0.696606 0.950058 0.521172 0.108835
H5    H     H_    0.124096 0.581752 0.554621 0.153588
H6    H     H_    0.877312 0.420658 0.443833 0.150267
H7    H     H_    0.110291 0.381969 0.417372 0.204219
H8    H     H_    0.889084 0.616953 0.583299 0.206441
H9    H     H_    0.903367 0.608930 0.948026 0.109352
H10   H     H_    0.426530 0.472136 0.218591 0.132377
H11   H     H_    0.571021 0.508035 0.780278 0.136685
H12   H     H_    0.049446 0.445454 0.914455 0.107230
H13   H     H_    0.961587 0.610691 0.088377 0.105180
H14   H     H_    0.283994 0.494876 0.147633 0.118089
H15   H     H_    0.731165 0.579377 0.855552 0.113287
H16   H     H_    0.624560 0.134616 0.513159 0.160084
N1    N     N_2   0.842890 0.551600 0.537350 -0.345258
N2    N     N_2   0.157110 0.448400 0.462650 -0.347218
N3    N     N_1   0.009774 0.609339 0.295057 -0.312829
N4    N     N_1   0.995374 0.423451 0.707633 -0.316757
O1    O     O_R   0.426810 0.668300 0.492040 -0.499114
O2    O     O_R   0.573190 0.331700 0.507960 -0.498876
O3    O     O_R   0.658240 0.703130 0.517240 -0.487631
O4    O     O_R   0.341760 0.296870 0.482760 -0.488158
O5    O     O_R   0.319390 0.472820 0.610170 -0.479879
O6    O     O_R   0.680610 0.527180 0.389830 -0.480772
O7    O     O_R   0.550820 0.507640 0.635370 -0.498565
O8    O     O_R   0.449180 0.492360 0.364630 -0.498118

loop_
_geom_bond_atom_site_label_1
_geom_bond_atom_site_label_2
_ccdc_geom_bond_type
Cu1   O8    S    
C24   N4    T    
C1    C28   S    
C6    C8    S    
C8    C13   A    
Cu2   O6    S    
C12   C29   S    
C25   C27   A    
C19   C27   A    
C27   H9    S    
C26   H1    S    
Cu1   Cu2   S    
C18   C26   A    
C5    O5    A    
C10   C19   A    
C16   C20   A    
Cu1   O5    S    
C10   H13   S    
C28   C30   D    
C3    N1    D    
C23   H14   S    
Cu1   O1    S    
C7    C11   A    
C9    C11   A    
C12   O4    A    
C9    C18   A    
C2    C29   D    
C5    O7    A    
Cu2   O2    S    
C17   C19   A    
C13   C22   S    
C8    C15   A    
C5    C7    S    
C6    O6    A    
C21   C23   A    
C1    O3    A    
Cu1   O4    S    
C14   C16   A    
Cu2   N1    S    
C20   C25   A    
C30   H2    S    
Cu1   N2    S    
C3    C4    S    
C15   H10   S    
C6    O8    A    
C11   C24   S    
H7    N2    S    
C2    C30   S    
C4    H5    S    
C28   H4    S    
C16   C18   A    
C23   C26   A    
C15   C17   A    
C29   H3    S    
C25   H15   S    
C22   N3    T    
C9    H12   S    
C1    O1    A    
Cu2   O3    S    
Cu2   O7    S    
C2    H16   S    
C20   C21   A    
C7    C14   A    
C12   O2    A    
H8    N1    S    
C3    H6    S    
C4    N2    D    
C14   H11   S    
C10   C13   A    
C17   C21   A    
