data_mof_unit_51853.cif
_audit_creation_date              2012-10-26T20:49:04-0400
_audit_creation_method            fapswitch 2.2
_symmetry_space_group_name_H-M    P1
_symmetry_Int_Tables_number       1
_space_group_crystal_system       triclinic
_cell_length_a                    19.450603
_cell_length_b                    18.145501
_cell_length_c                    19.295287
_cell_angle_alpha                 90.026994
_cell_angle_beta                  90.060814
_cell_angle_gamma                 89.939609
_cell_volume                      6810.08828662

loop_
_atom_site_label
_atom_site_type_symbol
_atom_type_description
_atom_site_fract_x
_atom_site_fract_y
_atom_site_fract_z
_atom_type_partial_charge
C1    C     C_R   0.367548 0.500034 0.499689 0.533482
C2    C     C_R   0.963946 0.451486 0.457064 -0.106022
C3    C     C_R   0.072127 0.500311 0.499277 0.030649
C4    C     C_R   0.927876 0.500159 0.500369 0.030605
C5    C     C_R   0.452435 0.720813 0.461984 0.048317
C6    C     C_R   0.542604 0.279202 0.543652 0.048171
C7    C     C_R   0.547597 0.720666 0.538040 0.048139
C8    C     C_R   0.457358 0.279334 0.456329 0.047082
C9    C     C_R   0.451325 0.798382 0.460582 -0.043063
C10   C     C_R   0.543177 0.201642 0.545420 -0.043735
C11   C     C_R   0.548767 0.798231 0.539527 -0.041721
C12   C     C_R   0.632452 0.499982 0.500305 0.533457
C13   C     C_R   0.456743 0.201777 0.454454 -0.042800
C14   C     C_R   0.500049 0.838783 0.500084 -0.004069
C15   C     C_R   0.499964 0.161471 0.499904 -0.005684
C16   C     C_R   0.559452 0.961557 0.481835 -0.102956
C17   C     C_R   0.440460 0.039131 0.517768 -0.104422
C18   C     C_R   0.440616 0.961705 0.518277 -0.104407
C19   C     C_R   0.559520 0.038985 0.482127 -0.105698
C20   C     C_R   0.499967 0.078680 0.499891 0.028617
C21   C     C_R   0.500052 0.921806 0.500098 0.026750
C22   C     C_R   0.499424 0.499960 0.367574 0.507886
C23   C     C_R   0.852192 0.500117 0.500853 0.036907
C24   C     C_R   0.500587 0.500035 0.632429 0.507783
C25   C     C_R   0.556303 0.529075 0.255434 -0.000541
C26   C     C_R   0.443943 0.470488 0.744595 -0.000775
C27   C     C_R   0.559206 0.526352 0.744550 0.004948
C28   C     C_R   0.440772 0.473850 0.255437 0.004960
C29   C     C_R   0.556033 0.529501 0.182112 0.012717
C30   C     C_R   0.444287 0.469951 0.817916 0.012770
C31   C     C_R   0.559133 0.526781 0.817887 0.019434
C32   C     C_R   0.440938 0.473252 0.182102 0.019615
C33   C     C_R   0.497881 0.502709 0.146046 -0.062343
C34   C     C_R   0.147810 0.500243 0.498888 0.036874
C35   C     C_R   0.502350 0.496994 0.853957 -0.062348
C36   C     C_R   0.499312 0.499753 0.291480 -0.080644
C37   C     C_R   0.500746 0.500202 0.708527 -0.080946
C38   C     C_R   0.501519 0.498749 0.930087 0.282087
C39   C     C_R   0.498729 0.500945 0.069914 0.282095
C40   C     C_R   0.744386 0.433204 0.500966 -0.115237
C41   C     C_R   0.255704 0.566977 0.498849 -0.114724
C42   C     C_R   0.255732 0.433308 0.499055 -0.109827
C43   C     C_R   0.744178 0.566873 0.500917 -0.109176
C44   C     C_R   0.815967 0.433284 0.500975 -0.107344
C45   C     C_R   0.707917 0.500007 0.500746 0.017385
C46   C     C_R   0.184124 0.567017 0.498746 -0.106965
C47   C     C_R   0.184151 0.433400 0.498899 -0.100427
C48   C     C_R   0.815758 0.566901 0.500974 -0.099972
C49   C     C_2   0.614705 0.560756 0.295673 0.309377
C50   C     C_2   0.385657 0.438532 0.704381 0.309387
C51   C     C_2   0.621771 0.547867 0.704699 0.283831
C52   C     C_2   0.378053 0.452776 0.295258 0.283470
C53   C     C_2   0.616875 0.555070 0.141822 0.312875
C54   C     C_2   0.383601 0.444008 0.858237 0.312668
C55   C     C_2   0.615681 0.562700 0.857788 0.305979
C56   C     C_R   0.292083 0.500108 0.499191 0.017278
C57   C     C_2   0.384321 0.437450 0.142209 0.306083
C58   C     C_R   0.400539 0.834834 0.415083 0.014623
C59   C     C_R   0.422380 0.875007 0.357008 -0.070776
C60   C     C_R   0.374016 0.906185 0.312101 -0.096110
C61   C     C_R   0.303787 0.898774 0.325590 -0.089972
C62   C     C_R   0.281737 0.859077 0.383482 -0.102355
C63   C     C_R   0.329893 0.826583 0.427825 -0.109899
C64   C     C_R   0.586649 0.164632 0.597655 0.018298
C65   C     C_R   0.658460 0.171931 0.595408 -0.104864
C66   C     C_R   0.699309 0.138635 0.646220 -0.099043
C67   C     C_R   0.964474 0.548937 0.543098 -0.104748
C68   C     C_R   0.668655 0.099002 0.700038 -0.092258
C69   C     C_R   0.597125 0.092363 0.702950 -0.101861
C70   C     C_R   0.556192 0.124507 0.651666 -0.069643
C71   C     C_R   0.599596 0.834467 0.585086 0.013481
C72   C     C_R   0.577794 0.874951 0.643052 -0.071524
C73   C     C_R   0.626185 0.905685 0.688161 -0.090047
C74   C     C_R   0.696416 0.897511 0.674992 -0.083844
C75   C     C_R   0.718433 0.857508 0.617210 -0.099267
C76   C     C_R   0.670240 0.825464 0.572663 -0.108071
C77   C     C_R   0.413243 0.164973 0.402132 0.017299
C78   C     C_R   0.035531 0.451556 0.456527 -0.104595
C79   C     C_R   0.341483 0.173152 0.403954 -0.102379
C80   C     C_R   0.300637 0.140301 0.352909 -0.093321
C81   C     C_R   0.331251 0.100242 0.299269 -0.084717
C82   C     C_R   0.402735 0.092743 0.296762 -0.097229
C83   C     C_R   0.443655 0.124434 0.348285 -0.071878
C84   C     C_R   0.036060 0.549011 0.542556 -0.106162
Cu1   Cu    Cu3+1 0.500000 0.573360 0.500000 0.940545
Cu2   Cu    Cu3+1 0.500000 0.426640 0.500000 0.939697
H1    H     H_    0.717698 0.380842 0.501191 0.124831
H2    H     H_    0.062297 0.414239 0.421999 0.117523
H3    H     H_    0.063256 0.586353 0.576716 0.114254
H4    H     H_    0.936754 0.414138 0.422908 0.114506
H5    H     H_    0.415704 0.689867 0.431457 0.136641
H6    H     H_    0.575421 0.310146 0.578423 0.137595
H7    H     H_    0.584303 0.689609 0.568540 0.125277
H8    H     H_    0.424555 0.310378 0.421602 0.125125
H9    H     H_    0.605816 0.932567 0.466929 0.119224
H10   H     H_    0.393996 0.068333 0.532026 0.116142
H11   H     H_    0.394278 0.932831 0.533258 0.116496
H12   H     H_    0.282460 0.619303 0.498592 0.123100
H13   H     H_    0.605965 0.068077 0.467820 0.113085
H14   H     H_    0.631317 0.534826 0.343523 0.103309
H15   H     H_    0.368823 0.464473 0.656614 0.103582
H16   H     H_    0.617229 0.575855 0.655303 0.110592
H17   H     H_    0.382403 0.425082 0.344814 0.109082
H18   H     H_    0.609716 0.583925 0.093084 0.120351
H19   H     H_    0.390937 0.415201 0.906974 0.120347
H20   H     H_    0.631065 0.541465 0.907974 0.132077
H21   H     H_    0.369042 0.458633 0.091973 0.132250
H22   H     H_    0.476666 0.880954 0.345900 0.118023
H23   H     H_    0.282512 0.380938 0.499327 0.129359
H24   H     H_    0.390953 0.935540 0.266486 0.105967
H25   H     H_    0.266481 0.923347 0.290922 0.110801
H26   H     H_    0.227336 0.852985 0.393685 0.112572
H27   H     H_    0.312253 0.795258 0.472140 0.099271
H28   H     H_    0.682660 0.203126 0.554284 0.098759
H29   H     H_    0.754682 0.143976 0.644145 0.113540
H30   H     H_    0.700280 0.073670 0.739607 0.110628
H31   H     H_    0.573304 0.062569 0.745106 0.106945
H32   H     H_    0.500808 0.119217 0.654629 0.118117
H33   H     H_    0.523507 0.881438 0.653952 0.113566
H34   H     H_    0.717331 0.619207 0.500742 0.127395
H35   H     H_    0.609265 0.935274 0.733699 0.107001
H36   H     H_    0.733746 0.921726 0.709825 0.111990
H37   H     H_    0.772833 0.850811 0.607260 0.113058
H38   H     H_    0.687854 0.793849 0.528465 0.105220
H39   H     H_    0.317318 0.204734 0.444903 0.102692
H40   H     H_    0.245303 0.146339 0.354654 0.114766
H41   H     H_    0.299635 0.075266 0.259510 0.112071
H42   H     H_    0.426538 0.062663 0.254715 0.106834
H43   H     H_    0.499009 0.118528 0.345591 0.112714
H44   H     H_    0.843039 0.381102 0.501812 0.108250
H45   H     H_    0.157124 0.619241 0.497819 0.107824
H46   H     H_    0.157179 0.381221 0.499767 0.110838
H47   H     H_    0.842651 0.619127 0.500131 0.110217
H48   H     H_    0.937710 0.586243 0.577639 0.117494
N1    N     N_R   0.539825 0.452538 0.035944 -0.202121
N2    N     N_R   0.460426 0.547156 0.964055 -0.202010
N3    N     N_R   0.541101 0.451354 0.967024 -0.229828
N4    N     N_R   0.459152 0.548342 0.032973 -0.229801
N5    N     N_R   0.500000 0.683620 0.500000 -0.237335
N6    N     N_R   0.500000 0.316380 0.500000 -0.237522
O1    O     O_R   0.400190 0.561980 0.499990 -0.507472
O2    O     O_2   0.358192 0.381187 0.722390 -0.458811
O3    O     O_2   0.679174 0.531618 0.725364 -0.461355
O4    O     O_2   0.320740 0.469101 0.274392 -0.461067
O5    O     O_2   0.675335 0.541038 0.160825 -0.445037
O6    O     O_2   0.325056 0.457671 0.839264 -0.445069
O7    O     O_2   0.643623 0.618435 0.836362 -0.455137
O8    O     O_2   0.356200 0.381850 0.163709 -0.455434
O9    O     O_R   0.599810 0.438020 0.500010 -0.504714
O10   O     O_R   0.599810 0.561980 0.500010 -0.516664
O11   O     O_R   0.400190 0.438020 0.499990 -0.513732
O12   O     O_R   0.499990 0.561970 0.400150 -0.485089
O13   O     O_R   0.500010 0.438030 0.599850 -0.488557
O14   O     O_R   0.500010 0.561970 0.599850 -0.509147
O15   O     O_R   0.499990 0.438030 0.400150 -0.511837
O16   O     O_2   0.642527 0.617872 0.277583 -0.458772

loop_
_geom_bond_atom_site_label_1
_geom_bond_atom_site_label_2
_ccdc_geom_bond_type
C66   C68   A    
C52   H17   S    
C8    C13   A    
C18   C21   A    
C65   H28   S    
C49   O16   D    
C19   C20   A    
C75   C76   A    
C81   C82   A    
C39   N1    A    
Cu1   Cu2   S    
C51   H16   S    
C7    C11   A    
C30   C54   S    
C52   O4    D    
C29   C53   S    
C30   C35   A    
C75   H37   S    
C14   C21   S    
Cu2   O13   S    
C1    C56   S    
C27   C37   A    
C83   H43   S    
C10   C15   A    
C26   C50   S    
C71   C76   A    
C11   C14   A    
C11   C71   S    
C77   C83   A    
C53   H18   S    
C44   H44   S    
C29   C33   A    
C58   C63   A    
C17   C20   A    
C9    C58   S    
C73   C74   A    
C2    H4    S    
Cu1   O10   S    
C42   C56   A    
C27   C51   S    
C68   C69   A    
C41   C46   A    
C34   C46   A    
C18   H11   S    
C38   N2    A    
C43   C48   A    
Cu1   N5    S    
C61   C62   A    
Cu2   N6    S    
C43   H34   S    
C54   O6    D    
Cu1   O14   S    
C79   H39   S    
C39   N4    A    
C59   C60   A    
C81   H41   S    
C40   C45   A    
C32   C57   S    
C60   H24   S    
C24   O14   A    
C5    N5    A    
C22   O12   A    
C22   O15   A    
C77   C79   A    
C25   C29   A    
C15   C20   S    
C7    H7    S    
C13   C77   S    
C66   H29   S    
C55   H20   S    
C27   C31   A    
C76   H38   S    
C12   O10   A    
C48   H47   S    
C28   C32   A    
C35   C38   S    
C8    H8    S    
N2    N4    A    
C74   C75   A    
Cu2   O9    S    
Cu1   O1    S    
C46   H45   S    
C4    C23   S    
C19   H13   S    
C72   C73   A    
C3    C34   S    
C58   C59   A    
C23   C44   A    
C60   C61   A    
C2    C4    A    
Cu2   O15   S    
C41   C56   A    
C5    C9    A    
C62   C63   A    
C2    C78   A    
C55   O7    D    
C40   C44   A    
C67   H48   S    
C53   O5    D    
C17   C18   A    
C9    C14   A    
C26   C37   A    
C17   H10   S    
C33   C39   S    
C43   C45   A    
C82   H42   S    
C5    H5    S    
C68   H30   S    
C57   H21   S    
C26   C30   A    
C64   C70   A    
C13   C15   A    
C31   C35   A    
C84   H3    S    
C61   H25   S    
C24   O13   A    
C40   H1    S    
C78   H2    S    
C24   C37   S    
N1    N3    A    
C16   H9    S    
C23   C48   A    
C54   H19   S    
C74   H36   S    
C12   O9    A    
C42   H23   S    
C10   C64   S    
C80   C81   A    
C6    C10   A    
C4    C67   A    
C16   C21   A    
C12   C45   S    
C51   O3    D    
C22   C36   S    
C73   H35   S    
C59   H22   S    
C47   H46   S    
C8    N6    A    
C64   C65   A    
Cu1   O12   S    
C71   C72   A    
Cu2   O11   S    
C32   C33   A    
C49   H14   S    
C7    N5    A    
C28   C52   S    
C80   H40   S    
C70   H32   S    
C16   C19   A    
C6    H6    S    
C72   H33   S    
C69   H31   S    
C38   N3    A    
C1    O11   A    
C42   C47   A    
C65   C66   A    
C6    N6    A    
C69   C70   A    
C25   C49   S    
C1    O1    A    
C25   C36   A    
C79   C80   A    
C63   H27   S    
C67   C84   A    
C62   H26   S    
C28   C36   A    
C50   H15   S    
C82   C83   A    
C57   O8    D    
C3    C84   A    
C41   H12   S    
C34   C47   A    
C31   C55   S    
C3    C78   A    
C50   O2    D    
