data_mof_unit_8262.cif
_audit_creation_date              2012-12-11T15:29:40-0500
_audit_creation_method            fapswitch 2.2
_symmetry_space_group_name_H-M    P1
_symmetry_Int_Tables_number       1
_space_group_crystal_system       triclinic
_cell_length_a                    21.541115
_cell_length_b                    7.286269
_cell_length_c                    15.082211
_cell_angle_alpha                 89.605397
_cell_angle_beta                  72.644591
_cell_angle_gamma                 90.507634
_cell_volume                      2259.24453199

loop_
_atom_site_label
_atom_site_type_symbol
_atom_type_description
_atom_site_fract_x
_atom_site_fract_y
_atom_site_fract_z
_atom_type_partial_charge
O1    O     O_R   0.464160 0.506670 0.130070 -0.551814
O2    O     O_R   0.535840 0.006670 0.869930 -0.536656
O3    O     O_R   0.589710 0.179080 0.006710 -0.537722
O4    O     O_R   0.410290 0.679080 0.993290 -0.528216
C1    C     C_R   0.615067 0.345758 0.008560 0.754386
C2    C     C_R   0.384084 0.845041 0.995856 0.740296
O5    O     O_R   0.467940 0.177220 0.138010 -0.542416
O6    O     O_R   0.532060 0.677220 0.861990 -0.540565
O7    O     O_R   0.413200 0.002810 0.002170 -0.550613
O8    O     O_R   0.586800 0.502810 0.997830 -0.545392
C3    C     C_R   0.455985 0.344802 0.174621 0.700717
C4    C     C_R   0.539762 0.847527 0.825770 0.746821
O9    O     O_3   0.482180 0.337850 0.955280 -0.381534
O10   O     O_3   0.517820 0.837850 0.044720 -0.394522
V1    V     V_3+5 0.503310 0.064600 0.008300 1.378702
V2    V     V_3+5 0.496690 0.564600 0.991700 1.391793
C5    C     C_R   0.566077 0.861146 0.723608 -0.165472
C6    C     C_R   0.431562 0.343172 0.277437 -0.183726
C7    C     C_R   0.923712 0.863071 0.272375 -0.176724
C8    C     C_R   0.072372 0.373784 0.724780 -0.169969
C9    C     C_R   0.550439 0.808502 0.573638 0.840212
C10   C     C_R   0.431061 0.169889 0.414943 0.758620
C11   C     C_R   0.524793 0.831870 0.669234 -0.296001
C12   C     C_R   0.461317 0.221631 0.323696 -0.226239
C13   C     C_R   0.633707 0.881575 0.680898 0.148856
C14   C     C_R   0.372906 0.429081 0.327615 0.122053
C15   C     C_R   0.659294 0.886462 0.581938 -0.110823
C16   C     C_R   0.334467 0.342641 0.412557 -0.061865
C17   C     C_R   0.617936 0.828285 0.529849 -0.275541
C18   C     C_R   0.366233 0.219393 0.458170 -0.287134
C19   C     C_R   0.726397 0.922909 0.534351 -0.019928
C20   C     C_R   0.265845 0.368149 0.452221 -0.014513
C21   C     C_R   0.754693 0.861234 0.442189 -0.134483
C22   C     C_R   0.233480 0.301369 0.543345 -0.131506
C23   C     C_R   0.713070 0.775485 0.397227 0.613777
C24   C     C_R   0.266554 0.175469 0.584333 0.600114
C25   C     C_R   0.645665 0.772725 0.437718 0.604156
C26   C     C_R   0.331794 0.138092 0.543299 0.581041
C27   C     C_R   0.766100 0.018136 0.577628 -0.150224
C28   C     C_R   0.227456 0.438973 0.399427 -0.179428
C29   C     C_R   0.833388 0.998388 0.548574 0.114447
C30   C     C_R   0.160773 0.469101 0.437268 0.130050
C31   C     C_R   0.863144 0.925446 0.460101 0.049295
C32   C     C_R   0.130426 0.428984 0.532457 0.054716
C33   C     C_R   0.823869 0.878782 0.401950 -0.018886
C34   C     C_R   0.167438 0.350323 0.587071 -0.015816
C35   C     C_R   0.931432 0.911614 0.425569 -0.174883
C36   C     C_R   0.064349 0.469862 0.575178 -0.183297
C37   C     C_R   0.961267 0.877844 0.332509 -0.283862
C38   C     C_R   0.035926 0.441755 0.669910 -0.263305
C39   C     C_R   0.855697 0.863035 0.305738 0.671326
C40   C     C_R   0.138233 0.335094 0.684756 0.678067
H1    H     H_    0.013923 0.877173 0.306181 0.175162
H2    H     H_    0.985960 0.481808 0.701681 0.154715
H3    H     H_    0.473019 0.812501 0.701891 0.187841
H4    H     H_    0.507918 0.162184 0.287681 0.188292
H5    H     H_    0.744375 0.096303 0.639120 0.153952
H6    H     H_    0.248203 0.460619 0.325895 0.124842
H7    H     H_    0.962967 0.935756 0.468173 0.143280
H8    H     H_    0.034005 0.528092 0.536940 0.146435
C41   C     C_3   0.217663 0.669959 0.969017 0.507456
C42   C     C_3   0.778129 0.173937 0.049663 0.514519
H9    H     H_    0.190385 0.563117 0.018998 0.049156
H10   H     H_    0.803042 0.059644 0.004787 0.045950
C43   C     C_3   0.290178 0.666339 0.967694 0.406075
C44   C     C_3   0.704817 0.172196 0.052697 0.404281
H11   H     H_    0.295449 0.557564 0.017069 -0.018185
H12   H     H_    0.696882 0.056594 0.009788 -0.012126
H13   H     H_    0.268333 0.763670 0.137933 0.152147
H14   H     H_    0.734599 0.226090 0.882752 0.167376
C45   C     C_3   0.193365 0.906469 0.096205 0.351747
C46   C     C_3   0.807025 0.392119 0.911598 0.367050
C47   C     C_3   0.227203 0.008017 0.930276 -0.389451
C48   C     C_3   0.774120 0.516306 0.071383 -0.392914
C49   C     C_3   0.187041 0.861837 0.999033 -0.208550
C50   C     C_3   0.812065 0.360459 0.009885 -0.219595
H15   H     H_    0.207466 0.145426 0.954687 0.166358
H16   H     H_    0.796102 0.650141 0.041380 0.164410
H17   H     H_    0.220219 0.989607 0.860614 0.272374
H18   H     H_    0.780404 0.507040 0.141914 0.268274
C51   C     C_3   0.312572 0.856379 0.996143 -0.176143
C52   C     C_3   0.686415 0.355287 0.012149 -0.185391
C53   C     C_3   0.265436 0.890254 0.097421 -0.152807
C54   C     C_3   0.736023 0.363589 0.911136 -0.181463
C55   C     C_3   0.301068 0.997215 0.921559 -0.061354
C56   C     C_3   0.700140 0.507273 0.079331 -0.037828
H19   H     H_    0.323540 0.935457 0.852158 0.252345
H20   H     H_    0.676320 0.458023 0.151686 0.255642
H21   H     H_    0.175310 0.048062 0.114692 0.112284
H22   H     H_    0.824091 0.534147 0.888172 0.116118
O11   O     O_R   0.913210 0.208550 0.002110 -0.516203
O12   O     O_R   0.086790 0.708550 0.997890 -0.516008
O13   O     O_R   0.032060 0.539960 0.861980 -0.539478
O14   O     O_R   0.967940 0.039960 0.138020 -0.539014
C57   C     C_R   0.044454 0.374074 0.825949 0.814841
C58   C     C_R   0.955209 0.871727 0.173268 0.796547
O15   O     O_R   0.910290 0.538020 0.993280 -0.565275
O16   O     O_R   0.089710 0.038020 0.006720 -0.561195
O17   O     O_R   0.964160 0.712340 0.130090 -0.543756
O18   O     O_R   0.035840 0.212340 0.869910 -0.530076
C59   C     C_R   0.883459 0.369341 0.004542 0.801794
C60   C     C_R   0.115892 0.869938 0.000986 0.795050
O19   O     O_3   0.017820 0.379210 0.044690 -0.397071
O20   O     O_3   0.982180 0.879210 0.955310 -0.390403
V3    V     V_3+5 0.996690 0.652500 0.991710 1.550575
V4    V     V_3+5 0.003310 0.152500 0.008290 1.563073
F1    F     F_    0.608248 0.693659 0.390040 -0.596458
F2    F     F_    0.360153 0.012758 0.585557 -0.570934
F3    F     F_    0.212500 0.625498 0.882139 -0.587833
F4    F     F_    0.783483 0.143115 0.137857 -0.573329
F5    F     F_    0.329566 0.618441 0.880187 -0.648183
F6    F     F_    0.664981 0.140182 0.142570 -0.641657
F7    F     F_    0.153902 0.788636 0.162309 -0.740749
F8    F     F_    0.847389 0.271967 0.849854 -0.729468
F9    F     F_    0.822524 0.876497 0.242359 -0.595180
F10   F     F_    0.174870 0.312338 0.743344 -0.612638
C61   C     C_3   0.331871 0.192782 0.915258 -0.337367
C62   C     C_3   0.393463 0.214292 0.832441 -0.522900
H23   H     H_    0.429368 0.107568 0.834034 0.195294
H24   H     H_    0.381024 0.201898 0.766314 0.249578
H25   H     H_    0.415859 0.351668 0.833479 0.252934
H26   H     H_    0.297766 0.296496 0.903727 0.256695
H27   H     H_    0.341924 0.232937 0.980132 0.193291
C63   C     C_3   0.672716 0.701759 0.075084 -0.381670
C64   C     C_3   0.610219 0.734587 0.154364 -0.475356
H28   H     H_    0.573098 0.626782 0.157350 0.201620
H29   H     H_    0.621297 0.734187 0.221532 0.289741
H30   H     H_    0.590079 0.870672 0.145872 0.246747
H31   H     H_    0.707782 0.805060 0.085329 0.235906
H32   H     H_    0.665636 0.732007 0.006830 0.183884
C65   C     C_3   0.284100 0.048702 0.152987 -0.363609
C66   C     C_3   0.245483 0.037259 0.256099 -0.727564
H33   H     H_    0.247898 0.897597 0.284631 0.231625
H34   H     H_    0.266782 0.134494 0.295245 0.210134
H35   H     H_    0.193812 0.072253 0.266930 0.243791
H36   H     H_    0.335878 0.040588 0.150270 0.201033
H37   H     H_    0.275540 0.184207 0.124974 0.169226
C67   C     C_3   0.719143 0.488292 0.840663 -0.361936
C68   C     C_3   0.764122 0.458594 0.741704 -0.734120
H38   H     H_    0.779109 0.314269 0.731774 0.261487
H39   H     H_    0.738484 0.486985 0.689442 0.198212
H40   H     H_    0.808155 0.547689 0.727730 0.233647
H41   H     H_    0.669185 0.452612 0.839906 0.183352
H42   H     H_    0.722285 0.632829 0.861225 0.192852
C69   C     C_3   0.871399 0.065031 0.612125 -0.348983
C70   C     C_3   0.900366 0.255786 0.582768 -0.711858
H43   H     H_    0.940921 0.249779 0.517187 0.217446
H44   H     H_    0.862811 0.350133 0.572582 0.228441
H45   H     H_    0.919089 0.311756 0.637919 0.243081
H46   H     H_    0.839382 0.069366 0.684848 0.203812
H47   H     H_    0.909868 0.966805 0.614784 0.174447
C71   C     C_3   0.124910 0.553717 0.374470 -0.348414
C72   C     C_3   0.083170 0.411943 0.343588 -0.700942
H48   H     H_    0.114597 0.306917 0.299751 0.217926
H49   H     H_    0.048254 0.342662 0.404033 0.212105
H50   H     H_    0.055369 0.480995 0.301854 0.240433
H51   H     H_    0.094858 0.670630 0.409180 0.177210
H52   H     H_    0.159977 0.613585 0.310964 0.230997
F11   F     F_    0.509284 0.757003 0.525281 -0.544473
F12   F     F_    0.463330 0.055786 0.456848 -0.570199
C73   C     C_3   0.676675 0.830830 0.739706 -0.369867
C74   C     C_3   0.683412 0.977056 0.807515 -0.798993
H53   H     H_    0.671891 0.115532 0.786049 0.240651
H54   H     H_    0.651123 0.945198 0.878309 0.234859
H55   H     H_    0.734228 0.974009 0.810515 0.205048
H56   H     H_    0.654164 0.708519 0.779095 0.183624
H57   H     H_    0.725224 0.785718 0.698157 0.197619
C75   C     C_3   0.361680 0.626320 0.300557 -0.342470
C76   C     C_3   0.342250 0.757255 0.383049 -0.635771
H58   H     H_    0.376099 0.744302 0.425684 0.299424
H59   H     H_    0.344942 0.900548 0.356597 0.180128
H60   H     H_    0.291809 0.732316 0.427515 0.231279
H61   H     H_    0.407917 0.686073 0.255664 0.210622
H62   H     H_    0.327555 0.633534 0.258498 0.139832
F13   F     F_    0.736390 0.675732 0.318999 -0.607758
F14   F     F_    0.234274 0.065442 0.656705 -0.601398

loop_
_geom_bond_atom_site_label_1
_geom_bond_atom_site_label_2
_ccdc_geom_bond_type
C44   H12   S    
C3    C6    S    
C46   F8    S    
C15   C17   A    
C21   C33   A    
C76   H58   S    
O1    C3    A    
C46   C50   S    
C41   F3    S    
C2    O7    A    
C69   C70   S    
C27   C29   A    
C41   C49   S    
C75   H62   S    
C14   C75   S    
C5    C11   A    
C48   C50   S    
C7    C39   A    
H13   C53   S    
C10   C12   A    
C23   C25   A    
C70   H43   S    
C67   H41   S    
C68   H40   S    
C56   H20   S    
H14   C54   S    
C33   C39   A    
C27   H5    S    
C58   O17   A    
C34   C40   A    
C45   F7    S    
C41   H9    S    
C62   H23   S    
C43   F5    S    
C42   H10   S    
O13   V3    S    
C13   C73   S    
C66   H33   S    
C43   H11   S    
C6    C14   A    
C4    C5    S    
C64   H30   S    
C8    C38   A    
C19   C21   A    
C22   C34   A    
C72   H49   S    
C30   C71   S    
C29   C31   A    
C70   H44   S    
C73   H56   S    
O12   C60   A    
O15   V3    S    
C28   C30   A    
O2    C4    A    
O6    V2    S    
C2    C51   S    
C48   H18   S    
C26   F2    S    
C9    F11   S    
O11   V4    S    
C42   C50   S    
C30   C32   A    
O11   C59   A    
O20   V3    S    
C51   C53   S    
C32   C34   A    
C51   C55   S    
C36   H8    S    
C45   C53   S    
C40   F10   S    
C75   H61   S    
O17   V3    S    
C71   H52   S    
C46   C54   S    
C35   H7    S    
C28   H6    S    
C42   C44   S    
C55   H19   S    
C15   C19   A    
C16   C20   A    
C35   C37   A    
C65   H36   S    
C57   O18   A    
C52   C56   S    
C9    C17   A    
C36   C38   A    
C39   F9    S    
C62   H25   S    
C20   C22   A    
O4    V2    S    
O5    C3    A    
C61   H26   S    
C53   C65   S    
C65   H37   S    
O16   C60   A    
C44   C52   S    
C70   H45   S    
C46   H22   S    
C7    C37   A    
C43   C51   S    
C42   F4    S    
O6    C4    A    
C47   H17   S    
C63   H32   S    
O1    V2    S    
C38   H2    S    
C48   C56   S    
C72   H50   S    
O14   C58   A    
O2    V1    S    
C31   C33   A    
C47   C55   S    
C69   H47   S    
C45   H21   S    
C66   H34   S    
O4    C2    A    
C75   C76   S    
C8    C57   S    
C24   F14   S    
C52   C54   S    
C9    C11   A    
C56   C63   S    
C64   H28   S    
C76   H60   S    
C6    C12   A    
O9    V2    S    
C55   C61   S    
C13   C15   A    
C47   C49   S    
C65   C66   S    
O3    V1    S    
C74   H53   S    
C76   H59   S    
C50   C59   S    
C71   H51   S    
O14   V4    S    
C10   C18   A    
C74   H55   S    
C14   C16   A    
C69   H46   S    
O3    C1    A    
C68   H38   S    
C11   H3    S    
C12   H4    S    
O18   V4    S    
O16   V4    S    
C23   F13   S    
C16   C18   A    
O7    V1    S    
C5    C13   A    
C1    O8    A    
C8    C40   A    
C74   H54   S    
C73   C74   S    
C61   C62   S    
C24   C26   A    
C45   C49   S    
C1    C52   S    
C68   H39   S    
C10   F12   S    
C67   H42   S    
C66   H35   S    
C37   H1    S    
O5    V1    S    
C21   C23   A    
C19   C27   A    
C63   H31   S    
O19   V4    S    
C22   C24   A    
C20   C28   A    
C61   H27   S    
C62   H24   S    
C67   C68   S    
C54   C67   S    
C41   C43   S    
O12   V3    S    
C29   C69   S    
C71   C72   S    
O13   C57   A    
C48   H16   S    
C25   F1    S    
C17   C25   A    
C64   H29   S    
C73   H57   S    
C47   H15   S    
O10   V1    S    
O8    V2    S    
C18   C26   A    
C44   F6    S    
C72   H48   S    
C31   C35   A    
C49   C60   S    
O15   C59   A    
C7    C58   S    
C32   C36   A    
C63   C64   S    
