data_mof_unit_58972.cif
_audit_creation_date              2012-12-10T18:48:18-0500
_audit_creation_method            fapswitch 2.2
_symmetry_space_group_name_H-M    P1
_symmetry_Int_Tables_number       1
_space_group_crystal_system       triclinic
_cell_length_a                    13.865817
_cell_length_b                    18.136488
_cell_length_c                    19.306822
_cell_angle_alpha                 90.740389
_cell_angle_beta                  90.097474
_cell_angle_gamma                 84.391354
_cell_volume                      4831.57849718

loop_
_atom_site_label
_atom_site_type_symbol
_atom_type_description
_atom_site_fract_x
_atom_site_fract_y
_atom_site_fract_z
_atom_type_partial_charge
C1    C     C_R   0.501569 0.500385 0.632408 0.844159
C2    C     C_R   0.496152 0.499725 0.367019 0.853635
C3    C     C_R   0.465182 0.428299 0.260862 -0.415100
C4    C     C_R   0.437919 0.551124 0.743326 -0.363955
C5    C     C_R   0.484163 0.496585 0.290653 -0.255847
C6    C     C_R   0.504273 0.501758 0.708026 -0.270946
C7    C     C_R   0.522627 0.422562 0.034368 0.403939
C8    C     C_R   0.376075 0.507589 0.960835 0.436812
C9    C     C_R   0.515990 0.417141 0.962696 0.292211
C10   C     C_R   0.375079 0.507486 0.034751 0.271956
C11   C     C_R   0.459774 0.473509 0.926075 -0.220971
C12   C     C_R   0.455118 0.471315 0.070633 -0.150934
C13   C     C_R   0.555872 0.272645 0.544777 0.515624
C14   C     C_R   0.448851 0.727550 0.548098 0.503383
C15   C     C_R   0.547315 0.195605 0.546844 0.261782
C16   C     C_R   0.454697 0.805023 0.549040 0.222995
C17   C     C_R   0.493586 0.161912 0.495250 -0.102837
C18   C     C_R   0.500964 0.838437 0.494434 -0.095850
C19   C     C_R   0.438424 0.207441 0.448024 0.307477
C20   C     C_R   0.550683 0.792688 0.443680 0.319975
C21   C     C_R   0.443301 0.285371 0.452090 -0.171849
C22   C     C_R   0.549748 0.714524 0.448779 -0.163372
C23   C     C_R   0.683231 0.487848 0.500170 0.814412
C24   C     C_R   0.316774 0.512138 0.499553 0.814827
C25   C     C_R   0.409151 0.044913 0.495511 -0.328703
C26   C     C_R   0.584555 0.955564 0.487891 -0.318677
C27   C     C_R   0.409199 0.967349 0.493022 0.493789
C28   C     C_R   0.583969 0.033102 0.485255 0.489674
C29   C     C_R   0.497949 0.921508 0.491254 0.044210
C30   C     C_R   0.495646 0.078896 0.491176 0.035401
C31   C     C_1   0.213691 0.519799 0.497297 -0.175189
C32   C     C_1   0.786352 0.480089 0.501544 -0.185438
C33   C     C_2   0.022513 0.530144 0.492425 0.374142
C34   C     C_2   0.977611 0.469392 0.504989 0.375798
C35   C     C_1   0.873221 0.474345 0.503061 -0.042040
C36   C     C_1   0.126863 0.525340 0.495013 -0.042912
C37   C     C_R   0.489730 0.558272 0.247203 0.304976
C38   C     C_R   0.576595 0.459552 0.745959 0.335231
C39   C     C_R   0.485369 0.549061 0.175103 0.397175
C40   C     C_R   0.571671 0.460469 0.818505 0.398729
C41   C     C_R   0.465626 0.479953 0.146318 -0.123770
C42   C     C_R   0.486451 0.493517 0.852673 -0.130020
C43   C     C_R   0.454808 0.418920 0.188836 0.491999
C44   C     C_R   0.433240 0.550922 0.815559 0.507919
Cu1   Cu    Cu3+1 0.500030 0.426640 0.500000 0.964929
Cu2   Cu    Cu3+1 0.499970 0.573360 0.500000 0.965388
H1    H     H_    0.404461 0.322111 0.416051 0.166454
H2    H     H_    0.586282 0.677481 0.411178 0.190440
H3    H     H_    0.340911 0.078743 0.501253 0.176983
H4    H     H_    0.653341 0.921790 0.487455 0.175909
H5    H     H_    0.457636 0.382740 0.294966 0.185520
H6    H     H_    0.390551 0.591018 0.715069 0.198039
N1    N     N_R   0.500010 0.316380 0.499980 -0.240465
N2    N     N_R   0.499990 0.683620 0.500020 -0.241040
O1    O     O_R   0.500040 0.438020 0.599820 -0.532202
O2    O     O_R   0.499960 0.561980 0.400180 -0.585222
O3    O     O_R   0.500000 0.561930 0.599810 -0.533355
O4    O     O_R   0.500000 0.438070 0.400190 -0.590544
O5    O     O_R   0.637870 0.429290 0.499990 -0.574620
O6    O     O_R   0.362130 0.570710 0.500010 -0.572754
O7    O     O_R   0.637830 0.553200 0.499980 -0.563938
O8    O     O_R   0.362170 0.446800 0.500020 -0.567111
O9    O     O_3   0.031136 0.403107 0.519907 -0.757523
H7    H     H_    0.985425 0.365055 0.526747 0.311891
O10   O     O_3   0.969019 0.596311 0.477017 -0.758930
H8    H     H_    0.014820 0.633862 0.468210 0.310556
O11   O     O_3   0.389066 0.172626 0.395789 -0.612895
C45   C     C_3   0.299332 0.211163 0.376601 0.049987
H9    H     H_    0.269884 0.178896 0.333510 0.167191
H10   H     H_    0.307865 0.266107 0.354234 0.117772
C46   C     C_3   0.224737 0.215896 0.435738 -0.373563
H11   H     H_    0.213557 0.159126 0.452818 0.209887
H12   H     H_    0.251108 0.247190 0.480621 0.227664
C47   C     C_3   0.127655 0.254459 0.412342 -0.853494
H13   H     H_    0.136094 0.312371 0.397202 0.270747
H14   H     H_    0.074753 0.255518 0.455527 0.264023
H15   H     H_    0.098819 0.224181 0.367692 0.239040
O12   O     O_3   0.590609 0.827620 0.387970 -0.605172
C48   C     C_3   0.674102 0.788315 0.358324 0.061978
H16   H     H_    0.695229 0.821395 0.313763 0.171379
H17   H     H_    0.658871 0.734429 0.335076 0.153895
C49   C     C_3   0.760255 0.780887 0.408829 -0.398916
H18   H     H_    0.774814 0.836765 0.427935 0.214200
H19   H     H_    0.743608 0.747105 0.454048 0.227922
C50   C     C_3   0.851278 0.744213 0.373533 -0.849361
H20   H     H_    0.839656 0.687167 0.356000 0.269717
H21   H     H_    0.912634 0.741117 0.410716 0.262923
H22   H     H_    0.870482 0.777067 0.328292 0.240904
O13   O     O_3   0.321622 0.937096 0.496727 -0.585776
C51   C     C_3   0.292040 0.917008 0.429450 0.052615
H23   H     H_    0.245640 0.870849 0.435089 0.161748
H24   H     H_    0.353632 0.895469 0.395280 0.145364
C52   C     C_3   0.232234 0.982267 0.395179 -0.372061
H25   H     H_    0.172620 0.004154 0.430460 0.229276
H26   H     H_    0.278999 0.027339 0.385223 0.231923
C53   C     C_3   0.189022 0.958923 0.326538 -0.898926
H27   H     H_    0.247542 0.937652 0.290166 0.263188
H28   H     H_    0.146914 0.007452 0.302884 0.254717
H29   H     H_    0.139688 0.915176 0.335021 0.254900
O14   O     O_3   0.671213 0.063667 0.480474 -0.586649
C54   C     C_3   0.689001 0.080513 0.410517 0.043634
H30   H     H_    0.731585 0.129322 0.410488 0.159377
H31   H     H_    0.621622 0.096800 0.380349 0.149257
C55   C     C_3   0.748745 0.015333 0.374712 -0.359368
H32   H     H_    0.815880 0.000263 0.404991 0.228659
H33   H     H_    0.706270 0.966541 0.372351 0.231908
C56   C     C_3   0.776165 0.034465 0.301082 -0.914553
H34   H     H_    0.709944 0.046311 0.269107 0.262752
H35   H     H_    0.821223 0.986773 0.277377 0.258002
H36   H     H_    0.818405 0.083453 0.301419 0.253574
O15   O     O_3   0.500619 0.628085 0.272971 -0.714500
H37   H     H_    0.449300 0.639599 0.308152 0.336969
O16   O     O_3   0.656657 0.421092 0.715265 -0.700469
H38   H     H_    0.661096 0.435324 0.666186 0.323832
O17   O     O_3   0.487129 0.611390 0.134302 -0.559021
C57   C     C_3   0.576164 0.610318 0.098234 0.062282
H39   H     H_    0.567158 0.654610 0.059006 0.169288
H40   H     H_    0.594261 0.558085 0.068684 0.081267
C58   C     C_3   0.660403 0.626489 0.146023 -0.320314
H41   H     H_    0.642237 0.680300 0.173451 0.248872
H42   H     H_    0.673022 0.582268 0.185207 0.209463
C59   C     C_3   0.753652 0.629707 0.104712 -0.957542
H43   H     H_    0.773796 0.575872 0.077803 0.253408
H44   H     H_    0.813429 0.641338 0.140328 0.266181
H45   H     H_    0.744258 0.674389 0.065753 0.260102
O18   O     O_3   0.654227 0.432096 0.853613 -0.530935
C60   C     C_3   0.695979 0.488847 0.891028 0.103455
H46   H     H_    0.754865 0.461462 0.923473 0.168042
H47   H     H_    0.643760 0.519092 0.927427 0.085575
C61   C     C_3   0.740926 0.543326 0.843257 -0.365687
H48   H     H_    0.792942 0.512120 0.807264 0.250061
H49   H     H_    0.683337 0.574449 0.812186 0.201487
C62   C     C_3   0.793705 0.598939 0.885228 -0.929212
H50   H     H_    0.742554 0.631120 0.921146 0.259414
H51   H     H_    0.824735 0.638029 0.849654 0.264271
H52   H     H_    0.853627 0.569821 0.915628 0.259097
O19   O     O_3   0.429841 0.353800 0.156325 -0.575751
C63   C     C_3   0.443244 0.288555 0.196136 0.116033
H53   H     H_    0.411916 0.244125 0.165915 0.162940
H54   H     H_    0.400204 0.293144 0.244667 0.105890
C64   C     C_3   0.551131 0.263088 0.207521 -0.346952
H55   H     H_    0.585062 0.246408 0.156876 0.247242
H56   H     H_    0.590004 0.308617 0.229575 0.216566
C65   C     C_3   0.564070 0.197736 0.256663 -0.936484
H57   H     H_    0.533436 0.214210 0.308290 0.277242
H58   H     H_    0.642481 0.180087 0.262951 0.251608
H59   H     H_    0.527581 0.150325 0.235756 0.268182
O20   O     O_3   0.380154 0.609051 0.849058 -0.611393
C66   C     C_3   0.430991 0.673114 0.848524 0.019170
H60   H     H_    0.376512 0.722091 0.845083 0.166439
H61   H     H_    0.480106 0.675927 0.803032 0.142847
C67   C     C_3   0.487983 0.679084 0.915975 -0.369349
H62   H     H_    0.437297 0.681128 0.960659 0.229071
H63   H     H_    0.540953 0.629607 0.921322 0.201680
C68   C     C_3   0.542576 0.748158 0.917274 -0.915927
H64   H     H_    0.595116 0.746189 0.873749 0.256255
H65   H     H_    0.583148 0.750967 0.966705 0.252771
H66   H     H_    0.491026 0.798784 0.913100 0.262172
O21   O     O_3   0.588769 0.373917 0.068896 -0.543053
C69   C     C_3   0.673456 0.409089 0.082491 0.066973
H67   H     H_    0.660973 0.448065 0.127193 0.124425
H68   H     H_    0.696323 0.439890 0.036737 0.116283
C70   C     C_3   0.755969 0.350731 0.101084 -0.305334
H69   H     H_    0.735834 0.320302 0.147638 0.207241
H70   H     H_    0.768573 0.310455 0.057382 0.241138
C71   C     C_3   0.849316 0.386246 0.116006 -0.927639
H71   H     H_    0.872034 0.415788 0.069622 0.255714
H72   H     H_    0.907857 0.342627 0.129602 0.260749
H73   H     H_    0.838575 0.426115 0.160140 0.257915
O22   O     O_3   0.291119 0.519202 0.921570 -0.574183
C72   C     C_3   0.228175 0.582503 0.940838 0.221480
H74   H     H_    0.211361 0.615373 0.893434 0.161105
H75   H     H_    0.260699 0.621186 0.977294 0.166842
C73   C     C_3   0.131598 0.558603 0.966760 -0.338629
H76   H     H_    0.095533 0.530634 0.923686 0.209814
H77   H     H_    0.143776 0.518161 0.009261 0.263717
C74   C     C_3   0.064222 0.624892 0.992293 -0.919917
H78   H     H_    0.097823 0.652793 0.036463 0.276325
H79   H     H_    0.994735 0.605791 0.009928 0.258644
H80   H     H_    0.048734 0.665109 0.949843 0.251006
O23   O     O_3   0.559609 0.353822 0.931217 -0.636271
H81   H     H_    0.524453 0.345645 0.887436 0.337846
O24   O     O_3   0.295108 0.539992 0.070252 -0.740955
H82   H     H_    0.296514 0.523933 0.119036 0.341793
O25   O     O_3   0.616741 0.304728 0.590748 -0.573961
C75   C     C_3   0.715348 0.281774 0.575047 0.110891
H83   H     H_    0.749685 0.330398 0.556090 0.152981
H84   H     H_    0.726526 0.237880 0.533861 0.126322
C76   C     C_3   0.768873 0.254346 0.640655 -0.307975
H85   H     H_    0.758350 0.297208 0.682205 0.266474
H86   H     H_    0.739468 0.203409 0.659086 0.250438
C77   C     C_3   0.877208 0.236991 0.627346 -0.917909
H87   H     H_    0.889880 0.194037 0.585946 0.262589
H88   H     H_    0.913533 0.215889 0.675457 0.267414
H89   H     H_    0.909582 0.287848 0.611695 0.253286
O26   O     O_3   0.396032 0.695230 0.598118 -0.585694
C78   C     C_3   0.295888 0.713652 0.586080 0.079856
H90   H     H_    0.276091 0.700220 0.531669 0.136749
H91   H     H_    0.275006 0.773544 0.596177 0.188617
C79   C     C_3   0.237722 0.669681 0.635228 -0.346633
H92   H     H_    0.257442 0.609414 0.626576 0.224391
H93   H     H_    0.255538 0.683802 0.689666 0.219925
C80   C     C_3   0.128951 0.687036 0.624121 -0.899326
H94   H     H_    0.109322 0.674074 0.569879 0.255476
H95   H     H_    0.106914 0.746508 0.635391 0.255782
H96   H     H_    0.088920 0.652961 0.659388 0.265163
O27   O     O_3   0.596566 0.153354 0.597316 -0.579226
C81   C     C_3   0.530990 0.134455 0.648881 0.048519
H97   H     H_    0.561502 0.081340 0.671861 0.172627
H98   H     H_    0.458220 0.124452 0.628076 0.127926
C82   C     C_3   0.520307 0.193894 0.706276 -0.330924
H99   H     H_    0.592777 0.202625 0.727673 0.237808
H100  H     H_    0.487625 0.247071 0.684650 0.235562
C83   C     C_3   0.456043 0.171270 0.764841 -0.899222
H101  H     H_    0.382423 0.163537 0.744974 0.254826
H102  H     H_    0.449699 0.215325 0.805523 0.267765
H103  H     H_    0.488013 0.118847 0.788339 0.258414
O28   O     O_3   0.412256 0.848239 0.602353 -0.577591
C84   C     C_3   0.482043 0.855069 0.654739 0.073458
H104  H     H_    0.549014 0.875774 0.633460 0.134139
H105  H     H_    0.501095 0.800484 0.679671 0.149714
C85   C     C_3   0.439569 0.910566 0.709417 -0.313267
H106  H     H_    0.418818 0.964840 0.684631 0.223286
H107  H     H_    0.373453 0.890365 0.732001 0.223578
C86   C     C_3   0.512236 0.921276 0.767238 -0.952806
H108  H     H_    0.533445 0.867811 0.793177 0.260413
H109  H     H_    0.478883 0.961433 0.806253 0.261605
H110  H     H_    0.577899 0.943347 0.745992 0.258254

loop_
_geom_bond_atom_site_label_1
_geom_bond_atom_site_label_2
_ccdc_geom_bond_type
C22   H2    S    
C80   H94   S    
C52   H25   S    
C17   C30   S    
C5    C37   A    
C76   C77   S    
C56   H35   S    
C32   C35   T    
C70   H69   S    
C72   H74   S    
C33   C36   S    
C55   H33   S    
O28   C84   S    
C33   O10   S    
C39   C41   A    
Cu1   Cu2   S    
C23   O5    A    
C80   H95   S    
C3    C43   A    
O18   C60   S    
C47   H14   S    
C4    H6    S    
C70   H70   S    
C66   H61   S    
C50   H20   S    
C83   H102  S    
C50   H22   S    
C52   H26   S    
C7    O21   S    
O22   C72   S    
O17   C57   S    
C53   H29   S    
Cu1   O8    S    
C86   H110  S    
C57   H39   S    
C11   C42   S    
C78   H91   S    
C34   C35   S    
C76   H86   S    
C73   H76   S    
C34   O9    S    
C49   H19   S    
C44   O20   S    
C61   H48   S    
C64   H55   S    
Cu1   O5    S    
O25   C75   S    
C82   H99   S    
C79   H92   S    
C74   H79   S    
C47   H15   S    
C53   H28   S    
C62   H52   S    
C56   H34   S    
C6    C38   A    
C19   O11   S    
Cu2   O6    S    
C28   O14   S    
C40   C42   A    
C43   O19   S    
Cu1   N1    S    
C79   C80   S    
C54   H31   S    
C68   H66   S    
C71   H72   S    
C10   O24   S    
C41   C43   A    
C78   H90   S    
C42   C44   A    
C65   H59   S    
C55   H32   S    
C80   H96   S    
C8    O22   S    
C86   H108  S    
C13   N1    A    
C58   H42   S    
C7    C12   A    
C72   C73   S    
Cu1   O4    S    
C13   O25   S    
C47   H13   S    
Cu2   O7    S    
C1    C6    S    
C54   H30   S    
C70   C71   S    
O20   C66   S    
C22   N2    A    
C69   C70   S    
C64   C65   S    
C81   H97   S    
C84   H104  S    
C46   H12   S    
C38   O16   S    
C3    H5    S    
C83   H101  S    
C45   H9    S    
C4    C44   A    
C85   C86   S    
O23   H81   S    
C83   H103  S    
C2    C5    S    
O27   C81   S    
C64   H56   S    
C77   H88   S    
C78   C79   S    
C61   H49   S    
O24   H82   S    
C60   H47   S    
C12   C41   S    
C1    O3    A    
C48   C49   S    
C72   H75   S    
C51   H24   S    
O21   C69   S    
C67   C68   S    
C24   O6    A    
C74   H80   S    
C40   O18   S    
C53   H27   S    
Cu2   N2    S    
C33   C34   D    
C18   C29   S    
C16   O28   S    
C68   H65   S    
C9    C11   A    
C73   C74   S    
C10   C12   A    
C26   C29   A    
C65   H58   S    
O11   C45   S    
C82   H100  S    
C20   C22   A    
C74   H78   S    
C52   C53   S    
C39   O17   S    
C13   C15   A    
Cu2   O3    S    
C81   C82   S    
C71   H71   S    
C56   H36   S    
C14   C16   A    
C48   H16   S    
C66   C67   S    
C4    C6    A    
C75   H84   S    
C60   H46   S    
C14   N2    A    
C51   C52   S    
C48   H17   S    
O16   H38   S    
C58   C59   S    
C25   C30   A    
C15   C17   A    
C14   O26   S    
C85   H107  S    
C24   O8    A    
O15   H37   S    
C19   C21   A    
O12   C48   S    
C82   C83   S    
C8    C10   A    
C67   H63   S    
O26   C78   S    
C3    C5    A    
C63   C64   S    
C16   C18   A    
C46   C47   S    
C58   H41   S    
C2    O4    A    
C45   C46   S    
C63   H54   S    
C25   C27   A    
C49   C50   S    
O19   C63   S    
C26   C28   A    
C57   C58   S    
C20   O12   S    
C65   H57   S    
C23   C32   S    
C59   H45   S    
C26   H4    S    
C77   H89   S    
C75   H83   S    
C60   C61   S    
C46   H11   S    
C37   C39   A    
C81   H98   S    
C2    O2    A    
C66   H60   S    
C77   H87   S    
C84   C85   S    
C38   C40   A    
C51   H23   S    
C62   H50   S    
C27   C29   A    
C75   C76   S    
C8    C11   A    
C21   N1    A    
C28   C30   A    
O14   C54   S    
C86   H109  S    
C73   H77   S    
C57   H40   S    
C27   O13   S    
C18   C20   A    
C84   H105  S    
O10   H8    S    
C1    O1    A    
C76   H85   S    
C69   H67   S    
C25   H3    S    
C24   C31   S    
C9    O23   S    
C63   H53   S    
O9    H7    S    
C61   C62   S    
C17   C19   A    
C7    C9    A    
C50   H21   S    
C23   O7    A    
C37   O15   S    
C67   H62   S    
Cu1   O1    S    
C71   H73   S    
C79   H93   S    
C49   H18   S    
Cu2   O2    S    
C68   H64   S    
C62   H51   S    
C45   H10   S    
C31   C36   T    
C54   C55   S    
C59   H43   S    
O13   C51   S    
C59   H44   S    
C85   H106  S    
C55   C56   S    
C15   O27   S    
C69   H68   S    
C21   H1    S    
