data_mof_unit_31643.cif
_audit_creation_date              2012-12-10T18:32:51-0500
_audit_creation_method            fapswitch 2.2
_symmetry_space_group_name_H-M    P1
_symmetry_Int_Tables_number       1
_space_group_crystal_system       triclinic
_cell_length_a                    14.985978
_cell_length_b                    15.475907
_cell_length_c                    15.716945
_cell_angle_alpha                 89.842595
_cell_angle_beta                  105.240591
_cell_angle_gamma                 82.150098
_cell_volume                      3481.09713413

loop_
_atom_site_label
_atom_site_type_symbol
_atom_type_description
_atom_site_fract_x
_atom_site_fract_y
_atom_site_fract_z
_atom_type_partial_charge
C1    C     C_R   0.441542 0.662244 0.485847 0.860056
C2    C     C_3   0.388094 0.501416 0.020320 -0.438773
C3    C     C_3   0.488348 0.505999 0.079307 0.328049
C4    C     C_3   0.553272 0.425727 0.061327 -0.418530
C5    C     C_3   0.556220 0.430075 0.964411 -0.417987
C6    C     C_1   0.489769 0.503657 0.171359 -0.107942
C7    C     C_1   0.496830 0.508915 0.824577 -0.112920
C8    C     C_1   0.501790 0.505130 0.750631 -0.191272
C9    C     C_R   0.405642 0.754825 0.467236 -0.055277
C10   C     C_R   0.592249 0.245738 0.504101 -0.076851
C11   C     C_R   0.280420 0.876349 0.437525 -0.210528
C12   C     C_R   0.501307 0.500541 0.661748 0.908699
C13   C     C_R   0.310825 0.787162 0.454046 -0.202885
C14   C     C_R   0.468599 0.811195 0.460098 -0.267660
C15   C     C_R   0.439658 0.900358 0.442145 0.089067
C16   C     C_R   0.344641 0.933421 0.433909 0.180387
C17   C     C_R   0.504732 0.958012 0.439885 0.070231
C18   C     C_R   0.477662 0.048070 0.446129 0.080893
C19   C     C_R   0.381405 0.079923 0.432310 -0.235511
C20   C     C_R   0.315778 0.023114 0.424733 -0.246617
C21   C     C_R   0.595957 0.928781 0.432637 -0.236656
C22   C     C_R   0.661814 0.985598 0.441667 -0.242300
C23   C     C_R   0.558318 0.337765 0.511025 0.873860
C24   C     C_R   0.640665 0.072477 0.462918 0.117429
C25   C     C_R   0.547767 0.103268 0.466026 0.080214
C26   C     C_R   0.708997 0.130180 0.479956 0.003730
C27   C     C_R   0.682925 0.217266 0.498047 -0.248262
C28   C     C_R   0.527750 0.187607 0.492799 -0.268635
C29   C     C_R   0.843446 0.637517 0.630194 -0.321941
C30   C     C_R   0.753365 0.616499 0.606579 0.015470
C31   C     C_R   0.795181 0.507132 0.512923 -0.061472
C32   C     C_R   0.888226 0.524975 0.534378 -0.004672
C33   C     C_R   0.911216 0.592139 0.594103 0.181990
C34   C     C_R   0.498266 0.500039 0.338000 0.904785
C35   C     C_R   0.958056 0.479811 0.498009 0.078051
C36   C     C_R   0.049074 0.505600 0.519179 0.076116
C37   C     C_R   0.069086 0.571672 0.580446 -0.256458
C38   C     C_R   0.001384 0.613661 0.617297 -0.222846
C39   C     C_R   0.939892 0.409874 0.441244 -0.235925
C40   C     C_R   0.007124 0.368754 0.403349 -0.212604
C41   C     C_R   0.094648 0.395727 0.420140 0.182380
C42   C     C_R   0.117015 0.464270 0.478278 -0.003339
C43   C     C_R   0.160360 0.354443 0.379158 -0.326430
C44   C     C_R   0.247573 0.381447 0.395713 0.014983
C45   C     C_3   0.382143 0.516883 0.919474 0.062877
C46   C     C_R   0.206861 0.488754 0.491889 -0.053467
C47   C     C_3   0.530908 0.590756 0.960050 -0.416967
C48   C     C_3   0.524712 0.590232 0.056717 -0.391819
C49   C     C_1   0.493315 0.501695 0.247686 -0.188504
C50   C     C_3   0.489008 0.510778 0.913956 0.299719
H1    H     H_    0.625167 0.424382 0.105281 0.176205
H2    H     H_    0.242949 0.049589 0.415747 0.139949
H3    H     H_    0.461153 0.209545 0.505460 0.163899
H4    H     H_    0.733431 0.262668 0.507374 0.160284
H5    H     H_    0.729863 0.960074 0.433651 0.162809
H6    H     H_    0.207387 0.900980 0.429983 0.131128
H7    H     H_    0.260848 0.744024 0.458222 0.154109
H8    H     H_    0.541501 0.785014 0.473047 0.162352
H9    H     H_    0.354708 0.148726 0.425257 0.146535
H10   H     H_    0.617288 0.862560 0.417055 0.149876
H11   H     H_    0.019664 0.664130 0.663828 0.147266
H12   H     H_    0.230629 0.540009 0.534323 0.123563
H13   H     H_    0.770402 0.458217 0.467767 0.126322
H14   H     H_    0.605389 0.587811 0.959310 0.172638
H15   H     H_    0.136909 0.592275 0.602345 0.140068
H16   H     H_    0.144529 0.301634 0.335026 0.139577
H17   H     H_    0.495281 0.653675 0.925239 0.188020
H18   H     H_    0.478423 0.649139 0.067627 0.169492
H19   H     H_    0.595307 0.593676 0.101372 0.173153
H20   H     H_    0.545171 0.367947 0.931474 0.164440
H21   H     H_    0.629278 0.436275 0.963700 0.177152
H22   H     H_    0.528378 0.364127 0.075590 0.165135
N1    N     N_R   0.731690 0.552720 0.548990 -0.099062
N2    N     N_R   0.268300 0.447240 0.450950 -0.098455
O1    O     O_R   0.383120 0.605620 0.475300 -0.620816
O2    O     O_R   0.531890 0.639510 0.506740 -0.623981
O3    O     O_R   0.425580 0.483050 0.607130 -0.613076
O4    O     O_R   0.574360 0.516930 0.638570 -0.611620
O5    O     O_R   0.468110 0.360490 0.493260 -0.621829
O6    O     O_R   0.616880 0.394380 0.524700 -0.619524
O7    O     O_R   0.425640 0.483070 0.361430 -0.612726
O8    O     O_R   0.574420 0.516950 0.392870 -0.614258
Zn1   Zn    Zn3+2 0.400660 0.477370 0.479010 0.939813
Zn2   Zn    Zn3+2 0.599340 0.522630 0.520990 0.938130
H23   H     H_    0.334092 0.543075 0.043466 0.151237
C51   C     C_R   0.326735 0.445478 0.867528 0.104045
C52   C     C_R   0.360274 0.355264 0.884214 -0.155632
C53   C     C_R   0.313359 0.291534 0.836039 -0.137239
C54   C     C_R   0.228915 0.315338 0.772811 -0.100805
C55   C     C_R   0.189258 0.402579 0.760536 -0.126708
C56   C     C_R   0.235912 0.466468 0.808664 -0.167865
H24   H     H_    0.419310 0.332002 0.938159 0.122148
H25   H     H_    0.341576 0.223188 0.849501 0.126078
H26   H     H_    0.192407 0.265869 0.735924 0.126350
H27   H     H_    0.121196 0.420736 0.714741 0.146916
H28   H     H_    0.198006 0.531715 0.800050 0.145080
H29   H     H_    0.370967 0.435695 0.032950 0.161748
C57   C     C_R   0.330940 0.610638 0.882131 0.103978
C58   C     C_R   0.313749 0.632129 0.790702 -0.191515
C59   C     C_R   0.270863 0.714648 0.754432 -0.149373
C60   C     C_R   0.245006 0.779201 0.808163 -0.109134
C61   C     C_R   0.262326 0.761357 0.898314 -0.143265
C62   C     C_R   0.304998 0.678786 0.935235 -0.155276
H30   H     H_    0.329397 0.583609 0.745571 0.148373
H31   H     H_    0.257200 0.728260 0.684215 0.127497
H32   H     H_    0.211853 0.843213 0.780003 0.119809
H33   H     H_    0.243332 0.812117 0.940215 0.127279
H34   H     H_    0.318835 0.672151 0.005733 0.121009
C63   C     C_R   0.807615 0.102545 0.479450 0.112447
C64   C     C_R   0.846602 0.144250 0.421236 -0.161214
C65   C     C_R   0.940317 0.119965 0.422399 -0.130931
C66   C     C_R   0.995895 0.054414 0.481963 -0.107700
C67   C     C_R   0.957953 0.013290 0.540745 -0.138075
C68   C     C_R   0.864314 0.037480 0.539923 -0.167028
H35   H     H_    0.804376 0.195316 0.374890 0.120973
H36   H     H_    0.969884 0.151992 0.377163 0.117672
H37   H     H_    0.068416 0.035693 0.482755 0.113668
H38   H     H_    0.001202 0.962878 0.587193 0.124106
H39   H     H_    0.836030 0.005785 0.586467 0.131084
H40   H     H_    0.299542 0.349391 0.365401 0.132701
H41   H     H_    0.990062 0.315756 0.359770 0.134477
H42   H     H_    0.859977 0.688765 0.676146 0.142559
H43   H     H_    0.700392 0.650670 0.634405 0.135411
H44   H     H_    0.874361 0.384477 0.424917 0.134611

loop_
_geom_bond_atom_site_label_1
_geom_bond_atom_site_label_2
_ccdc_geom_bond_type
C10   C27   A    
C52   C53   A    
C60   C61   A    
C41   C42   A    
C36   C42   A    
C19   C20   A    
C4    H22   S    
C48   H19   S    
O6    Zn2   S    
C3    C6    S    
O2    Zn2   S    
C27   H4    S    
C55   H27   S    
C25   C28   A    
C40   H41   S    
C26   C27   A    
C37   C38   A    
C46   H12   S    
C36   C37   A    
C24   C26   A    
C45   C57   S    
C66   H37   S    
C31   N1    A    
C13   H7    S    
C44   H40   S    
C57   C62   A    
C29   C33   A    
C3    C48   S    
C2    H23   S    
C18   C19   A    
C42   C46   A    
C54   H26   S    
C9    C13   A    
C64   C65   A    
C56   H28   S    
C65   C66   A    
C2    H29   S    
C37   H15   S    
C65   H36   S    
C34   O7    A    
C23   O6    A    
N2    Zn1   S    
N1    Zn2   S    
C68   H39   S    
C8    C12   S    
C38   H11   S    
C58   H30   S    
C52   H24   S    
C12   O3    A    
C41   C43   A    
C18   C25   A    
C47   H17   S    
C66   C67   A    
O7    Zn1   S    
C47   C50   S    
C2    C45   S    
C14   H8    S    
C4    H1    S    
C1    O1    A    
C32   C35   A    
C31   H13   S    
C7    C8    T    
C1    C9    S    
C24   C25   A    
C21   H10   S    
C47   H14   S    
C30   N1    A    
C51   C52   A    
C19   H9    S    
C17   C21   A    
C39   H44   S    
C12   O4    A    
C35   C36   A    
C35   C39   A    
C9    C14   A    
C29   C30   A    
C11   C16   A    
C47   C48   S    
C16   C20   A    
C29   H42   S    
C17   C18   A    
C59   H31   S    
C61   H33   S    
C48   H18   S    
C44   N2    A    
C30   H43   S    
C26   C63   S    
C62   H34   S    
C63   C68   A    
C40   C41   A    
O8    Zn2   S    
C43   C44   A    
C22   C24   A    
C5    C50   S    
C3    C4    S    
C46   N2    A    
C67   C68   A    
C10   C28   A    
C60   H32   S    
C15   C17   A    
C53   H25   S    
C34   C49   S    
C1    O2    A    
C31   C32   A    
C7    C50   S    
C4    C5    S    
C5    H20   S    
C28   H3    S    
C22   H5    S    
C10   C23   S    
C33   C38   A    
C58   C59   A    
C51   C56   A    
C32   C33   A    
C45   C51   S    
C5    H21   S    
C63   C64   A    
O5    Zn1   S    
C11   C13   A    
O1    Zn1   S    
C55   C56   A    
C45   C50   S    
C43   H16   S    
C59   C60   A    
C2    C3    S    
C6    C49   T    
C61   C62   A    
C67   H38   S    
C39   C40   A    
O4    Zn2   S    
C53   C54   A    
C20   H2    S    
C57   C58   A    
O3    Zn1   S    
C14   C15   A    
C34   O8    A    
C23   O5    A    
C54   C55   A    
C21   C22   A    
C64   H35   S    
C11   H6    S    
C15   C16   A    
