data_mof_unit_43918.cif
_audit_creation_date              2013-03-05T16:01:27-0500
_audit_creation_method            fapswitch 2.2
_symmetry_space_group_name_H-M    P1
_symmetry_Int_Tables_number       1
_space_group_crystal_system       triclinic
_cell_length_a                    14.762686
_cell_length_b                    14.705608
_cell_length_c                    19.367813
_cell_angle_alpha                 75.984396
_cell_angle_beta                  103.003743
_cell_angle_gamma                 114.891279
_cell_volume                      3664.15457437

loop_
_atom_site_label
_atom_site_type_symbol
_atom_site_description
_atom_site_fract_x
_atom_site_fract_y
_atom_site_fract_z
_atom_type_partial_charge
O1    O     O_R   0.977910 0.338110 0.524620 -0.563710
O2    O     O_R   0.022090 0.661890 0.475380 -0.561106
O3    O     O_R   0.839850 0.379180 0.493080 -0.548529
O4    O     O_R   0.160150 0.620820 0.506920 -0.556588
C1    C     C_R   0.880006 0.312098 0.508741 0.845791
C2    C     C_R   0.119385 0.687625 0.488219 0.879033
O5    O     O_R   0.069040 0.479450 0.615630 -0.498978
O6    O     O_R   0.930960 0.520550 0.384370 -0.499066
O7    O     O_R   0.930990 0.520520 0.584090 -0.607441
O8    O     O_R   0.069010 0.479480 0.415910 -0.607003
C3    C     C_R   0.001049 0.501749 0.632281 0.854107
C4    C     C_R   0.997166 0.495646 0.367903 0.843965
Cu1   Cu    Cu3+1 0.081740 0.475680 0.518680 1.020622
Cu2   Cu    Cu3+1 0.918260 0.524320 0.481320 1.022795
C5    C     C_R   0.089968 0.517993 0.758328 0.523228
C6    C     C_R   0.904410 0.481570 0.241817 0.518436
C7    C     C_R   0.085153 0.516424 0.830465 -0.335653
C8    C     C_R   0.905040 0.475308 0.170348 -0.342630
H1    H     H_    0.153114 0.530795 0.868956 0.182004
H2    H     H_    0.839288 0.470513 0.130788 0.178920
C9    C     C_R   0.993846 0.496939 0.853372 -0.088627
C10   C     C_R   0.990100 0.475674 0.149136 -0.083833
C11   C     C_R   0.906703 0.485298 0.802076 0.518129
C12   C     C_R   0.073145 0.473768 0.201364 0.514195
C13   C     C_R   0.911526 0.487837 0.730357 -0.363772
C14   C     C_R   0.072777 0.479445 0.272154 -0.368010
H3    H     H_    0.843745 0.476442 0.691918 0.215991
H4    H     H_    0.137024 0.478326 0.311574 0.189628
C15   C     C_R   0.001543 0.503183 0.708134 -0.161827
C16   C     C_R   0.990990 0.485969 0.292668 -0.163886
N1    N     N_R   0.903937 0.456447 0.957225 -0.157865
N2    N     N_R   0.079039 0.512647 0.045982 -0.159246
N3    N     N_R   0.903226 0.450693 0.026701 -0.243572
N4    N     N_R   0.079694 0.518425 0.976533 -0.243819
C17   C     C_R   0.990815 0.478434 0.072540 0.444063
C18   C     C_R   0.992182 0.490780 0.930571 0.447370
C19   C     C_R   0.810543 0.204200 0.509045 -0.210903
C20   C     C_R   0.186575 0.794541 0.488406 -0.184298
C21   C     C_R   0.781802 0.025842 0.519756 0.503258
C22   C     C_R   0.223121 0.958616 0.518466 0.487030
C23   C     C_R   0.847708 0.128088 0.518596 -0.310705
C24   C     C_R   0.155078 0.860184 0.508840 -0.309713
C25   C     C_R   0.705110 0.177643 0.495815 0.402882
C26   C     C_R   0.286584 0.827238 0.476285 0.405266
C27   C     C_R   0.638488 0.074504 0.507568 -0.086389
C28   C     C_R   0.360167 0.918478 0.498123 -0.085808
C29   C     C_R   0.676955 0.998902 0.513983 -0.003178
C30   C     C_R   0.326233 0.986788 0.515125 -0.003633
C31   C     C_R   0.534071 0.045034 0.510385 0.100749
C32   C     C_R   0.465948 0.944165 0.503488 0.097405
C33   C     C_R   0.506525 0.870744 0.508678 -0.165249
C34   C     C_R   0.497385 0.111134 0.526054 -0.189604
C35   C     C_R   0.609961 0.897460 0.514953 -0.162170
C36   C     C_R   0.396048 0.082107 0.529445 -0.161616
H5    H     H_    0.637202 0.837774 0.520667 0.197801
H6    H     H_    0.372734 0.135395 0.543275 0.210033
H7    H     H_    0.078397 0.833894 0.519582 0.199077
H8    H     H_    0.927627 0.148268 0.521451 0.216848
H9    H     H_    0.460507 0.790505 0.513635 0.207528
H10   H     H_    0.547017 0.183869 0.540824 0.190842
N5    N     N_R   0.795420 0.560800 0.453240 -0.274135
N6    N     N_R   0.204580 0.439200 0.546760 -0.278918
C37   C     C_R   0.722563 0.680732 0.387341 0.182910
C38   C     C_R   0.288304 0.333534 0.621877 0.175738
C39   C     C_R   0.801749 0.647086 0.404116 0.424333
C40   C     C_R   0.203466 0.358638 0.600163 0.424040
C41   C     C_R   0.713228 0.507941 0.488381 0.023137
C42   C     C_R   0.286360 0.493421 0.511351 -0.016243
C43   C     C_R   0.632871 0.541939 0.476979 -0.047449
C44   C     C_R   0.372889 0.467711 0.527521 -0.050656
C45   C     C_R   0.636473 0.625671 0.421845 -0.112385
C46   C     C_R   0.374503 0.390856 0.587435 -0.095099
C47   C     C_R   0.548172 0.494656 0.516520 -0.037108
C48   C     C_R   0.459230 0.517724 0.489423 -0.056175
C49   C     C_R   0.461008 0.589099 0.424759 0.462307
C50   C     C_R   0.551500 0.428787 0.583281 0.463462
C51   C     C_R   0.551413 0.649065 0.397872 -0.194205
C52   C     C_R   0.464154 0.376808 0.616255 -0.214529
H11   H     H_    0.550327 0.708155 0.352131 0.207813
H12   H     H_    0.468385 0.329398 0.668115 0.195144
H13   H     H_    0.282879 0.558377 0.473097 0.248928
H14   H     H_    0.710816 0.438265 0.523470 0.219139
O9    O     O_3   0.180783 0.543716 0.733672 -0.568450
C53   C     C_3   0.242341 0.496735 0.781238 -0.187960
H15   H     H_    0.294408 0.491857 0.750243 0.193864
H16   H     H_    0.198217 0.417754 0.806332 0.190069
H17   H     H_    0.289355 0.543887 0.823075 0.145448
O10   O     O_3   0.818312 0.473152 0.265582 -0.577452
C54   C     C_3   0.763036 0.524032 0.214626 -0.211941
H18   H     H_    0.812715 0.598248 0.186643 0.190415
H19   H     H_    0.715804 0.540331 0.243293 0.196839
H20   H     H_    0.711044 0.474330 0.175456 0.141920
N7    N     N_R   0.114824 0.296563 0.633234 0.168032
O11   O     O_R   0.103012 0.319857 0.690277 -0.332947
O12   O     O_R   0.067363 0.202984 0.622464 -0.380890
N8    N     N_R   0.891112 0.707427 0.371461 0.167996
O13   O     O_R   0.944746 0.798505 0.386250 -0.352437
O14   O     O_R   0.900902 0.685889 0.313016 -0.335332
N9    N     N_R   0.730994 0.771756 0.335984 0.140578
O15   O     O_R   0.725564 0.848255 0.354851 -0.320533
O16   O     O_R   0.749777 0.780550 0.271667 -0.312545
N10   N     N_R   0.285382 0.248150 0.677799 0.143432
O17   O     O_R   0.302157 0.173778 0.665565 -0.327406
O18   O     O_R   0.262886 0.242981 0.740217 -0.305811
O19   O     O_3   0.375721 0.602777 0.386100 -0.611268
C55   C     C_3   0.346559 0.557110 0.324058 -0.312431
H21   H     H_    0.307947 0.473284 0.338478 0.169069
H22   H     H_    0.410266 0.575311 0.294484 0.168716
H23   H     H_    0.293661 0.587423 0.286031 0.220199
O20   O     O_3   0.644205 0.429922 0.620985 -0.612996
C56   C     C_3   0.639210 0.332655 0.658040 -0.331485
H24   H     H_    0.578581 0.269030 0.632799 0.153703
H25   H     H_    0.629536 0.323973 0.714812 0.217044
H26   H     H_    0.711415 0.326288 0.658004 0.190641
O21   O     O_3   0.815158 0.464919 0.822490 -0.557606
C57   C     C_3   0.791005 0.551577 0.797954 -0.260324
H27   H     H_    0.852630 0.620334 0.816997 0.153625
H28   H     H_    0.722649 0.538072 0.820260 0.198603
H29   H     H_    0.773120 0.565288 0.738384 0.179975
O22   O     O_3   0.157012 0.470756 0.183112 -0.572651
C58   C     C_3   0.150946 0.369745 0.201521 -0.302001
H30   H     H_    0.216698 0.366749 0.184945 0.198461
H31   H     H_    0.081516 0.317476 0.172681 0.176620
H32   H     H_    0.154225 0.343191 0.260599 0.147746
O23   O     O_3   0.310303 0.770352 0.441154 -0.585983
C59   C     C_3   0.298156 0.807074 0.366775 -0.251032
H33   H     H_    0.349833 0.888076 0.353913 0.158993
H34   H     H_    0.218510 0.797613 0.346062 0.162082
H35   H     H_    0.317532 0.762167 0.338297 0.224090
O24   O     O_3   0.667246 0.252431 0.466211 -0.596983
C60   C     C_3   0.650651 0.260498 0.390738 -0.232101
H36   H     H_    0.591611 0.189260 0.373504 0.153595
H37   H     H_    0.721643 0.280339 0.369094 0.180952
H38   H     H_    0.623484 0.322709 0.367096 0.187445
O25   O     O_3   0.818846 0.952978 0.521282 -0.564643
C61   C     C_3   0.870939 0.934538 0.590275 -0.279520
H39   H     H_    0.823197 0.914631 0.633076 0.157568
H40   H     H_    0.942611 0.000574 0.600399 0.212855
H41   H     H_    0.890742 0.868685 0.593192 0.193668
O26   O     O_3   0.192618 0.022636 0.541049 -0.554270
C62   C     C_3   0.120275 0.047308 0.487577 -0.227655
H42   H     H_    0.046119 0.982096 0.485818 0.197342
H43   H     H_    0.145878 0.073844 0.433661 0.147245
H44   H     H_    0.109239 0.110598 0.501353 0.199206

loop_
_geom_bond_atom_site_label_1
_geom_bond_atom_site_label_2
_geom_bond_distance
_ccdc_geom_bond_type
C37   C39   1.398226 A    
C59   H33   1.113452 S    
C1    C19   1.482473 S    
C47   C48   1.446771 A    
C56   H24   1.111401 S    
C53   H17   1.110418 S    
C60   H38   1.109406 S    
O25   C61   1.409992 S    
C21   C23   1.403540 A    
C9    C18   1.481035 S    
C21   O25   1.385170 S    
O5    C3    1.301136 A    
C10   C17   1.476493 S    
N7    O11   1.299475 A    
O1    C1    1.312032 A    
C42   H13   1.070237 S    
C12   C14   1.394960 A    
C23   H8    1.080256 S    
C20   C24   1.396551 A    
C62   H43   1.114294 S    
C52   H12   1.080780 S    
C55   H21   1.111694 S    
C6    C16   1.415130 A    
O21   C57   1.410634 S    
C57   H27   1.114138 S    
C5    C7    1.408998 A    
C38   N10   1.438137 S    
C27   C29   1.416593 A    
O4    Cu1   1.936685 S    
C43   C45   1.411656 A    
O20   C56   1.415711 S    
C58   H32   1.112932 S    
C46   C52   1.395606 A    
C34   H10   1.075603 S    
C7    H1    1.080843 S    
C39   N8    1.430385 S    
Cu1   N6    2.026311 S    
O9    C53   1.412557 S    
C26   C28   1.414338 A    
N8    O14   1.299365 A    
C44   C48   1.442677 A    
C37   N9    1.437760 S    
C2    C20   1.464316 S    
C43   C47   1.440327 A    
C54   H19   1.109631 S    
N4    C18   1.357334 A    
C29   C35   1.398814 A    
C51   H11   1.082877 S    
N7    O12   1.299905 A    
Cu1   Cu2   2.697460 S    
O2    C2    1.302069 A    
C61   H41   1.109442 S    
C24   H7    1.082980 S    
C34   C36   1.384784 A    
C5    C15   1.410207 A    
C28   C30   1.423558 A    
C35   H5    1.083685 S    
C13   C15   1.400001 A    
C36   H6    1.083741 S    
C26   O23   1.383793 S    
C12   O22   1.382224 S    
C48   C49   1.423293 A    
N6    C40   1.367968 A    
N2    C17   1.355939 A    
C53   H15   1.109624 S    
C61   H40   1.111263 S    
C62   H44   1.109709 S    
C5    O9    1.393629 S    
O6    Cu2   1.944639 S    
C59   H35   1.108427 S    
O3    C1    1.297297 A    
Cu2   N5    2.026313 S    
C7    C9    1.406520 A    
C33   C35   1.391200 A    
C38   C40   1.399548 A    
C19   C25   1.413539 A    
C30   C36   1.395544 A    
O7    Cu2   1.945989 S    
C20   C26   1.403488 A    
O7    C3    1.303131 A    
N5    C41   1.364241 A    
N9    O15   1.301421 A    
C27   C31   1.425138 A    
O6    C4    1.299732 A    
C31   C34   1.410759 A    
N8    O13   1.301492 A    
N1    N3    1.329809 A    
C32   C33   1.414039 A    
C56   H25   1.110409 S    
O26   C62   1.411091 S    
C54   H20   1.110475 S    
N10   O18   1.300925 A    
C49   C51   1.389115 A    
C58   H30   1.109196 S    
O3    Cu2   1.936683 S    
O8    C4    1.306638 A    
C40   N7    1.429808 S    
C42   C44   1.428957 A    
N9    O16   1.300988 A    
C37   C45   1.404032 A    
C49   O19   1.379232 S    
C9    C11   1.411781 A    
O23   C59   1.409766 S    
C47   C50   1.420354 A    
C10   C12   1.408581 A    
O4    C2    1.298351 A    
O1    Cu1   1.952366 S    
C60   H36   1.112819 S    
C45   C51   1.390920 A    
O22   C58   1.409793 S    
C21   C29   1.411604 A    
C22   C30   1.411887 A    
C59   H34   1.113480 S    
C4    C16   1.477010 S    
C8    C10   1.403932 A    
C25   O24   1.385125 S    
C50   C52   1.399742 A    
C61   H39   1.114142 S    
C60   H37   1.113674 S    
O8    Cu1   1.945989 S    
C14   C16   1.398823 A    
C13   H3    1.080560 S    
O19   C55   1.412423 S    
C28   C32   1.428826 A    
C14   H4    1.078850 S    
C57   H29   1.112003 S    
N6    C42   1.364203 A    
O24   C60   1.410704 S    
C25   C27   1.413289 A    
C62   H42   1.111108 S    
C55   H22   1.113784 S    
C22   O26   1.387588 S    
C22   C24   1.400539 A    
N3    C17   1.356957 A    
C57   H28   1.109208 S    
C56   H26   1.108781 S    
C8    H2    1.080787 S    
C11   C13   1.397516 A    
C19   C23   1.399643 A    
N10   O17   1.301373 A    
O2    Cu2   1.952366 S    
C50   O20   1.394072 S    
C58   H31   1.113767 S    
C11   O21   1.383728 S    
N5    C39   1.370941 A    
O5    Cu1   1.944639 S    
C33   H9    1.078305 S    
O10   C54   1.411955 S    
C3    C15   1.472709 S    
C41   H14   1.075111 S    
C6    C8    1.411674 A    
C31   C32   1.417491 A    
C6    O10   1.394959 S    
N1    C18   1.356915 A    
C53   H16   1.114325 S    
C44   C46   1.414005 A    
C41   C43   1.426154 A    
C54   H18   1.114139 S    
C38   C46   1.407675 A    
N2    N4    1.329037 A    
C55   H23   1.107318 S    
