data_mof_unit_45263.cif
_audit_creation_date              2012-12-11T15:14:52-0500
_audit_creation_method            fapswitch 2.2
_symmetry_space_group_name_H-M    P1
_symmetry_Int_Tables_number       1
_space_group_crystal_system       triclinic
_cell_length_a                    11.204465
_cell_length_b                    11.241119
_cell_length_c                    18.382297
_cell_angle_alpha                 89.630146
_cell_angle_beta                  90.643778
_cell_angle_gamma                 120.132841
_cell_volume                      2002.26045667

loop_
_atom_site_label
_atom_site_type_symbol
_atom_type_description
_atom_site_fract_x
_atom_site_fract_y
_atom_site_fract_z
_atom_type_partial_charge
C1    C     C_R   0.541887 0.422251 0.637857 0.541146
C2    C     C_R   0.455968 0.520613 0.355178 0.577684
C3    C     C_R   0.455560 0.883567 0.137889 0.533090
C4    C     C_R   0.114721 0.571296 0.362227 0.530709
C5    C     C_3   0.400567 0.987743 0.478256 -0.101889
C6    C     C_3   0.588418 0.600186 0.020758 -0.101603
C7    C     C_3   0.058088 0.421183 0.486925 -0.107557
C8    C     C_3   0.361945 0.941488 0.012954 -0.108194
C9    C     C_3   0.617913 0.587614 0.474784 -0.088639
C10   C     C_3   0.970562 0.382959 0.026165 -0.088565
C11   C     C_3   0.053970 0.479632 0.963497 -0.130765
C12   C     C_R   0.880468 0.457739 0.862049 0.539823
C13   C     C_3   0.520920 0.574241 0.536948 -0.129539
C14   C     C_3   0.406266 0.873910 0.954294 -0.164572
C15   C     C_3   0.126576 0.533689 0.545835 -0.163452
C16   C     C_3   0.514714 0.617720 0.953816 -0.165133
C17   C     C_3   0.382428 0.897474 0.545312 -0.167226
C18   C     C_3   0.541368 0.100975 0.508163 -0.113754
C19   C     C_3   0.560806 0.459960 0.991450 -0.113400
C20   C     C_3   0.913592 0.389390 0.511291 -0.116168
C21   C     C_3   0.475508 0.085735 0.988546 -0.116045
C22   C     C_3   0.614536 0.454806 0.500958 -0.134528
C23   C     C_R   0.544566 0.062795 0.646003 0.543070
C24   C     C_3   0.840109 0.384955 0.999488 -0.134608
C25   C     C_3   0.090276 0.605913 0.010889 -0.155553
C26   C     C_3   0.394228 0.484622 0.488645 -0.155248
C27   C     C_3   0.512017 0.872086 0.008396 -0.168898
C28   C     C_3   0.127103 0.640202 0.491925 -0.167953
C29   C     C_3   0.375296 0.542981 0.994514 -0.190197
C30   C     C_3   0.456763 0.832178 0.505345 -0.191001
C31   C     C_3   0.518893 0.008308 0.573640 0.032713
C32   C     C_3   0.488934 0.481591 0.926036 0.031425
C33   C     C_3   0.984022 0.502173 0.569461 0.025025
C34   C     C_R   0.517809 0.455350 0.853846 0.550093
C35   C     C_3   0.518241 0.016169 0.930719 0.026335
C36   C     C_3   0.518535 0.444064 0.562087 0.019525
C37   C     C_3   0.925223 0.480658 0.937891 0.018906
C38   C     C_3   0.005970 0.509371 0.072324 0.034594
C39   C     C_3   0.491196 0.497066 0.427704 0.033662
C40   C     C_3   0.467908 0.937662 0.065135 0.035941
C41   C     C_3   0.060653 0.529854 0.434939 0.037660
C42   C     C_3   0.449494 0.524230 0.060467 0.021325
C43   C     C_3   0.476154 0.924163 0.439319 0.019897
C44   C     C_3   0.595680 0.944704 0.536098 0.110405
C45   C     C_R   0.932988 0.479834 0.643875 0.543701
C46   C     C_3   0.348881 0.404635 0.964376 0.108886
C47   C     C_3   0.984579 0.608587 0.515705 0.098633
C48   C     C_3   0.623860 0.014531 0.984731 0.099089
C49   C     C_3   0.390371 0.353383 0.514457 0.109357
C50   C     C_3   0.961861 0.608451 0.984652 0.110300
C51   C     C_3   0.877992 0.513631 0.047549 0.089295
C52   C     C_3   0.485367 0.364355 0.452039 0.089376
C53   C     C_3   0.579396 0.080517 0.043486 0.097520
C54   C     C_3   0.917681 0.497584 0.456632 0.096658
C55   C     C_3   0.420764 0.384464 0.030932 0.130201
C56   C     C_R   0.546959 0.067148 0.856265 0.539058
C57   C     C_3   0.616586 0.035832 0.469432 0.130101
C58   C     C_R   0.423530 0.542722 0.136981 0.538022
C59   C     C_R   0.457011 0.879727 0.362771 0.540366
C60   C     C_R   0.065100 0.544695 0.144776 0.576268
Cr1   Cr    Cr6+3 0.769930 0.543130 0.750000 1.090937
Cr2   Cr    Cr6+3 0.773200 0.230070 0.750000 1.092796
Cr3   Cr    Cr6+3 0.456870 0.226800 0.750000 1.083999
Cr4   Cr    Cr6+3 0.543130 0.769930 0.250000 1.093981
Cr5   Cr    Cr6+3 0.230070 0.773200 0.250000 1.098022
Cr6   Cr    Cr6+3 0.226800 0.456870 0.250000 1.095663
H1    H     H_    0.578273 0.210790 0.514130 0.107784
H2    H     H_    0.199451 0.739643 0.468549 0.131589
H3    H     H_    0.307829 0.585780 0.000238 0.098579
H4    H     H_    0.414046 0.721808 0.500078 0.098939
H5    H     H_    0.310754 0.993989 0.457460 0.193397
H6    H     H_    0.684977 0.689746 0.041093 0.194281
H7    H     H_    0.083920 0.341651 0.471692 0.188372
H8    H     H_    0.256254 0.915896 0.028107 0.188236
H9    H     H_    0.706945 0.683449 0.453922 0.197404
H10   H     H_    0.977778 0.294343 0.047491 0.196979
H11   H     H_    0.123442 0.473216 0.923548 0.166526
H12   H     H_    0.633541 0.422937 0.985084 0.108153
H13   H     H_    0.527458 0.650098 0.577057 0.166329
H14   H     H_    0.338594 0.789945 0.916265 0.139171
H15   H     H_    0.211675 0.551102 0.583742 0.139852
H16   H     H_    0.553490 0.708928 0.917643 0.166111
H17   H     H_    0.291335 0.846200 0.581355 0.165784
H18   H     H_    0.824300 0.289706 0.527340 0.144988
H19   H     H_    0.465418 0.175228 0.972453 0.144970
H20   H     H_    0.700105 0.439737 0.517616 0.109325
H21   H     H_    0.739368 0.299286 0.983070 0.109224
H22   H     H_    0.192502 0.691654 0.023733 0.100920
H23   H     H_    0.308536 0.501163 0.475680 0.101104
H24   H     H_    0.537955 0.798379 0.031368 0.130375
I1    I     I_    0.757307 0.923591 0.586233 -0.231020
I2    I     I_    0.790049 0.469145 0.361860 -0.188755
I3    I     I_    0.319158 0.193731 0.092421 -0.206053
I4    I     I_    0.808217 0.122534 0.409178 -0.209690
I5    I     I_    0.166144 0.243231 0.914766 -0.229198
I6    I     I_    0.970782 0.785229 0.535161 -0.264997
I7    I     I_    0.815348 0.028993 0.966788 -0.263754
I8    I     I_    0.203010 0.174470 0.545116 -0.245447
I9    I     I_    0.969583 0.794946 0.952920 -0.248847
I10   I     I_    0.782758 0.562139 0.136372 -0.194786
I11   I     I_    0.434220 0.218986 0.363201 -0.180982
I12   I     I_    0.678818 0.207517 0.138105 -0.176399
O1    O     O_R   0.913270 0.574260 0.668550 -0.482746
O2    O     O_R   0.574260 0.913270 0.331450 -0.445088
O3    O     O_R   0.086730 0.660990 0.168550 -0.481462
O4    O     O_R   0.339010 0.425740 0.331450 -0.480851
O5    O     O_R   0.640160 0.530400 0.673300 -0.479440
O6    O     O_R   0.890240 0.359840 0.826700 -0.476631
O7    O     O_R   0.469600 0.109760 0.673300 -0.503990
O8    O     O_R   0.640160 0.530400 0.826700 -0.501128
O9    O     O_R   0.890240 0.359840 0.673300 -0.492429
O10   O     O_R   0.469600 0.109760 0.826700 -0.498171
O11   O     O_R   0.530400 0.640160 0.173300 -0.487104
O12   O     O_R   0.660990 0.086730 0.831450 -0.483028
O13   O     O_R   0.359840 0.890240 0.326700 -0.479479
O14   O     O_R   0.109760 0.469600 0.173300 -0.506490
O15   O     O_R   0.530400 0.640160 0.326700 -0.507118
O16   O     O_R   0.359840 0.890240 0.173300 -0.465812
O17   O     O_R   0.109760 0.469600 0.326700 -0.472839
O18   O     O_3   0.666667 0.333333 0.750000 -0.354390
O19   O     O_3   0.333333 0.666667 0.250000 -0.393517
O20   O     O_R   0.425740 0.339010 0.668550 -0.473658
O21   O     O_R   0.913270 0.574260 0.831450 -0.476134
O22   O     O_R   0.660990 0.086730 0.668550 -0.487140
O23   O     O_R   0.425740 0.339010 0.831450 -0.484762
O24   O     O_R   0.574260 0.913270 0.168550 -0.461827
O25   O     O_R   0.086730 0.660990 0.331450 -0.465927
O26   O     O_R   0.339010 0.425740 0.168550 -0.448069

loop_
_geom_bond_atom_site_label_1
_geom_bond_atom_site_label_2
_ccdc_geom_bond_type
C27   C48   S    
C21   C53   S    
C13   H13   S    
C28   C47   S    
C58   O26   A    
C13   C26   S    
C37   C50   S    
C29   C42   S    
C33   C45   S    
C60   O3    A    
C55   I3    S    
C42   C58   S    
Cr2   O22   S    
C3    O24   A    
C7    H7    S    
C26   H23   S    
C6    H6    S    
C48   I7    S    
C50   I9    S    
Cr6   O14   S    
C59   O2    A    
Cr5   O25   S    
C28   H2    S    
Cr2   O12   S    
C42   C55   S    
C9    C22   S    
Cr2   O6    S    
C4    C41   S    
C35   C48   S    
Cr4   O19   S    
C28   C41   S    
C9    C39   S    
C27   H24   S    
Cr3   O10   S    
C11   C37   S    
C9    C13   S    
C1    O20   A    
C11   H11   S    
C49   I8    S    
C25   C50   S    
C10   H10   S    
C2    C39   S    
C46   I5    S    
C7    C41   S    
C46   C55   S    
C58   O11   A    
Cr5   O16   S    
C4    O17   A    
Cr5   O19   S    
C14   C27   S    
C45   O1    A    
Cr1   O21   S    
C53   I12   S    
Cr2   O18   S    
C43   C59   S    
C24   C51   S    
C7    C15   S    
C39   C52   S    
C5    C43   S    
Cr1   O18   S    
C17   C30   S    
Cr5   O13   S    
C30   C44   S    
Cr6   O4    S    
Cr1   O8    S    
Cr5   O3    S    
C30   H4    S    
C2    O15   A    
C50   C51   S    
C29   H3    S    
C48   C53   S    
C23   O7    A    
C21   H19   S    
C52   I11   S    
C31   C44   S    
Cr2   O9    S    
C13   C36   S    
C15   H15   S    
C40   C53   S    
C26   C49   S    
C14   C35   S    
C12   O6    A    
C38   C51   S    
C10   C24   S    
C16   C29   S    
C2    O4    A    
C25   H22   S    
Cr4   O15   S    
C17   H17   S    
C32   C34   S    
Cr3   O7    S    
C19   H12   S    
C54   I2    S    
C6    C19   S    
C3    O16   A    
C25   C38   S    
C26   C39   S    
C18   C57   S    
C44   C57   S    
C47   I6    S    
C49   C52   S    
C19   C32   S    
C8    H8    S    
C8    C21   S    
Cr6   O19   S    
Cr3   O23   S    
C44   I1    S    
C1    O5    A    
C47   C54   S    
C38   C60   S    
C20   C33   S    
C20   C54   S    
C3    C40   S    
C7    C20   S    
C14   H14   S    
C57   I4    S    
C20   H18   S    
C6    C42   S    
C33   C47   S    
C30   C43   S    
C60   O14   A    
C16   C32   S    
Cr3   O20   S    
C8    C40   S    
C22   C52   S    
C19   C55   S    
C51   I10   S    
Cr4   O2    S    
C8    C14   S    
Cr4   O11   S    
C4    O25   A    
Cr1   O1    S    
C35   C56   S    
C32   C46   S    
C15   C33   S    
C45   O9    A    
C23   O22   A    
C5    C18   S    
C24   C37   S    
C22   C36   S    
Cr4   O24   S    
C10   C38   S    
C29   C46   S    
Cr6   O17   S    
C21   C35   S    
C18   H1    S    
C5    H5    S    
C27   C40   S    
Cr3   O18   S    
C15   C28   S    
C12   O21   A    
C34   O23   A    
C17   C31   S    
Cr6   O26   S    
C22   H20   S    
Cr1   O5    S    
C24   H21   S    
C41   C54   S    
C10   C11   S    
C43   C57   S    
C6    C16   S    
C56   O12   A    
C5    C17   S    
C59   O13   A    
C16   H16   S    
C12   C37   S    
C11   C25   S    
C18   C31   S    
C9    H9    S    
C34   O8    A    
C56   O10   A    
C36   C49   S    
C1    C36   S    
C23   C31   S    
