data_mof_unit_11429.cif
_audit_creation_date              2012-12-11T15:45:06-0500
_audit_creation_method            fapswitch 2.2
_symmetry_space_group_name_H-M    P1
_symmetry_Int_Tables_number       1
_space_group_crystal_system       triclinic
_cell_length_a                    19.115551
_cell_length_b                    10.936217
_cell_length_c                    18.767542
_cell_angle_alpha                 89.447704
_cell_angle_beta                  90.351197
_cell_angle_gamma                 89.944134
_cell_volume                      3923.13062333

loop_
_atom_site_label
_atom_site_type_symbol
_atom_type_description
_atom_site_fract_x
_atom_site_fract_y
_atom_site_fract_z
_atom_type_partial_charge
C1    C     C_R   0.775714 0.478620 0.638577 0.544531
C2    C     C_R   0.236137 0.521934 0.358266 0.555871
C3    C     C_R   0.275714 0.978620 0.638577 0.544532
C4    C     C_R   0.736136 0.021932 0.358266 0.555872
C5    C     C_R   0.799119 0.985719 0.546574 0.232286
C6    C     C_R   0.267671 0.956286 0.437736 0.237641
C7    C     C_R   0.299120 0.485721 0.546573 0.232284
C8    C     C_R   0.767669 0.456286 0.437736 0.237642
C9    C     C_R   0.796234 0.985044 0.472536 -0.117106
C10   C     C_R   0.279386 0.924356 0.509862 -0.140425
C11   C     C_R   0.296235 0.485048 0.472535 -0.117107
C12   C     C_R   0.779383 0.424355 0.509862 -0.140426
C13   C     C_3   0.633119 0.183939 0.466709 -0.256095
C14   C     C_3   0.186974 0.197017 0.570193 -0.263590
C15   C     C_3   0.133121 0.683943 0.466709 -0.256095
C16   C     C_3   0.686975 0.697020 0.570193 -0.263589
C17   C     C_3   0.639780 0.199648 0.547096 -0.268511
C18   C     C_3   0.174781 0.231849 0.493119 -0.265010
C19   C     C_3   0.139781 0.699650 0.547095 -0.268511
C20   C     C_3   0.674781 0.731850 0.493120 -0.265010
C21   C     C_R   0.749801 0.060018 0.583172 -0.003178
C22   C     C_R   0.248377 0.078682 0.421500 0.040723
C23   C     C_R   0.249801 0.560019 0.583171 -0.003177
C24   C     C_R   0.748377 0.578682 0.421500 0.040724
C25   C     C_R   0.977735 0.334282 0.411729 -0.052434
C26   C     C_R   0.964172 0.347913 0.561002 -0.032435
C27   C     C_R   0.477735 0.834282 0.411729 -0.052434
C28   C     C_R   0.464174 0.847914 0.561002 -0.032436
C29   C     C_R   0.981020 0.110420 0.419762 -0.082401
C30   C     C_R   0.003110 0.127300 0.565490 -0.057636
C31   C     C_R   0.481020 0.610420 0.419761 -0.082401
C32   C     C_R   0.503112 0.627300 0.565490 -0.057635
C33   C     C_R   0.996720 0.005712 0.459262 -0.108167
C34   C     C_R   0.010767 0.015166 0.531539 -0.084491
C35   C     C_R   0.496720 0.505712 0.459261 -0.108167
C36   C     C_R   0.510768 0.515166 0.531539 -0.084489
C37   C     C_R   0.980655 0.233828 0.527625 0.007089
C38   C     C_R   0.978422 0.226132 0.452570 -0.003574
C39   C     C_R   0.480656 0.733828 0.527625 0.007087
C40   C     C_R   0.478422 0.726132 0.452570 -0.003572
C41   C     C_R   0.952109 0.455220 0.516740 0.007467
C42   C     C_R   0.953568 0.443310 0.441901 0.021607
C43   C     C_R   0.452112 0.955222 0.516741 0.007469
C44   C     C_R   0.453569 0.943311 0.441901 0.021607
C45   C     C_R   0.772310 0.121201 0.647812 0.536775
C46   C     C_R   0.227734 0.121364 0.351981 0.548241
C47   C     C_R   0.272310 0.621201 0.647812 0.536778
C48   C     C_R   0.727734 0.621364 0.351981 0.548243
C49   C     C_R   0.940516 0.576226 0.542749 -0.110631
C50   C     C_R   0.934140 0.543349 0.397330 -0.085746
C51   C     C_R   0.440522 0.076230 0.542750 -0.110629
C52   C     C_R   0.434140 0.043350 0.397332 -0.085745
C53   C     C_R   0.928370 0.675266 0.496976 -0.165432
C54   C     C_R   0.922427 0.658194 0.424678 -0.129466
C55   C     C_R   0.428376 0.175269 0.496977 -0.165434
C56   C     C_R   0.422429 0.158196 0.424680 -0.129463
C57   C     C_R   0.742312 0.066718 0.073496 0.002063
C58   C     C_R   0.253320 0.061671 0.926516 -0.038395
C59   C     C_R   0.242312 0.566714 0.073496 0.002068
C60   C     C_R   0.753321 0.561668 0.926517 -0.038392
C61   C     C_R   0.805512 0.106296 0.047276 0.007404
C62   C     C_R   0.227302 0.972303 0.972849 0.003128
C63   C     C_R   0.305510 0.606308 0.047277 0.007394
C64   C     C_R   0.727308 0.472296 0.972850 0.003131
C65   C     C_R   0.813866 0.121511 0.975277 -0.010032
C66   C     C_R   0.225303 0.988547 0.044803 -0.054867
C67   C     C_R   0.313864 0.621527 0.975278 -0.010027
C68   C     C_R   0.725308 0.488541 0.044805 -0.054869
C69   C     C_R   0.699931 0.038478 0.951138 0.229758
C70   C     C_R   0.281990 0.185011 0.029301 0.241740
C71   C     C_R   0.199933 0.538470 0.951137 0.229759
C72   C     C_R   0.781990 0.685010 0.029301 0.241742
C73   C     C_R   0.690442 0.026083 0.025158 -0.089420
C74   C     C_R   0.285221 0.164730 0.955533 -0.170456
C75   C     C_R   0.190444 0.526070 0.025157 -0.089408
C76   C     C_R   0.785220 0.664730 0.955533 -0.170455
C77   C     C_3   0.844470 0.220408 0.063922 -0.300703
C78   C     C_3   0.162101 0.897404 0.972047 -0.241400
C79   C     C_3   0.344454 0.720436 0.063924 -0.300702
C80   C     C_3   0.662107 0.397396 0.972049 -0.241399
C81   C     C_3   0.854295 0.235461 0.984372 -0.263195
C82   C     C_3   0.160232 0.913611 0.052362 -0.276950
C83   C     C_3   0.354281 0.735494 0.984376 -0.263199
C84   C     C_3   0.660237 0.413606 0.052364 -0.276952
C85   C     C_R   0.760843 0.095364 0.926682 0.028459
C86   C     C_R   0.247326 0.098151 0.074192 0.021476
C87   C     C_R   0.260843 0.595367 0.926682 0.028460
C88   C     C_R   0.747328 0.598148 0.074192 0.021475
C89   C     C_R   0.945027 0.350823 0.637968 0.536586
C90   C     C_R   0.023852 0.344935 0.348890 0.522533
C91   C     C_R   0.445028 0.850823 0.637967 0.536586
C92   C     C_R   0.523852 0.844935 0.348890 0.522532
C93   C     C_R   0.022189 0.339745 0.068034 0.001971
C94   C     C_R   0.008495 0.345570 0.919979 0.025032
C95   C     C_R   0.522187 0.839743 0.068034 0.001968
C96   C     C_R   0.508495 0.845569 0.919979 0.025020
C97   C     C_R   0.011679 0.448613 0.032016 0.022506
C98   C     C_R   0.005731 0.452754 0.960075 0.104662
C99   C     C_R   0.511679 0.948611 0.032016 0.022502
C100  C     C_R   0.505731 0.952753 0.960075 0.104663
C101  C     C_R   0.033628 0.238202 0.953180 -0.198313
C102  C     C_R   0.040124 0.235334 0.027928 -0.167357
C103  C     C_R   0.533624 0.738199 0.953181 -0.198311
C104  C     C_R   0.540120 0.735331 0.027928 -0.167352
C105  C     C_3   0.960891 0.548087 0.044484 -0.297090
C106  C     C_3   0.952271 0.553067 0.964375 -0.253417
C107  C     C_3   0.460892 0.048088 0.044483 -0.297091
C108  C     C_3   0.452272 0.053068 0.964374 -0.253415
C109  C     C_R   0.760711 0.530500 0.852484 0.538863
C110  C     C_R   0.238148 0.530664 0.147174 0.553128
C111  C     C_R   0.260711 0.030501 0.852483 0.538861
C112  C     C_R   0.738148 0.030666 0.147174 0.553129
C113  C     C_R   0.773243 0.126378 0.853105 0.562978
C114  C     C_R   0.226441 0.130669 0.145629 0.558542
C115  C     C_R   0.273243 0.626378 0.853105 0.562983
C116  C     C_R   0.726442 0.630667 0.145630 0.558542
C117  C     C_R   0.972403 0.347060 0.851971 0.541881
C118  C     C_R   0.034778 0.346932 0.143645 0.536128
C119  C     C_R   0.472403 0.847060 0.851971 0.541879
C120  C     C_R   0.534777 0.846932 0.143646 0.536128
C121  C     C_R   0.740618 0.041295 0.434722 -0.005025
C122  C     C_R   0.270151 0.011406 0.563961 -0.023921
C123  C     C_R   0.240619 0.541299 0.434722 -0.005022
C124  C     C_R   0.770150 0.511406 0.563961 -0.023922
C125  C     C_R   0.682906 0.079469 0.474275 0.008798
C126  C     C_R   0.250161 0.129457 0.545800 0.000786
C127  C     C_R   0.182906 0.579472 0.474274 0.008801
C128  C     C_R   0.750162 0.629458 0.545800 0.000788
C129  C     C_R   0.688025 0.091946 0.547039 -0.035845
C130  C     C_R   0.240146 0.162927 0.475781 -0.014510
C131  C     C_R   0.188025 0.591948 0.547038 -0.035845
C132  C     C_R   0.740147 0.662928 0.475781 -0.014510
Cr1   Cr    Cr6+3 0.885860 0.491680 0.749630 0.976257
Cr2   Cr    Cr6+3 0.114140 0.491680 0.250370 0.999038
Cr3   Cr    Cr6+3 0.385860 0.991680 0.749630 0.976256
Cr4   Cr    Cr6+3 0.614140 0.991680 0.250370 0.999038
Cr5   Cr    Cr6+3 0.730490 0.332970 0.748720 1.004266
Cr6   Cr    Cr6+3 0.269510 0.332970 0.251280 1.002238
Cr7   Cr    Cr6+3 0.230490 0.832970 0.748720 1.004265
Cr8   Cr    Cr6+3 0.769510 0.832970 0.251280 1.002238
Cr9   Cr    Cr6+3 0.887570 0.179310 0.750150 0.990928
Cr10  Cr    Cr6+3 0.112430 0.179310 0.249850 0.992706
Cr11  Cr    Cr6+3 0.387570 0.679310 0.750150 0.990931
Cr12  Cr    Cr6+3 0.612430 0.679310 0.249850 0.992709
H1    H     H_    0.923455 0.766418 0.517534 0.156078
H2    H     H_    0.910468 0.734591 0.389547 0.118120
H3    H     H_    0.423465 0.266421 0.517536 0.156071
H4    H     H_    0.410471 0.234593 0.389548 0.118120
H5    H     H_    0.644504 0.980823 0.045001 0.149395
H6    H     H_    0.308863 0.232640 0.920857 0.122058
H7    H     H_    0.144509 0.480799 0.044999 0.149391
H8    H     H_    0.808859 0.732642 0.920857 0.122059
H9    H     H_    0.893928 0.201278 0.093369 0.140072
H10   H     H_    0.171919 0.801541 0.956054 0.162704
H11   H     H_    0.393915 0.701322 0.093374 0.140070
H12   H     H_    0.671925 0.301533 0.956057 0.162704
H13   H     H_    0.810819 0.291971 0.087555 0.131784
H14   H     H_    0.118132 0.943949 0.943710 0.137993
H15   H     H_    0.310794 0.791987 0.087558 0.131786
H16   H     H_    0.618138 0.443941 0.943712 0.137995
H17   H     H_    0.829053 0.316945 0.960129 0.139992
H18   H     H_    0.114055 0.966328 0.070150 0.149107
H19   H     H_    0.329029 0.816969 0.960131 0.139997
H20   H     H_    0.614060 0.466322 0.070151 0.149110
H21   H     H_    0.907435 0.217627 0.967336 0.165748
H22   H     H_    0.169964 0.827035 0.082374 0.135726
H23   H     H_    0.407425 0.717682 0.967343 0.165742
H24   H     H_    0.669970 0.327030 0.082377 0.135727
H25   H     H_    0.039942 0.154765 0.923292 0.120253
H26   H     H_    0.055824 0.151244 0.054107 0.138966
H27   H     H_    0.539937 0.654761 0.923293 0.120259
H28   H     H_    0.555819 0.651240 0.054108 0.138966
H29   H     H_    0.987350 0.629896 0.066608 0.134288
H30   H     H_    0.899766 0.522491 0.946694 0.155954
H31   H     H_    0.487351 0.129896 0.066608 0.134288
H32   H     H_    0.399767 0.022493 0.946692 0.155955
H33   H     H_    0.913291 0.516296 0.072986 0.129287
H34   H     H_    0.971031 0.640025 0.940045 0.143764
H35   H     H_    0.413291 0.016297 0.072985 0.129289
H36   H     H_    0.471033 0.140026 0.940044 0.143766
H37   H     H_    0.838832 0.940707 0.445029 0.157276
H38   H     H_    0.291782 0.830428 0.523879 0.118505
H39   H     H_    0.338833 0.440712 0.445028 0.157277
H40   H     H_    0.791779 0.330426 0.523878 0.118505
H41   H     H_    0.080278 0.653076 0.449769 0.162226
H42   H     H_    0.700070 0.776377 0.604155 0.124238
H43   H     H_    0.580278 0.153069 0.449770 0.162228
H44   H     H_    0.200068 0.276373 0.604155 0.124238
H45   H     H_    0.654120 0.261861 0.435521 0.198434
H46   H     H_    0.146290 0.135315 0.592212 0.155588
H47   H     H_    0.154122 0.761865 0.435522 0.198434
H48   H     H_    0.646292 0.635318 0.592214 0.155587
H49   H     H_    0.665842 0.286313 0.562167 0.164033
H50   H     H_    0.127248 0.189248 0.469854 0.166445
H51   H     H_    0.165844 0.786315 0.562168 0.164033
H52   H     H_    0.627248 0.689248 0.469855 0.166444
H53   H     H_    0.590297 0.179899 0.575784 0.139853
H54   H     H_    0.179298 0.330961 0.482693 0.143418
H55   H     H_    0.090298 0.679903 0.575783 0.139855
H56   H     H_    0.679297 0.830961 0.482693 0.143418
H57   H     H_    0.000612 0.918065 0.433274 0.101970
H58   H     H_    0.027671 0.935310 0.561533 0.106233
H59   H     H_    0.500613 0.418065 0.433273 0.101969
H60   H     H_    0.527672 0.435310 0.561533 0.106230
H61   H     H_    0.971138 0.100601 0.363259 0.124858
H62   H     H_    0.020134 0.128630 0.620198 0.137198
H63   H     H_    0.471137 0.600602 0.363259 0.124858
H64   H     H_    0.520136 0.628630 0.620198 0.137198
H65   H     H_    0.930036 0.534135 0.340155 0.111586
H66   H     H_    0.942330 0.602897 0.597221 0.163015
H67   H     H_    0.430035 0.034136 0.340156 0.111584
H68   H     H_    0.442342 0.102902 0.597222 0.163010
O1    O     O_R   0.957020 0.451640 0.669920 -0.538070
O2    O     O_R   0.042980 0.451640 0.330080 -0.519477
O3    O     O_R   0.457020 0.951640 0.669920 -0.538071
O4    O     O_R   0.542980 0.951640 0.330080 -0.519477
O5    O     O_R   0.736470 0.210100 0.823360 -0.481415
O6    O     O_R   0.263530 0.210100 0.176640 -0.470564
O7    O     O_R   0.236470 0.710100 0.823360 -0.481417
O8    O     O_R   0.763530 0.710100 0.176640 -0.470564
O9    O     O_R   0.831960 0.093290 0.830130 -0.537604
O10   O     O_R   0.168040 0.093290 0.169870 -0.543271
O11   O     O_R   0.331960 0.593290 0.830130 -0.537605
O12   O     O_R   0.668040 0.593290 0.169870 -0.543270
O13   O     O_R   0.945600 0.250580 0.824860 -0.507612
O14   O     O_R   0.054400 0.250580 0.175140 -0.515059
O15   O     O_R   0.445600 0.750580 0.824860 -0.507608
O16   O     O_R   0.554400 0.750580 0.175140 -0.515057
O17   O     O_3   0.834640 0.334650 0.749500 -0.278672
O18   O     O_3   0.165360 0.334650 0.250500 -0.244750
O19   O     O_3   0.334640 0.834650 0.749500 -0.278672
O20   O     O_3   0.665360 0.834650 0.250500 -0.244749
O21   O     O_R   0.821450 0.543440 0.674610 -0.527234
O22   O     O_R   0.178550 0.543440 0.325390 -0.493500
O23   O     O_R   0.321450 0.043440 0.674610 -0.527231
O24   O     O_R   0.678550 0.043440 0.325390 -0.493502
O25   O     O_R   0.715320 0.458650 0.668100 -0.523605
O26   O     O_R   0.284680 0.458650 0.331900 -0.545504
O27   O     O_R   0.215320 0.958650 0.668100 -0.523606
O28   O     O_R   0.784680 0.958650 0.331900 -0.545503
O29   O     O_R   0.737170 0.209590 0.674530 -0.526003
O30   O     O_R   0.262830 0.209590 0.325470 -0.523960
O31   O     O_R   0.237170 0.709590 0.674530 -0.526004
O32   O     O_R   0.762830 0.709590 0.325470 -0.523962
O33   O     O_R   0.832710 0.092740 0.669580 -0.481079
O34   O     O_R   0.167290 0.092740 0.330420 -0.505213
O35   O     O_R   0.332710 0.592740 0.669580 -0.481077
O36   O     O_R   0.667290 0.592740 0.330420 -0.505210
O37   O     O_R   0.946290 0.250060 0.676040 -0.505329
O38   O     O_R   0.053710 0.250060 0.323960 -0.506541
O39   O     O_R   0.446290 0.750060 0.676040 -0.505327
O40   O     O_R   0.553710 0.750060 0.323960 -0.506541
O41   O     O_R   0.956270 0.452200 0.830470 -0.506277
O42   O     O_R   0.043730 0.452200 0.169530 -0.525553
O43   O     O_R   0.456270 0.952200 0.830470 -0.506278
O44   O     O_R   0.543730 0.952200 0.169530 -0.525553
O45   O     O_R   0.820760 0.543950 0.823440 -0.512029
O46   O     O_R   0.179240 0.543950 0.176560 -0.524371
O47   O     O_R   0.320760 0.043950 0.823440 -0.512030
O48   O     O_R   0.679240 0.043950 0.176560 -0.524372
O49   O     O_R   0.714570 0.459210 0.828640 -0.509879
O50   O     O_R   0.285430 0.459210 0.171360 -0.483111
O51   O     O_R   0.214570 0.959210 0.828640 -0.509879
O52   O     O_R   0.785430 0.959210 0.171360 -0.483110
O53   O     O_3   0.860232 0.941248 0.577996 -0.551125
C133  C     C_3   0.845577 0.850908 0.630388 0.013488
H69   H     H_    0.837767 0.762468 0.604406 0.149136
H70   H     H_    0.798622 0.871236 0.663031 0.125103
C134  C     C_3   0.908327 0.836785 0.680284 -0.347027
H71   H     H_    0.918389 0.923123 0.709144 0.172302
H72   H     H_    0.898029 0.762984 0.719900 0.111258
H73   H     H_    0.955708 0.812568 0.649556 0.114237
O54   O     O_3   0.259347 0.862736 0.388813 -0.581197
C135  C     C_3   0.305618 0.873845 0.330675 -0.005378
H74   H     H_    0.352847 0.817752 0.341773 0.139458
H75   H     H_    0.322055 0.968753 0.318620 0.109275
C136  C     C_3   0.270451 0.825408 0.263727 -0.355939
H76   H     H_    0.221630 0.877319 0.252343 0.175548
H77   H     H_    0.306274 0.835916 0.217746 0.075329
H78   H     H_    0.257707 0.727230 0.270477 0.174636
O55   O     O_3   0.360232 0.441250 0.577996 -0.551122
C137  C     C_3   0.345577 0.350905 0.630384 0.013496
H79   H     H_    0.337772 0.262466 0.604397 0.149138
H80   H     H_    0.298618 0.371227 0.663025 0.125096
C138  C     C_3   0.408324 0.336785 0.680286 -0.347031
H81   H     H_    0.418375 0.423119 0.709156 0.172301
H82   H     H_    0.398030 0.262971 0.719895 0.111264
H83   H     H_    0.455711 0.312587 0.649561 0.114241
O56   O     O_3   0.759343 0.362737 0.388812 -0.581195
C139  C     C_3   0.805617 0.373842 0.330676 -0.005378
H84   H     H_    0.852844 0.317747 0.341776 0.139460
H85   H     H_    0.822056 0.468749 0.318621 0.109273
C140  C     C_3   0.770451 0.325406 0.263728 -0.355945
H86   H     H_    0.721637 0.377328 0.252336 0.175540
H87   H     H_    0.806278 0.335894 0.217750 0.075329
H88   H     H_    0.757696 0.227235 0.270480 0.174647
O57   O     O_3   0.648969 0.000111 0.904031 -0.569693
C141  C     C_3   0.670170 0.887296 0.875243 -0.109483
H89   H     H_    0.671617 0.815059 0.917291 0.138231
H90   H     H_    0.721725 0.893285 0.848263 0.104996
H91   H     H_    0.631448 0.859403 0.834302 0.141003
O58   O     O_3   0.299373 0.299699 0.053997 -0.540188
C142  C     C_3   0.372571 0.307514 0.061201 -0.091902
H92   H     H_    0.391251 0.245309 0.104416 0.116119
H93   H     H_    0.386691 0.401587 0.077180 0.149861
H94   H     H_    0.399701 0.289932 0.010088 0.092579
O59   O     O_3   0.148973 0.500101 0.904029 -0.569694
C143  C     C_3   0.170176 0.387286 0.875242 -0.109486
H95   H     H_    0.171622 0.315050 0.917290 0.138232
H96   H     H_    0.221730 0.393277 0.848263 0.104999
H97   H     H_    0.131454 0.359392 0.834301 0.141003
O60   O     O_3   0.799373 0.799699 0.053997 -0.540185
C144  C     C_3   0.872571 0.807510 0.061203 -0.091901
H98   H     H_    0.891249 0.745302 0.104416 0.116117
H99   H     H_    0.886691 0.901582 0.077184 0.149860
H100  H     H_    0.899701 0.789932 0.010089 0.092580

loop_
_geom_bond_atom_site_label_1
_geom_bond_atom_site_label_2
_ccdc_geom_bond_type
C5    O53   S    
C139  C140  S    
Cr9   O37   S    
C47   O35   A    
C142  H93   S    
C2    C123  S    
C90   O38   A    
C137  H79   S    
Cr11  O39   S    
C94   C117  S    
C95   C99   A    
C29   C33   A    
Cr8   O28   S    
C137  H80   S    
C135  H74   S    
C6    O54   S    
C91   O3    A    
C3    O23   A    
Cr8   O8    S    
C50   H65   S    
C1    O21   A    
Cr10  O34   S    
C70   C74   A    
C9    C121  A    
C17   H53   S    
C87   C115  S    
C143  H97   S    
C80   C84   S    
C97   C105  S    
C122  C126  A    
C15   C127  S    
C22   C130  A    
Cr9   O13   S    
C81   H17   S    
C20   C132  S    
C41   C49   A    
Cr1   O41   S    
C62   C66   A    
C17   C129  S    
C60   C76   A    
Cr8   O32   S    
C25   C42   A    
C43   C44   A    
C31   H63   S    
C37   C38   A    
C84   H24   S    
C66   C82   S    
C15   H41   S    
C78   C82   S    
C142  H92   S    
Cr2   O46   S    
Cr4   O48   S    
C113  O9    A    
C112  O52   A    
C105  H33   S    
C134  H72   S    
C10   H38   S    
C18   C130  S    
C141  H89   S    
C124  C128  A    
C90   O2    A    
C15   H47   S    
C107  H35   S    
Cr3   O23   S    
Cr11  O15   S    
C10   C122  A    
C98   C106  S    
C57   C61   A    
C59   C63   A    
C14   C126  S    
C60   C64   A    
C1    C124  S    
C138  H82   S    
C49   C53   A    
C51   C55   A    
Cr5   O25   S    
C127  C131  A    
C79   H11   S    
C61   C65   A    
C5    C21   A    
C48   O36   A    
Cr5   O5    S    
C126  C130  A    
Cr7   O19   S    
Cr9   O9    S    
C102  H26   S    
C47   O31   A    
C88   C116  S    
C13   H43   S    
Cr7   O51   S    
C18   H50   S    
C97   C98   A    
C94   C98   A    
C53   C54   A    
C118  O14   A    
C5    C9    A    
C25   C90   S    
C64   C68   A    
C110  O46   A    
C144  H99   S    
C29   H61   S    
O60   C144  S    
C57   C73   A    
C20   H56   S    
C60   C109  S    
C77   H9    S    
C117  O41   A    
C27   C44   A    
C78   H14   S    
C61   C77   S    
C29   C38   A    
Cr9   O33   S    
C107  C108  S    
C32   H64   S    
Cr7   O31   S    
C7    O55   S    
C44   C52   A    
C105  H29   S    
C136  H76   S    
C103  H27   S    
C4    O24   A    
C114  O6    A    
C143  H96   S    
O54   C135  S    
C21   C45   S    
C8    O56   S    
C92   O40   A    
C100  C108  S    
C23   C47   S    
C30   C34   A    
C24   C48   S    
Cr6   O18   S    
C46   O34   A    
C39   C40   A    
C82   H18   S    
C1    O25   A    
C83   H23   S    
C121  C125  A    
C140  H86   S    
C125  C129  A    
C25   C38   A    
C123  C127  A    
C27   C40   A    
C8    C12   A    
O56   C139  S    
Cr2   O22   S    
C23   C131  A    
C101  H25   S    
C21   C129  A    
C133  H70   S    
C42   C50   A    
C96   C103  A    
C93   C97   A    
C69   C85   A    
C58   C74   A    
C62   C78   S    
C133  C134  S    
C66   C86   A    
Cr3   O47   S    
C13   C17   S    
Cr12  O36   S    
Cr5   O29   S    
C112  O48   A    
C34   H58   S    
C7    C23   A    
C96   C100  A    
C8    C24   A    
C28   C91   S    
C135  H75   S    
Cr2   O18   S    
C9    H37   S    
C14   H46   S    
Cr7   O7    S    
C137  C138  S    
Cr8   O52   S    
C136  H78   S    
Cr3   O19   S    
Cr11  O19   S    
C106  H34   S    
Cr5   O49   S    
C58   C62   A    
C55   C56   A    
C101  C102  A    
C59   C75   A    
C135  C136  S    
C70   O58   S    
C41   C42   A    
C96   C119  S    
C35   C36   A    
C48   O32   A    
C56   H4    S    
C91   O39   A    
C143  H95   S    
C15   C19   S    
C50   C54   A    
C89   O37   A    
C115  O11   A    
C140  H88   S    
C79   H15   S    
C80   H16   S    
C76   H8    S    
Cr9   O17   S    
C6    C22   A    
C31   C40   A    
C139  H84   S    
C32   C39   A    
C51   H68   S    
C2    O22   A    
Cr6   O50   S    
C18   H54   S    
C69   C73   A    
C120  O16   A    
C104  H28   S    
Cr1   O45   S    
C69   O57   S    
C134  H71   S    
C64   C80   S    
C141  H90   S    
C111  O47   A    
Cr10  O14   S    
C142  H94   S    
C58   C111  S    
C68   C84   S    
Cr5   O17   S    
C71   O59   S    
C78   H10   S    
C28   C39   A    
O59   C143  S    
C30   C37   A    
C141  H91   S    
C116  O12   A    
C138  H81   S    
C14   H44   S    
C24   C132  A    
C65   C81   S    
C77   C81   S    
C53   H1    S    
C106  H30   S    
Cr1   O21   S    
C114  O10   A    
C71   C87   A    
C22   C46   S    
Cr8   O20   S    
C31   C35   A    
C46   O30   A    
C45   O33   A    
C32   C36   A    
C89   O1    A    
C82   H22   S    
C83   H19   S    
C73   H5    S    
C19   H55   S    
Cr12  O20   S    
C11   C123  A    
C119  O43   A    
C93   C102  A    
C6    C10   A    
C26   C37   A    
C95   C120  S    
C4    O28   A    
C99   C107  S    
C105  C106  S    
C28   C43   A    
Cr2   O2    S    
C54   H2    S    
C79   C83   S    
C43   C51   A    
C144  H98   S    
C12   H40   S    
C107  H31   S    
C108  H32   S    
C85   C113  S    
Cr11  O35   S    
C4    C121  S    
C92   O4    A    
Cr1   O17   S    
Cr10  O18   S    
C134  H73   S    
C103  C104  A    
Cr3   O43   S    
C13   C125  S    
C3    O27   A    
C19   H51   S    
Cr10  O38   S    
O57   C141  S    
C14   C18   S    
C17   H49   S    
C72   C76   A    
C119  O15   A    
C63   C79   S    
C26   C89   S    
C7    C11   A    
Cr4   O20   S    
C117  O13   A    
C138  H83   S    
Cr11  O11   S    
C57   C112  S    
C30   H62   S    
Cr4   O24   S    
C59   C110  S    
C13   H45   S    
C108  H36   S    
C16   H48   S    
Cr3   O3    S    
C94   C101  A    
C52   H67   S    
C118  O42   A    
O53   C133  S    
C84   H20   S    
C3    C122  S    
C16   C20   S    
Cr12  O40   S    
C115  O7    A    
C128  C132  A    
C113  O5    A    
C72   C88   A    
C80   H12   S    
C19   C131  S    
C63   C67   A    
Cr12  O12   S    
Cr7   O27   S    
C11   H39   S    
Cr2   O42   S    
C75   H7    S    
C2    O26   A    
C144  H100  S    
O55   C137  S    
C49   H66   S    
C120  O44   A    
C55   H3    S    
C99   C100  A    
C12   C124  A    
C33   C34   A    
C27   C92   S    
C67   C83   S    
C16   C128  S    
C111  O51   A    
C136  H77   S    
C68   C88   A    
C116  O8    A    
C93   C118  S    
C70   C86   A    
C45   O29   A    
C95   C104  A    
C72   O60   S    
O58   C142  S    
Cr4   O44   S    
C74   H6    S    
Cr6   O30   S    
C65   C85   A    
C67   C87   A    
C86   C114  S    
Cr1   O1    S    
C140  H87   S    
C16   H42   S    
C71   C75   A    
C35   H59   S    
C33   H57   S    
Cr10  O10   S    
Cr6   O26   S    
C139  H85   S    
C109  O45   A    
C110  O50   A    
C133  H69   S    
Cr6   O6    S    
C81   H21   S    
Cr12  O16   S    
C36   H60   S    
C109  O49   A    
C20   H52   S    
C52   C56   A    
C26   C41   A    
C77   H13   S    
Cr4   O4    S    
