data_mof_unit_21636.cif
_audit_creation_date              2012-12-11T14:48:15-0500
_audit_creation_method            fapswitch 2.2
_symmetry_space_group_name_H-M    P1
_symmetry_Int_Tables_number       1
_space_group_crystal_system       triclinic
_cell_length_a                    11.541304
_cell_length_b                    11.523395
_cell_length_c                    19.59566
_cell_angle_alpha                 90.481616
_cell_angle_beta                  90.449183
_cell_angle_gamma                 59.932853
_cell_volume                      2255.34220657

loop_
_atom_site_label
_atom_site_type_symbol
_atom_type_description
_atom_site_fract_x
_atom_site_fract_y
_atom_site_fract_z
_atom_type_partial_charge
Br1   Br    Br    0.933537 0.910804 0.190264 -0.491266
Br2   Br    Br    0.954772 0.598947 0.195293 -0.471403
C1    C     C_R   0.640627 0.117104 0.599359 0.544911
C2    C     C_1   0.653572 0.149041 0.668722 0.003760
C3    C     C_R   0.525865 0.748598 0.288288 -0.178863
C4    C     C_R   0.612734 0.745979 0.598699 0.542608
C5    C     C_R   0.539847 0.736539 0.218941 -0.191403
C6    C     C_R   0.666996 0.678350 0.190556 0.018268
C7    C     C_R   0.780024 0.651004 0.231784 0.177914
C8    C     C_R   0.766087 0.659069 0.302663 0.144650
C9    C     C_R   0.638592 0.706147 0.330479 0.026362
C10   C     C_R   0.235163 0.244523 0.289223 -0.119170
C11   C     C_R   0.206330 0.260639 0.220609 -0.105944
C12   C     C_1   0.641837 0.704027 0.668095 0.004403
C13   C     C_R   0.153301 0.188597 0.189391 0.017838
C14   C     C_R   0.143162 0.089237 0.225856 -0.134175
C15   C     C_R   0.173843 0.071624 0.294995 -0.152125
C16   C     C_R   0.241592 0.145042 0.598373 0.546783
C17   C     C_R   0.214719 0.153373 0.327464 0.010624
C18   C     C_R   0.775133 0.057864 0.299254 -0.113862
C19   C     C_R   0.780666 0.065917 0.229803 0.137941
C20   C     C_R   0.677560 0.178816 0.194386 0.033938
C21   C     C_R   0.561449 0.272088 0.230401 0.097005
C22   C     C_R   0.556744 0.257574 0.300835 -0.110948
C23   C     C_1   0.125862 0.199273 0.859119 0.005069
C24   C     C_R   0.663207 0.150523 0.335060 -0.042371
C25   C     C_R   0.081084 0.231620 0.928375 0.538320
C26   C     C_R   0.683638 0.604487 0.929376 0.543840
C27   C     C_R   0.708062 0.207051 0.930029 0.544132
C28   C     C_R   0.644712 0.113486 0.402887 0.544906
C29   C     C_R   0.085601 0.234181 0.124301 0.546480
C30   C     C_R   0.683472 0.614551 0.124638 0.559889
C31   C     C_R   0.707843 0.209173 0.126441 0.554064
C32   C     C_R   0.614311 0.742696 0.401401 0.562670
C33   C     C_R   0.252249 0.137146 0.398968 0.539838
C34   C     C_1   0.171884 0.170240 0.727732 -0.029838
C35   C     C_1   0.669653 0.646535 0.860022 0.006851
C36   C     C_1   0.654998 0.683828 0.728489 -0.030332
C37   C     C_1   0.663005 0.666767 0.799667 -0.029633
C38   C     C_3   0.401286 0.509090 0.213970 -0.270846
C39   C     C_3   0.932313 0.483804 0.373628 -0.289974
C40   C     C_1   0.149720 0.182628 0.798885 -0.028951
C41   C     C_1   0.196062 0.160608 0.667524 0.002798
C42   C     C_1   0.677990 0.192046 0.860637 0.006116
C43   C     C_1   0.658882 0.166924 0.729025 -0.030047
C44   C     C_1   0.665416 0.181314 0.800241 -0.029072
Cr1   Cr    Cr6+3 0.404720 0.198220 0.499960 1.022006
Cr2   Cr    Cr6+3 0.698290 0.897110 0.500380 1.048387
Cr3   Cr    Cr6+3 0.396970 0.904720 0.499610 1.028236
Cr4   Cr    Cr6+3 0.926180 0.152240 0.028110 1.075066
Cr5   Cr    Cr6+3 0.921340 0.452070 0.027460 1.092382
Cr6   Cr    Cr6+3 0.626260 0.447120 0.028700 1.030397
H1    H     H_    0.425511 0.792637 0.308705 0.154841
H2    H     H_    0.312431 0.577425 0.182821 0.178831
H3    H     H_    0.483064 0.530357 0.203910 0.179751
H4    H     H_    0.372879 0.528927 0.268586 0.144796
H5    H     H_    0.951764 0.637866 0.330373 0.292703
H6    H     H_    0.965403 0.409444 0.331321 0.165774
H7    H     H_    0.855020 0.477194 0.404032 0.143732
H8    H     H_    0.018958 0.459658 0.407508 0.163016
H9    H     H_    0.466415 0.325464 0.328196 0.139904
H10   H     H_    0.451897 0.763664 0.187801 0.144890
H11   H     H_    0.271608 0.305765 0.312376 0.150662
H12   H     H_    0.218111 0.335074 0.193021 0.185298
H13   H     H_    0.104668 0.030490 0.201985 0.183436
H14   H     H_    0.162532 0.997388 0.323113 0.133522
H15   H     H_    0.856061 0.971935 0.324675 0.176985
H16   H     H_    0.434238 0.354567 0.145466 0.269197
N1    N     N_2   0.444171 0.371359 0.196331 -0.527164
N2    N     N_2   0.879238 0.617384 0.346565 -0.487835
O1    O     O_R   0.267740 0.231990 0.575440 -0.504713
O2    O     O_R   0.596140 0.579600 0.952720 -0.504520
O3    O     O_R   0.639070 0.321380 0.958660 -0.497547
O4    O     O_R   0.527280 0.186680 0.570530 -0.494168
O5    O     O_R   0.821240 0.124490 0.104360 -0.456683
O6    O     O_R   0.036900 0.167320 0.097830 -0.501869
O7    O     O_R   0.056190 0.349890 0.102870 -0.476095
O8    O     O_R   0.797670 0.565150 0.097930 -0.444122
O9    O     O_R   0.595880 0.584540 0.104260 -0.536135
O10   O     O_R   0.638830 0.325960 0.099140 -0.509079
O11   O     O_3   0.824590 0.350480 0.028090 -0.269418
O12   O     O_R   0.685970 0.784630 0.430010 -0.463245
O13   O     O_R   0.728090 0.003480 0.576380 -0.505098
O14   O     O_R   0.682970 0.789220 0.570490 -0.495247
O15   O     O_R   0.499290 0.771920 0.575530 -0.504448
O16   O     O_R   0.285330 0.030900 0.569730 -0.491922
O17   O     O_R   0.270980 0.227040 0.423900 -0.537078
O18   O     O_R   0.530280 0.182090 0.430050 -0.509429
O19   O     O_R   0.731330 0.998530 0.424830 -0.512985
O20   O     O_R   0.502530 0.766960 0.423990 -0.536590
O21   O     O_R   0.288330 0.026310 0.429250 -0.502112
O22   O     O_3   0.499990 0.000020 0.499980 -0.258844
O23   O     O_R   0.821500 0.119550 0.952820 -0.496308
O24   O     O_R   0.037130 0.162750 0.957360 -0.496870
O25   O     O_R   0.056440 0.344950 0.951330 -0.504886
O26   O     O_R   0.797900 0.560570 0.957460 -0.491151

loop_
_geom_bond_atom_site_label_1
_geom_bond_atom_site_label_2
_ccdc_geom_bond_type
Br1   C19   S    
C22   H9    S    
Cr1   O22   S    
C21   N1    S    
C18   H15   S    
C34   C40   S    
Cr3   O20   S    
C32   O20   A    
C5    C6    A    
C43   C44   S    
C15   H14   S    
C16   O16   A    
C4    O15   A    
C3    H1    S    
C22   C24   A    
C39   H6    S    
C3    C9    A    
C36   C37   S    
C12   C36   T    
C13   C14   A    
C1    O4    A    
C39   H8    S    
H16   N1    S    
C25   O25   A    
C31   O5    A    
C6    C7    A    
C38   H4    S    
C21   C22   A    
H5    N2    S    
Cr6   O9    S    
C7    C8    A    
Cr5   O11   S    
Cr5   O26   S    
C19   C20   A    
C26   O2    A    
C33   O17   A    
Cr3   O21   S    
C28   O19   A    
C42   C44   T    
C29   O7    A    
C2    C43   T    
C4    O14   A    
C38   N1    S    
C6    C30   S    
Cr3   O15   S    
C39   H7    S    
Cr6   O3    S    
C3    C5    A    
C10   H11   S    
Cr4   O24   S    
Cr2   O14   S    
Cr1   O17   S    
Cr5   O7    S    
C5    H10   S    
Cr6   O2    S    
Cr4   O6    S    
C4    C12   S    
C38   H3    S    
C31   O10   A    
C10   C11   A    
Cr1   O1    S    
C8    N2    S    
C24   C28   S    
C38   H2    S    
Cr2   O19   S    
C11   C13   A    
C27   C42   S    
C1    O13   A    
Cr3   O22   S    
C28   O18   A    
C1    C2    S    
C16   O1    A    
C20   C31   S    
Cr6   O10   S    
Cr3   O16   S    
C9    C32   S    
Cr1   O4    S    
C34   C41   T    
C23   C40   T    
Cr4   O23   S    
C13   C29   S    
C23   C25   S    
Cr2   O13   S    
C26   O26   A    
Cr1   O18   S    
Cr5   O8    S    
C35   C37   T    
C17   C33   S    
Cr4   O5    S    
C30   O9    A    
C27   O23   A    
C29   O6    A    
C14   C15   A    
C11   H12   S    
C18   C24   A    
C26   C35   S    
C10   C17   A    
C15   C17   A    
Cr2   O12   S    
Cr6   O11   S    
C8    C9    A    
C30   O8    A    
C27   O3    A    
C18   C19   A    
Cr2   O22   S    
C20   C21   A    
C25   O24   A    
C14   H13   S    
C32   O12   A    
C16   C41   S    
Br2   C7    S    
Cr4   O11   S    
Cr5   O25   S    
C39   N2    S    
C33   O21   A    
