data_mof_unit_62594.cif
_audit_creation_date              2012-12-10T20:11:21-0500
_audit_creation_method            fapswitch 2.2
_symmetry_space_group_name_H-M    P1
_symmetry_Int_Tables_number       1
_space_group_crystal_system       triclinic
_cell_length_a                    41.763719
_cell_length_b                    35.491858
_cell_length_c                    21.740148
_cell_angle_alpha                 89.994428
_cell_angle_beta                  121.796289
_cell_angle_gamma                 89.813797
_cell_volume                      27388.5255976

loop_
_atom_site_label
_atom_site_type_symbol
_atom_type_description
_atom_site_fract_x
_atom_site_fract_y
_atom_site_fract_z
_atom_type_partial_charge
C1    C     C_R   0.426541 0.500071 0.926358 0.876266
C2    C     C_R   0.573472 0.499924 0.073597 0.876058
C3    C     C_R   0.926540 0.000071 0.926358 0.876266
C4    C     C_R   0.073472 0.999924 0.073597 0.876058
C5    C     C_2   0.508959 0.500695 0.824498 -0.505735
C6    C     C_2   0.491055 0.500735 0.175517 -0.505855
C7    C     C_2   0.008959 0.000695 0.824498 -0.505735
C8    C     C_2   0.991055 0.000735 0.175517 -0.505854
C9    C     C_R   0.175198 0.475643 0.718176 0.535813
C10   C     C_R   0.825595 0.472269 0.285261 0.541649
C11   C     C_R   0.675198 0.975643 0.718176 0.535814
C12   C     C_R   0.325595 0.972268 0.285262 0.541649
C13   C     C_R   0.135552 0.476646 0.682462 0.039076
C14   C     C_R   0.865213 0.473798 0.320846 0.032317
C15   C     C_R   0.635552 0.976645 0.682461 0.039074
C16   C     C_R   0.365213 0.973798 0.320847 0.032316
C17   C     C_R   0.114658 0.495945 0.614980 -0.135084
C18   C     C_R   0.885508 0.495481 0.385294 -0.135245
C19   C     C_R   0.614658 0.995945 0.614980 -0.135082
C20   C     C_R   0.385508 0.995481 0.385294 -0.135244
C21   C     C_R   0.133548 0.513021 0.584820 -0.248029
C22   C     C_R   0.866162 0.514398 0.412771 -0.242587
C23   C     C_R   0.633548 0.013022 0.584821 -0.248028
C24   C     C_R   0.366162 0.014399 0.412770 -0.242587
C25   C     C_R   0.172503 0.513023 0.621695 -0.256333
C26   C     C_R   0.827196 0.513962 0.375686 -0.255576
C27   C     C_R   0.672504 0.013024 0.621696 -0.256332
C28   C     C_R   0.327196 0.013963 0.375685 -0.255575
C29   C     C_R   0.193190 0.495074 0.688416 0.003841
C30   C     C_R   0.807016 0.493619 0.311750 0.002093
C31   C     C_R   0.693190 0.995074 0.688416 0.003841
C32   C     C_R   0.307016 0.993619 0.311750 0.002093
C33   C     C_1   0.233147 0.497335 0.727053 0.005646
C34   C     C_1   0.766992 0.495559 0.272420 0.005851
C35   C     C_1   0.733147 0.997335 0.727053 0.005647
C36   C     C_1   0.266992 0.995559 0.272420 0.005851
C37   C     C_1   0.266721 0.498886 0.760400 -0.055498
C38   C     C_1   0.733390 0.497159 0.238761 -0.055032
C39   C     C_1   0.766721 0.998887 0.760400 -0.055498
C40   C     C_1   0.233390 0.997160 0.238761 -0.055032
C41   C     C_R   0.326482 0.466238 0.824494 -0.206471
C42   C     C_R   0.673503 0.465091 0.174730 -0.205476
C43   C     C_R   0.826482 0.966239 0.824494 -0.206471
C44   C     C_R   0.173503 0.965091 0.174730 -0.205477
C45   C     C_R   0.501781 0.500004 0.882619 0.980175
C46   C     C_R   0.498227 0.500013 0.117390 0.980178
C47   C     C_R   0.001781 0.000004 0.882619 0.980175
C48   C     C_R   0.998227 0.000013 0.117390 0.980178
C49   C     C_R   0.365557 0.466161 0.865619 -0.195831
C50   C     C_R   0.634414 0.465419 0.133909 -0.195781
C51   C     C_R   0.865556 0.966161 0.865619 -0.195831
C52   C     C_R   0.134414 0.965420 0.133909 -0.195780
C53   C     C_R   0.385314 0.500255 0.883825 -0.067920
C54   C     C_R   0.614723 0.499714 0.115871 -0.068202
C55   C     C_R   0.885314 0.000255 0.883825 -0.067920
C56   C     C_R   0.114724 0.999714 0.115870 -0.068202
C57   C     C_R   0.365466 0.534497 0.860369 -0.241406
C58   C     C_R   0.634669 0.533749 0.139151 -0.241263
C59   C     C_R   0.865466 0.034497 0.860369 -0.241406
C60   C     C_R   0.134669 0.033749 0.139151 -0.241262
C61   C     C_R   0.326065 0.534906 0.818611 0.201039
C62   C     C_R   0.674087 0.533752 0.180600 0.201053
C63   C     C_R   0.826065 0.034906 0.818611 0.201039
C64   C     C_R   0.174087 0.033752 0.180600 0.201053
C65   C     C_R   0.306771 0.500281 0.801011 0.126980
C66   C     C_R   0.693315 0.498929 0.198079 0.125892
C67   C     C_R   0.806771 0.000282 0.801011 0.126980
C68   C     C_R   0.193315 0.998929 0.198079 0.125892
C69   C     C_R   0.498780 0.693378 0.496304 0.160257
C70   C     C_R   0.998780 0.193378 0.496304 0.160257
C71   C     C_R   0.465175 0.634487 0.464144 -0.198007
C72   C     C_R   0.533606 0.634867 0.532400 -0.199327
C73   C     C_R   0.965175 0.134488 0.464144 -0.198006
C74   C     C_R   0.033606 0.134867 0.532400 -0.199328
C75   C     C_1   0.998214 0.267156 0.494970 -0.042519
C76   C     C_1   0.498213 0.767156 0.494970 -0.042519
C77   C     C_R   0.998442 0.307266 0.495430 0.055417
C78   C     C_R   0.498442 0.807266 0.495430 0.055417
C79   C     C_R   0.500069 0.426595 0.500062 0.920001
C80   C     C_R   0.000069 0.926595 0.500062 0.920000
C81   C     C_R   0.464817 0.673693 0.462900 -0.165418
C82   C     C_R   0.533154 0.674091 0.531056 -0.164061
C83   C     C_R   0.964817 0.173693 0.462900 -0.165418
C84   C     C_R   0.033154 0.174091 0.531056 -0.164061
C85   C     C_R   0.500117 0.497943 0.619276 0.975004
C86   C     C_R   0.499896 0.497948 0.380737 0.974944
C87   C     C_R   0.000117 0.997943 0.619276 0.975004
C88   C     C_R   0.999896 0.997948 0.380737 0.974944
C89   C     C_R   0.499911 0.573463 0.499823 0.876125
C90   C     C_R   0.999911 0.073463 0.499823 0.876125
C91   C     C_R   0.000320 0.426842 0.500332 0.833617
C92   C     C_R   0.500320 0.926842 0.500332 0.833616
C93   C     C_R   0.073397 0.498538 0.573692 0.874530
C94   C     C_R   0.926656 0.498493 0.426394 0.869546
C95   C     C_R   0.573397 0.998538 0.573692 0.874528
C96   C     C_R   0.426656 0.998493 0.426394 0.869546
C97   C     C_R   0.000022 0.573392 0.500021 0.982438
C98   C     C_R   0.500022 0.073392 0.500021 0.982435
C99   C     C_R   0.977489 0.673857 0.519673 0.056596
C100  C     C_R   0.023539 0.673492 0.481551 0.056403
C101  C     C_R   0.477490 0.173857 0.519675 0.056599
C102  C     C_R   0.523538 0.173492 0.481549 0.056404
C103  C     C_R   0.976297 0.634321 0.516473 0.426019
C104  C     C_R   0.024354 0.633934 0.484311 0.425729
C105  C     C_R   0.476298 0.134321 0.516475 0.426018
C106  C     C_R   0.524353 0.133934 0.484309 0.425729
C107  C     C_R   0.000207 0.614526 0.500223 -0.343801
C108  C     C_R   0.500207 0.114526 0.500223 -0.343800
C109  C     C_R   0.000592 0.693130 0.500686 -0.075842
C110  C     C_R   0.500593 0.193131 0.500687 -0.075838
C111  C     C_1   0.000678 0.733341 0.500694 0.037840
C112  C     C_1   0.500678 0.233341 0.500695 0.037841
C113  C     C_R   0.999958 0.385742 0.499799 -0.131305
C114  C     C_R   0.499958 0.885742 0.499799 -0.131305
C115  C     C_1   0.500656 0.266934 0.500644 0.062109
C116  C     C_1   0.000656 0.766934 0.500644 0.062109
C117  C     C_R   0.467430 0.326406 0.482597 0.505030
C118  C     C_R   0.533479 0.326398 0.518303 0.504800
C119  C     C_R   0.967431 0.826407 0.482599 0.505031
C120  C     C_R   0.033479 0.826398 0.518300 0.504798
C121  C     C_R   0.467195 0.365706 0.480807 -0.306171
C122  C     C_R   0.533418 0.365698 0.519785 -0.305977
C123  C     C_R   0.967195 0.865706 0.480809 -0.306171
C124  C     C_R   0.033418 0.865698 0.519783 -0.305976
C125  C     C_R   0.500231 0.385459 0.500219 -0.186141
C126  C     C_R   0.000231 0.885459 0.500219 -0.186141
C127  C     C_R   0.500527 0.306956 0.500517 -0.111830
C128  C     C_R   0.000526 0.806956 0.500516 -0.111830
C129  C     C_R   0.967615 0.326969 0.487644 -0.154563
C130  C     C_R   0.029895 0.326175 0.505179 -0.173127
C131  C     C_R   0.467615 0.826969 0.487645 -0.154563
C132  C     C_R   0.529895 0.826175 0.505178 -0.173127
C133  C     C_R   0.967621 0.366525 0.489100 0.111624
C134  C     C_R   0.031432 0.365469 0.508474 0.139416
C135  C     C_R   0.467621 0.866525 0.489101 0.111625
C136  C     C_R   0.531432 0.865469 0.508473 0.139416
C137  C     C_1   0.498370 0.733464 0.495314 -0.072690
C138  C     C_1   0.998370 0.233464 0.495314 -0.072690
C139  C     C_R   0.499591 0.614766 0.498912 -0.040901
C140  C     C_R   0.999591 0.114766 0.498912 -0.040901
C141  C     C_2   0.527945 0.475760 0.745820 0.060287
C142  C     C_2   0.472161 0.475878 0.254288 0.060291
C143  C     C_2   0.027945 0.975760 0.745820 0.060287
C144  C     C_2   0.972161 0.975878 0.254288 0.060291
C145  C     C_2   0.499416 0.490981 0.684126 -0.489807
C146  C     C_2   0.500635 0.490973 0.315933 -0.489865
C147  C     C_2   0.999416 0.990981 0.684126 -0.489807
C148  C     C_2   0.000635 0.990973 0.315933 -0.489865
C149  C     C_2   0.520126 0.470235 0.803895 0.580111
C150  C     C_2   0.480008 0.470319 0.196253 0.580195
C151  C     C_2   0.020126 0.970236 0.803895 0.580110
C152  C     C_2   0.980008 0.970319 0.196253 0.580195
H1    H     H_    0.438131 0.688631 0.435994 0.132481
H2    H     H_    0.559533 0.689357 0.557070 0.132444
H3    H     H_    0.938131 0.188632 0.435994 0.132480
H4    H     H_    0.059533 0.189357 0.557070 0.132444
H5    H     H_    0.311564 0.439661 0.811120 0.141593
H6    H     H_    0.688349 0.438359 0.188034 0.142756
H7    H     H_    0.811564 0.939661 0.811120 0.141593
H8    H     H_    0.188349 0.938359 0.188034 0.142757
H9    H     H_    0.380255 0.439413 0.883161 0.167072
H10   H     H_    0.619649 0.438816 0.116491 0.167193
H11   H     H_    0.880255 0.939413 0.883161 0.167072
H12   H     H_    0.119649 0.938816 0.116492 0.167192
H13   H     H_    0.380624 0.560917 0.874006 0.158904
H14   H     H_    0.619575 0.560322 0.125629 0.158806
H15   H     H_    0.880625 0.060917 0.874007 0.158904
H16   H     H_    0.119575 0.060322 0.125629 0.158805
H17   H     H_    0.438562 0.619677 0.437906 0.157438
H18   H     H_    0.560492 0.620341 0.559522 0.157035
H19   H     H_    0.938562 0.119677 0.437906 0.157438
H20   H     H_    0.060492 0.120341 0.559522 0.157035
H21   H     H_    0.441316 0.380626 0.465218 0.185822
H22   H     H_    0.559183 0.380612 0.535241 0.185912
H23   H     H_    0.941317 0.880626 0.465222 0.185821
H24   H     H_    0.059182 0.880612 0.535237 0.185912
H25   H     H_    0.943902 0.311011 0.480654 0.154823
H26   H     H_    0.053516 0.310179 0.511002 0.145325
H27   H     H_    0.443902 0.811011 0.480655 0.154823
H28   H     H_    0.553516 0.810179 0.511000 0.145325
H29   H     H_    0.472415 0.496106 0.679134 0.146700
H30   H     H_    0.527619 0.495990 0.320914 0.146725
H31   H     H_    0.972415 0.996106 0.679134 0.146700
H32   H     H_    0.027619 0.995990 0.320914 0.146724
H33   H     H_    0.506746 0.527944 0.799535 0.132615
H34   H     H_    0.493177 0.527974 0.200381 0.132635
H35   H     H_    0.006746 0.027944 0.799535 0.132615
H36   H     H_    0.993177 0.027974 0.200381 0.132635
H37   H     H_    0.118086 0.527278 0.533023 0.177901
H38   H     H_    0.881277 0.530392 0.462479 0.174417
H39   H     H_    0.618086 0.027279 0.533024 0.177898
H40   H     H_    0.381277 0.030393 0.462478 0.174414
H41   H     H_    0.186553 0.527458 0.598486 0.163817
H42   H     H_    0.812736 0.529879 0.396527 0.163571
H43   H     H_    0.686553 0.027460 0.598487 0.163817
H44   H     H_    0.312736 0.029881 0.396526 0.163571
O1    O     O_R   0.444560 0.531280 0.944560 -0.630360
O2    O     O_R   0.555440 0.531280 0.055440 -0.630004
O3    O     O_R   0.944560 0.031280 0.944560 -0.630360
O4    O     O_R   0.055440 0.031280 0.055440 -0.630004
O5    O     O_R   0.055440 0.500090 0.504360 -0.616879
O6    O     O_R   0.944560 0.500090 0.495640 -0.613467
O7    O     O_R   0.555440 0.000090 0.504360 -0.616880
O8    O     O_R   0.444560 0.000090 0.495640 -0.613467
O9    O     O_R   0.055430 0.500110 0.606490 -0.622609
O10   O     O_R   0.944570 0.500110 0.393510 -0.622197
O11   O     O_R   0.555430 0.000110 0.606490 -0.622608
O12   O     O_R   0.444570 0.000110 0.393510 -0.622196
O13   O     O_R   0.000010 0.555520 0.448910 -0.582161
O14   O     O_R   0.999990 0.555520 0.551090 -0.582827
O15   O     O_R   0.500010 0.055520 0.448910 -0.582160
O16   O     O_R   0.499990 0.055520 0.551090 -0.582825
O17   O     O_R   0.444540 0.468700 0.944530 -0.624719
O18   O     O_R   0.555460 0.468700 0.055470 -0.624847
O19   O     O_R   0.944540 0.968700 0.944530 -0.624719
O20   O     O_R   0.055460 0.968700 0.055470 -0.624847
O21   O     O_R   0.500010 0.531280 0.909540 -0.632858
O22   O     O_R   0.499990 0.531280 0.090460 -0.632823
O23   O     O_R   0.000010 0.031280 0.909540 -0.632858
O24   O     O_R   0.999990 0.031280 0.090460 -0.632823
O25   O     O_R   0.499990 0.468700 0.909520 -0.560181
O26   O     O_R   0.500010 0.468700 0.090480 -0.560012
O27   O     O_R   0.999990 0.968700 0.909520 -0.560181
O28   O     O_R   0.000010 0.968700 0.090480 -0.560012
O29   O     O_R   0.531280 0.444560 0.531260 -0.631550
O30   O     O_R   0.468720 0.444560 0.468740 -0.631480
O31   O     O_R   0.031280 0.944560 0.531260 -0.631549
O32   O     O_R   0.968720 0.944560 0.468740 -0.631479
O33   O     O_R   0.531280 0.499990 0.621740 -0.630941
O34   O     O_R   0.468720 0.499990 0.378260 -0.631127
O35   O     O_R   0.031280 0.999990 0.621740 -0.630941
O36   O     O_R   0.968720 0.999990 0.378260 -0.631127
O37   O     O_R   0.468680 0.499990 0.559140 -0.618878
O38   O     O_R   0.531320 0.499990 0.440860 -0.618880
O39   O     O_R   0.968680 0.999990 0.559140 -0.618878
O40   O     O_R   0.031320 0.999990 0.440860 -0.618880
O41   O     O_R   0.531300 0.555420 0.531300 -0.623193
O42   O     O_R   0.468700 0.555420 0.468700 -0.623730
O43   O     O_R   0.031300 0.055420 0.531300 -0.623193
O44   O     O_R   0.968700 0.055420 0.468700 -0.623730
O45   O     O_R   0.999980 0.444660 0.448930 -0.629425
O46   O     O_R   0.000020 0.444660 0.551070 -0.625543
O47   O     O_R   0.499980 0.944660 0.448930 -0.629425
O48   O     O_R   0.500020 0.944660 0.551070 -0.625543
Zn1   Zn    Zn3+2 0.500000 0.541780 0.000000 0.944440
Zn2   Zn    Zn3+2 0.000000 0.041780 0.000000 0.944439
Zn3   Zn    Zn3+2 0.500000 0.458200 0.000000 1.001791
Zn4   Zn    Zn3+2 1.000000 0.958200 0.000000 1.001791
Zn5   Zn    Zn3+2 0.541790 0.499990 0.541780 0.934266
Zn6   Zn    Zn3+2 0.458210 0.499990 0.458220 0.933933
Zn7   Zn    Zn3+2 0.041790 0.999990 0.541780 0.934266
Zn8   Zn    Zn3+2 0.958210 0.999990 0.458220 0.933933
Zn9   Zn    Zn3+2 1.000000 0.500080 0.431790 0.963404
Zn10  Zn    Zn3+2 0.000000 0.500080 0.568210 0.963229
Zn11  Zn    Zn3+2 0.500000 0.000080 0.431790 0.963404
Zn12  Zn    Zn3+2 0.500000 0.000080 0.568210 0.963230
C153  C     C_3   0.305444 0.572253 0.793971 -0.428025
C154  C     C_3   0.291247 0.579772 0.714447 -0.857889
H45   H     H_    0.315243 0.580046 0.705934 0.260467
H46   H     H_    0.270794 0.557907 0.679319 0.258388
H47   H     H_    0.276956 0.607638 0.698391 0.248829
H48   H     H_    0.281430 0.572638 0.802456 0.212892
H49   H     H_    0.324366 0.595738 0.826628 0.202465
C155  C     C_3   0.694798 0.570896 0.205102 -0.428251
C156  C     C_3   0.709067 0.578384 0.284630 -0.858459
H50   H     H_    0.685096 0.578972 0.293218 0.260656
H51   H     H_    0.729470 0.556331 0.319782 0.258163
H52   H     H_    0.723436 0.606102 0.300592 0.248619
H53   H     H_    0.718785 0.570987 0.196536 0.212339
H54   H     H_    0.675917 0.594546 0.172409 0.202506
C157  C     C_3   0.805444 0.072253 0.793972 -0.428026
C158  C     C_3   0.791247 0.079772 0.714448 -0.857889
H55   H     H_    0.815243 0.080047 0.705934 0.260467
H56   H     H_    0.770794 0.057907 0.679319 0.258387
H57   H     H_    0.776956 0.107638 0.698391 0.248828
H58   H     H_    0.781431 0.072638 0.802457 0.212892
H59   H     H_    0.824366 0.095738 0.826629 0.202465
C159  C     C_3   0.194798 0.070896 0.205102 -0.428250
C160  C     C_3   0.209066 0.078385 0.284630 -0.858457
H60   H     H_    0.185096 0.078972 0.293218 0.260656
H61   H     H_    0.229470 0.056331 0.319782 0.258162
H62   H     H_    0.223436 0.106102 0.300592 0.248618
H63   H     H_    0.218785 0.070987 0.196535 0.212339
H64   H     H_    0.175917 0.094546 0.172408 0.202506
C161  C     C_3   0.953905 0.695253 0.542829 -0.349171
C162  C     C_3   0.978066 0.708428 0.621182 -0.855410
H65   H     H_    0.991298 0.683818 0.657748 0.274549
H66   H     H_    0.000473 0.727882 0.628058 0.256396
H67   H     H_    0.960098 0.723554 0.636813 0.236066
H68   H     H_    0.939849 0.719822 0.506628 0.211175
H69   H     H_    0.930856 0.677650 0.538283 0.235548
C163  C     C_3   0.047309 0.694515 0.458606 -0.349022
C164  C     C_3   0.023293 0.707962 0.380280 -0.855249
H70   H     H_    0.009968 0.683506 0.343624 0.274668
H71   H     H_    0.000962 0.727712 0.373360 0.256160
H72   H     H_    0.041384 0.722835 0.364810 0.236106
H73   H     H_    0.061476 0.718922 0.494886 0.210401
H74   H     H_    0.070277 0.676574 0.463216 0.235338
C165  C     C_3   0.453907 0.195253 0.542833 -0.349186
C166  C     C_3   0.478069 0.208428 0.621185 -0.855414
H75   H     H_    0.491303 0.183818 0.657751 0.274550
H76   H     H_    0.500476 0.227882 0.628058 0.256400
H77   H     H_    0.460102 0.223555 0.636818 0.236069
H78   H     H_    0.439851 0.219822 0.506633 0.211177
H79   H     H_    0.430859 0.177650 0.538290 0.235551
C167  C     C_3   0.547307 0.194515 0.458602 -0.349031
C168  C     C_3   0.523290 0.207963 0.380277 -0.855256
H80   H     H_    0.509964 0.183507 0.343621 0.274670
H81   H     H_    0.500960 0.227714 0.373360 0.256164
H82   H     H_    0.541381 0.222836 0.364806 0.236109
H83   H     H_    0.561475 0.218922 0.494882 0.210401
H84   H     H_    0.570274 0.176573 0.463209 0.235340
O49   O     O_3   0.952728 0.614912 0.532122 -0.581423
C169  C     C_3   0.918501 0.607747 0.466633 -0.323441
H85   H     H_    0.905928 0.633829 0.433933 0.145870
H86   H     H_    0.898008 0.596568 0.479679 0.188393
H87   H     H_    0.922387 0.586181 0.434010 0.159612
O50   O     O_3   0.047777 0.614140 0.468551 -0.581879
C170  C     C_3   0.081884 0.606329 0.534034 -0.319737
H88   H     H_    0.077662 0.585159 0.566789 0.158715
H89   H     H_    0.094897 0.632250 0.566607 0.145450
H90   H     H_    0.102158 0.594352 0.521000 0.189308
O51   O     O_3   0.452730 0.114912 0.532127 -0.581422
C171  C     C_3   0.418502 0.107747 0.466639 -0.323444
H91   H     H_    0.422388 0.086182 0.434014 0.159612
H92   H     H_    0.405929 0.133829 0.433940 0.145871
H93   H     H_    0.398010 0.096567 0.479687 0.188394
O52   O     O_3   0.547776 0.114140 0.468546 -0.581879
C172  C     C_3   0.581883 0.106329 0.534028 -0.319744
H94   H     H_    0.594896 0.132250 0.566600 0.145452
H95   H     H_    0.602156 0.094351 0.520992 0.189311
H96   H     H_    0.577661 0.085159 0.566785 0.158716
O53   O     O_3   0.434746 0.306932 0.462694 -0.597346
C173  C     C_3   0.429978 0.306178 0.522235 -0.345699
H97   H     H_    0.424782 0.334942 0.535562 0.163246
H98   H     H_    0.454655 0.292981 0.570551 0.164431
H99   H     H_    0.404940 0.288794 0.507746 0.195029
O54   O     O_3   0.566314 0.306928 0.538366 -0.597046
C174  C     C_3   0.570900 0.305884 0.478617 -0.344853
H100  H     H_    0.575669 0.334585 0.464440 0.162975
H101  H     H_    0.546324 0.292452 0.430778 0.164287
H102  H     H_    0.596127 0.288573 0.493325 0.195189
O55   O     O_3   0.934747 0.806933 0.462698 -0.597347
C175  C     C_3   0.929980 0.806178 0.522242 -0.345702
H103  H     H_    0.924785 0.834942 0.535568 0.163245
H104  H     H_    0.954657 0.792981 0.570557 0.164432
H105  H     H_    0.904943 0.788794 0.507754 0.195030
O56   O     O_3   0.066313 0.806928 0.538361 -0.597046
C176  C     C_3   0.070898 0.805884 0.478609 -0.344849
H106  H     H_    0.075666 0.834584 0.464431 0.162974
H107  H     H_    0.046321 0.792451 0.430772 0.164287
H108  H     H_    0.096124 0.788573 0.493315 0.195188
C177  C     C_3   0.566222 0.465743 0.756932 -0.352146
C178  C     C_3   0.595206 0.450337 0.832030 -0.837303
H109  H     H_    0.598637 0.469941 0.874924 0.265253
H110  H     H_    0.586881 0.422082 0.840469 0.283636
H111  H     H_    0.622888 0.447364 0.836714 0.237256
H112  H     H_    0.562333 0.444588 0.715855 0.212621
H113  H     H_    0.578677 0.491640 0.749468 0.227089
C179  C     C_3   0.433905 0.466035 0.243164 -0.351757
C180  C     C_3   0.404979 0.450777 0.168099 -0.837971
H114  H     H_    0.401499 0.470407 0.125160 0.265297
H115  H     H_    0.413394 0.422487 0.159747 0.283612
H116  H     H_    0.377300 0.447929 0.163396 0.237197
H117  H     H_    0.437847 0.444850 0.284287 0.212736
H118  H     H_    0.421364 0.491986 0.250539 0.227051
C181  C     C_3   0.066222 0.965743 0.756932 -0.352147
C182  C     C_3   0.095206 0.950337 0.832030 -0.837303
H119  H     H_    0.098637 0.969941 0.874924 0.265252
H120  H     H_    0.086881 0.922082 0.840469 0.283637
H121  H     H_    0.122888 0.947364 0.836714 0.237255
H122  H     H_    0.062332 0.944588 0.715855 0.212621
H123  H     H_    0.078677 0.991640 0.749468 0.227089
C183  C     C_3   0.933905 0.966035 0.243164 -0.351755
C184  C     C_3   0.904979 0.950777 0.168099 -0.837972
H124  H     H_    0.901499 0.970407 0.125160 0.265296
H125  H     H_    0.913394 0.922487 0.159747 0.283613
H126  H     H_    0.877300 0.947929 0.163396 0.237198
H127  H     H_    0.937847 0.944850 0.284287 0.212735
H128  H     H_    0.921364 0.991987 0.250539 0.227050
C185  C     C_3   0.933939 0.388871 0.479475 -0.365936
C186  C     C_3   0.898050 0.366348 0.455303 -0.921556
H129  H     H_    0.889217 0.351075 0.404191 0.258222
H130  H     H_    0.902438 0.346204 0.498194 0.261740
H131  H     H_    0.874993 0.385972 0.445250 0.254395
H132  H     H_    0.942250 0.403120 0.531280 0.225777
H133  H     H_    0.926477 0.411032 0.438020 0.183280
C187  C     C_3   0.067212 0.384425 0.522289 -0.397872
C188  C     C_3   0.100632 0.375193 0.597811 -0.914033
H134  H     H_    0.093666 0.381813 0.639351 0.257928
H135  H     H_    0.108333 0.344929 0.602014 0.261233
H136  H     H_    0.125349 0.392233 0.608759 0.247794
H137  H     H_    0.073530 0.374764 0.481151 0.207089
H138  H     H_    0.064564 0.415490 0.517546 0.215125
C189  C     C_3   0.433940 0.888871 0.479477 -0.365934
C190  C     C_3   0.398050 0.866348 0.455305 -0.921555
H139  H     H_    0.389217 0.851075 0.404193 0.258222
H140  H     H_    0.402439 0.846204 0.498196 0.261740
H141  H     H_    0.374994 0.885972 0.445253 0.254394
H142  H     H_    0.442250 0.903120 0.531283 0.225777
H143  H     H_    0.426477 0.911032 0.438022 0.183280
C191  C     C_3   0.567212 0.884425 0.522287 -0.397872
C192  C     C_3   0.600632 0.875192 0.597808 -0.914033
H144  H     H_    0.593667 0.881812 0.639350 0.257928
H145  H     H_    0.608333 0.844929 0.602011 0.261234
H146  H     H_    0.625349 0.892232 0.608756 0.247794
H147  H     H_    0.573529 0.874764 0.481148 0.207090
H148  H     H_    0.564564 0.915490 0.517545 0.215126
O57   O     O_3   0.525880 0.435749 0.838691 -0.578663
C193  C     C_3   0.507092 0.407034 0.787064 -0.309304
H149  H     H_    0.521148 0.400987 0.756674 0.164881
H150  H     H_    0.476846 0.414174 0.749001 0.152072
H151  H     H_    0.508178 0.380835 0.815932 0.186576
O58   O     O_3   0.474389 0.435851 0.161614 -0.578574
C194  C     C_3   0.493259 0.407058 0.213370 -0.309504
H152  H     H_    0.479192 0.401070 0.243724 0.164911
H153  H     H_    0.523474 0.414073 0.251457 0.152053
H154  H     H_    0.492287 0.380863 0.184626 0.186574
O59   O     O_3   0.025880 0.935749 0.838691 -0.578663
C195  C     C_3   0.007092 0.907034 0.787064 -0.309303
H155  H     H_    0.021148 0.900987 0.756673 0.164881
H156  H     H_    0.976846 0.914174 0.749001 0.152072
H157  H     H_    0.008178 0.880835 0.815932 0.186576
O60   O     O_3   0.974389 0.935851 0.161614 -0.578574
C196  C     C_3   0.993259 0.907058 0.213370 -0.309505
H158  H     H_    0.979192 0.901070 0.243724 0.164911
H159  H     H_    0.023474 0.914073 0.251457 0.152053
H160  H     H_    0.992287 0.880863 0.184626 0.186574
O61   O     O_3   0.196328 0.458111 0.784961 -0.604196
C197  C     C_3   0.207399 0.422125 0.774998 -0.354124
H161  H     H_    0.228044 0.424181 0.757633 0.167535
H162  H     H_    0.182839 0.404922 0.735460 0.146208
H163  H     H_    0.221414 0.406948 0.827521 0.203402
O62   O     O_3   0.805036 0.451866 0.221850 -0.604922
C198  C     C_3   0.795233 0.416887 0.238289 -0.354628
H164  H     H_    0.774103 0.420480 0.254180 0.168361
H165  H     H_    0.820316 0.401437 0.281576 0.147338
H166  H     H_    0.782251 0.399103 0.189017 0.202309
O63   O     O_3   0.696328 0.958111 0.784960 -0.604196
C199  C     C_3   0.707399 0.922125 0.774996 -0.354125
H167  H     H_    0.728044 0.924181 0.757632 0.167535
H168  H     H_    0.682839 0.904922 0.735457 0.146209
H169  H     H_    0.721414 0.906947 0.827518 0.203402
O64   O     O_3   0.305036 0.951865 0.221852 -0.604922
C200  C     C_3   0.295233 0.916886 0.238292 -0.354629
H170  H     H_    0.274103 0.920480 0.254183 0.168361
H171  H     H_    0.320316 0.901436 0.281580 0.147338
H172  H     H_    0.282252 0.899102 0.189020 0.202309
C201  C     C_3   0.116811 0.456361 0.716840 -0.365950
C202  C     C_3   0.114855 0.481567 0.771667 -0.776289
H173  H     H_    0.099335 0.508044 0.745737 0.261732
H174  H     H_    0.100059 0.466516 0.794324 0.230162
H175  H     H_    0.143693 0.488721 0.816744 0.271537
H176  H     H_    0.088339 0.446135 0.675753 0.210453
H177  H     H_    0.132678 0.430411 0.745012 0.218161
C203  C     C_3   0.884592 0.451510 0.289736 -0.365291
C204  C     C_3   0.884817 0.473630 0.229764 -0.774337
H178  H     H_    0.899409 0.500992 0.250558 0.260471
H179  H     H_    0.899796 0.457125 0.209025 0.230411
H180  H     H_    0.855540 0.479021 0.184294 0.272791
H181  H     H_    0.913739 0.443385 0.331763 0.201638
H182  H     H_    0.870034 0.424304 0.267312 0.219185
C205  C     C_3   0.616811 0.956361 0.716839 -0.365951
C206  C     C_3   0.614855 0.981566 0.771666 -0.776286
H183  H     H_    0.599335 0.008043 0.745737 0.261731
H184  H     H_    0.600059 0.966514 0.794323 0.230161
H185  H     H_    0.643693 0.988719 0.816744 0.271537
H186  H     H_    0.588339 0.946134 0.675751 0.210453
H187  H     H_    0.632678 0.930410 0.745010 0.218161
C207  C     C_3   0.384592 0.951509 0.289738 -0.365290
C208  C     C_3   0.384817 0.973629 0.229764 -0.774337
H188  H     H_    0.399409 0.000991 0.250558 0.260471
H189  H     H_    0.399796 0.957122 0.209026 0.230411
H190  H     H_    0.355540 0.979019 0.184295 0.272791
H191  H     H_    0.413740 0.943384 0.331765 0.201638
H192  H     H_    0.370035 0.924303 0.267315 0.219184

loop_
_geom_bond_atom_site_label_1
_geom_bond_atom_site_label_2
_ccdc_geom_bond_type
C99   C103  A    
C203  H181  S    
C55   C59   A    
C204  H178  S    
C142  C146  D    
O53   C173  S    
C155  H53   S    
C85   O37   A    
C195  H155  S    
C192  H145  S    
O21   Zn1   S    
C191  H148  S    
C141  C177  S    
C179  H117  S    
C188  H135  S    
C96   O12   A    
C187  H138  S    
C157  C158  S    
C29   C33   S    
C100  C104  A    
C98   C108  S    
C196  H158  S    
C9    C13   A    
O13   Zn9   S    
C11   C15   A    
C72   C139  A    
C121  H21   S    
C12   C16   A    
C158  H55   S    
C181  H122  S    
O36   Zn8   S    
C5    H33   S    
C22   H38   S    
C70   C84   A    
C99   C161  S    
C141  C145  D    
C119  C128  A    
C143  C151  S    
C100  C109  A    
C113  C133  A    
C4    C56   S    
C1    C53   S    
C163  H73   S    
C130  C134  A    
C41   C49   A    
C182  H119  S    
O37   Zn6   S    
O62   C198  S    
O7    Zn11  S    
C158  H56   S    
C25   C29   A    
C180  H116  S    
C27   C31   A    
C205  C206  S    
C28   C32   A    
C85   O33   A    
C62   C66   A    
C123  C126  A    
O25   Zn3   S    
C101  C110  A    
C15   C205  S    
C19   C23   A    
O26   Zn3   S    
C10   C30   A    
C16   C20   A    
C167  C168  S    
C88   C148  S    
C50   C54   A    
C129  C133  A    
C88   O36   A    
C70   C138  S    
C144  C183  S    
C185  C186  S    
C204  H180  S    
C173  H97   S    
C26   H42   S    
C71   C139  A    
C59   H15   S    
C166  H75   S    
O31   Zn7   S    
C47   O27   A    
C162  H67   S    
C153  H49   S    
C89   O42   A    
C195  H157  S    
C165  H79   S    
C190  H140  S    
C75   C138  T    
C90   C140  S    
C184  H124  S    
C57   C61   A    
C119  C123  A    
O20   Zn4   S    
C98   O15   A    
C6    H34   S    
C59   C63   A    
C46   O26   A    
C60   C64   A    
C100  C163  S    
C201  H177  S    
C162  H66   S    
C84   H4    S    
C173  H99   S    
O6    Zn10  S    
C80   C126  S    
C158  H57   S    
C49   C53   A    
O1    Zn1   S    
O56   C176  S    
C152  O60   S    
C51   C55   A    
C183  H127  S    
C160  H61   S    
C80   O31   A    
C200  H170  S    
C197  H162  S    
C206  H183  S    
C97   C107  S    
C61   C65   A    
C157  H59   S    
C11   O63   S    
C106  O52   S    
O48   Zn12  S    
C114  C136  A    
C13   C201  S    
O57   C193  S    
C3    O19   A    
C73   C83   A    
C182  H121  S    
O33   Zn5   S    
C198  H165  S    
C202  H174  S    
C170  H89   S    
C176  H106  S    
C4    O20   A    
O29   Zn5   S    
C50   H10   S    
O59   C195  S    
C94   O10   A    
O35   Zn7   S    
O47   Zn11  S    
C76   C137  T    
C171  H93   S    
C97   O13   A    
C64   C68   A    
C7    H35   S    
C8    C152  D    
C85   C145  S    
C101  C165  S    
C43   H7    S    
C207  H191  S    
C109  C111  S    
O8    Zn12  S    
C202  H175  S    
C83   H3    S    
O2    Zn1   S    
C95   O7    A    
C145  H29   S    
C205  H187  S    
C81   H1    S    
C153  C154  S    
C118  C122  A    
C133  C185  S    
C78   C132  A    
C183  C184  S    
C69   C82   A    
C150  O58   S    
C5    C149  D    
C3    C55   S    
C185  H132  S    
C64   C159  S    
C203  C204  S    
C37   C65   S    
C188  H136  S    
C194  H153  S    
O18   Zn3   S    
C165  H78   S    
C49   H9    S    
C166  H77   S    
C44   C52   A    
C20   C96   S    
O42   Zn6   S    
C172  H95   S    
O39   Zn8   S    
C179  C180  S    
C96   O8    A    
C157  H58   S    
C30   C34   S    
O22   Zn1   S    
C91   O45   A    
C10   C14   A    
C207  C208  S    
C171  H91   S    
C48   O28   A    
C122  H22   S    
C74   C140  A    
C170  H88   S    
O64   C200  S    
C10   O62   S    
C200  H172  S    
O11   Zn12  S    
C121  C125  A    
C164  H70   S    
C75   C77   S    
C189  H142  S    
C21   H37   S    
C132  C136  A    
O23   Zn2   S    
C24   H40   S    
C156  H51   S    
C193  H149  S    
C177  H113  S    
C42   C50   A    
O60   C196  S    
C132  H28   S    
C26   C30   A    
C176  H108  S    
C159  H63   S    
C206  H184  S    
C40   C68   S    
C205  H186  S    
C17   C93   S    
C118  C127  A    
C12   O64   S    
C19   C95   S    
C124  C126  A    
C191  C192  S    
C184  H126  S    
C21   C25   A    
C189  H143  S    
C155  H54   S    
C18   C22   A    
C1    O1    A    
C24   C28   A    
C74   C84   A    
O52   C172  S    
C123  H23   S    
C124  H24   S    
C161  H69   S    
C167  H83   S    
C103  O49   S    
C13   C17   A    
C168  H82   S    
C45   O25   A    
C122  C125  A    
C195  H156  S    
C154  H45   S    
C155  C156  S    
C144  C152  S    
C179  H118  S    
C106  C108  A    
C18   C94   S    
C28   H44   S    
C104  C107  A    
C58   H14   S    
C110  C112  S    
C4    O4    A    
C174  H102  S    
O45   Zn9   S    
C175  H103  S    
C43   C67   A    
C178  H109  S    
C159  C160  S    
O10   Zn9   S    
C71   C81   A    
C58   C62   A    
C186  H129  S    
C46   O22   A    
C69   C137  S    
C204  H179  S    
C163  H74   S    
C61   C153  S    
C118  O54   S    
C182  H120  S    
C177  C178  S    
C8    H36   S    
C15   C19   A    
C180  H115  S    
C86   O38   A    
C87   C147  S    
C90   O43   A    
C164  H72   S    
C151  O59   S    
C92   O47   A    
C57   H13   S    
C169  H86   S    
C99   C109  A    
C199  H167  S    
O17   Zn3   S    
C149  O57   S    
C130  H26   S    
O3    Zn2   S    
O28   Zn4   S    
C192  H144  S    
C203  H182  S    
C160  H60   S    
C71   H17   S    
C51   H11   S    
C111  C116  T    
C94   O6    A    
O12   Zn11  S    
C79   O30   A    
C117  O53   S    
C169  H87   S    
O19   Zn4   S    
O63   C199  S    
C2    O2    A    
C196  H159  S    
C193  H150  S    
C42   H6    S    
C86   C146  S    
O38   Zn5   S    
C166  H76   S    
C95   O11   A    
C102  C167  S    
C146  H30   S    
C153  H48   S    
C86   O34   A    
C89   O41   A    
C192  H146  S    
C190  H139  S    
C2    C54   S    
C62   C155  S    
C53   C57   A    
C186  H131  S    
C187  H137  S    
O61   C197  S    
C129  H25   S    
C33   C37   T    
O51   C171  S    
C7    C47   S    
C35   C39   T    
C208  H188  S    
C8    C48   S    
C161  C162  S    
C174  H100  S    
C175  H105  S    
C183  H128  S    
C80   O32   A    
C135  C189  S    
C70   C83   A    
C117  C127  A    
C197  H163  S    
C52   H12   S    
C41   H5    S    
O44   Zn8   S    
C113  C134  A    
C1    O17   A    
O58   C194  S    
C44   H8    S    
C31   C35   S    
C102  C110  A    
C27   H43   S    
C32   C36   S    
C25   H41   S    
C48   O24   A    
O30   Zn6   S    
C168  H80   S    
O15   Zn11  S    
C189  C190  S    
C120  C128  A    
C9    O61   S    
C199  H169  S    
C104  O50   S    
C142  C150  S    
C208  H189  S    
C169  H85   S    
C207  H192  S    
C43   C51   A    
O49   C169  S    
C5    C45   S    
O5    Zn9   S    
C77   C130  A    
C17   C21   A    
C69   C81   A    
C191  H147  S    
C6    C150  D    
C56   C60   A    
C22   C26   A    
C105  O51   S    
C136  C191  S    
O32   Zn8   S    
C119  O55   S    
O55   C175  S    
C45   O21   A    
C172  H94   S    
C14   C18   A    
C181  C182  S    
C190  H141  S    
C144  C148  D    
C93   O9    A    
C23   H39   S    
C141  C149  S    
C143  C147  D    
C60   H16   S    
C163  C164  S    
C16   C207  S    
C131  C135  A    
C162  H65   S    
C173  H98   S    
C201  H176  S    
C115  C127  S    
C134  C187  S    
C77   C129  A    
C160  H62   S    
C200  H171  S    
C117  C121  A    
C197  H161  S    
O14   Zn10  S    
C63   C157  S    
C38   C66   S    
C89   C139  S    
C3    O3    A    
C114  C135  A    
C91   O46   A    
C23   C27   A    
C73   H19   S    
C156  H50   S    
C74   H20   S    
C177  H112  S    
C9    C29   A    
C120  O56   S    
C198  H166  S    
C202  H173  S    
C170  H90   S    
C11   C31   A    
C176  H107  S    
C159  H64   S    
C12   C32   A    
O41   Zn5   S    
C184  H125  S    
C101  C105  A    
C88   O40   A    
C105  C108  A    
C63   C67   A    
C97   O14   A    
C76   C78   S    
O43   Zn7   S    
C20   C24   A    
C36   C40   T    
C193  H151  S    
C208  H190  S    
O4    Zn2   S    
C165  C166  S    
C131  H27   S    
C187  C188  S    
C41   C65   A    
C87   O39   A    
C47   O23   A    
C161  H68   S    
C167  H84   S    
C91   C113  S    
C168  H81   S    
C72   H18   S    
O16   Zn12  S    
C154  H46   S    
C78   C131  A    
O50   C170  S    
C14   C203  S    
C185  H133  S    
C194  H152  S    
C148  H32   S    
C194  H154  S    
O27   Zn4   S    
C171  H92   S    
C174  H101  S    
C175  H104  S    
C201  C202  S    
C178  H110  S    
O46   Zn10  S    
C172  H96   S    
C7    C151  D    
C44   C68   A    
C154  H47   S    
O40   Zn7   S    
C143  C181  S    
C54   C58   A    
C147  H31   S    
O24   Zn2   S    
C186  H130  S    
C6    C46   S    
C34   C38   T    
C39   C67   S    
C2    O18   A    
C73   C140  A    
C93   O5    A    
C178  H111  S    
C180  H114  S    
C142  C179  S    
C90   O44   A    
C181  H123  S    
C103  C107  A    
C206  H185  S    
C164  H71   S    
C98   O16   A    
C92   O48   A    
C188  H134  S    
C87   O35   A    
C196  H160  S    
C199  H168  S    
C102  C106  A    
C79   C125  S    
C156  H52   S    
C198  H164  S    
C82   H2    S    
C120  C124  A    
O54   C174  S    
C116  C128  S    
C42   C66   A    
O34   Zn6   S    
C92   C114  S    
C79   O29   A    
C112  C115  T    
C72   C82   A    
O9    Zn10  S    
C52   C56   A    
