data_mof_unit_6362.cif
_audit_creation_date              2013-03-05T16:00:02-0500
_audit_creation_method            fapswitch 2.2
_symmetry_space_group_name_H-M    P1
_symmetry_Int_Tables_number       1
_space_group_crystal_system       triclinic
_cell_length_a                    20.787457
_cell_length_b                    21.234554
_cell_length_c                    14.720719
_cell_angle_alpha                 89.684442
_cell_angle_beta                  127.791192
_cell_angle_gamma                 90.534178
_cell_volume                      5134.74308584

loop_
_atom_site_label
_atom_site_type_symbol
_atom_site_description
_atom_site_fract_x
_atom_site_fract_y
_atom_site_fract_z
_atom_type_partial_charge
O1    O     O_R   0.600040 0.935040 0.546740 -0.584801
O2    O     O_R   0.399960 0.064960 0.453260 -0.585108
O3    O     O_R   0.399960 0.935040 0.453260 -0.589786
O4    O     O_R   0.600040 0.064960 0.546740 -0.590576
O5    O     O_R   0.100040 0.435040 0.546740 -0.587173
O6    O     O_R   0.899960 0.564960 0.453260 -0.586478
O7    O     O_R   0.899960 0.435040 0.453260 -0.587931
O8    O     O_R   0.100040 0.564960 0.546740 -0.588618
O9    O     O_R   0.555010 0.935070 0.653220 -0.586031
O10   O     O_R   0.444990 0.064930 0.346780 -0.584953
O11   O     O_R   0.444990 0.935070 0.346780 -0.591670
O12   O     O_R   0.555010 0.064930 0.653220 -0.590725
O13   O     O_R   0.055010 0.435070 0.653220 -0.586160
O14   O     O_R   0.944990 0.564930 0.346780 -0.585453
O15   O     O_R   0.944990 0.435070 0.346780 -0.592992
O16   O     O_R   0.055010 0.564930 0.653220 -0.590508
C1    C     C_R   0.602631 0.913710 0.631348 0.828476
C2    C     C_R   0.397297 0.086270 0.368561 0.830015
C3    C     C_R   0.397022 0.913710 0.368612 0.827747
C4    C     C_R   0.603562 0.085852 0.632105 0.827505
C5    C     C_R   0.101994 0.413232 0.630537 0.827580
C6    C     C_R   0.897799 0.586648 0.369223 0.830490
C7    C     C_R   0.897210 0.413497 0.368810 0.828444
C8    C     C_R   0.103289 0.586051 0.631793 0.827841
Cu1   Cu    Cu3+1 0.526640 0.000000 0.436960 0.935149
Cu2   Cu    Cu3+1 0.473360 0.000000 0.563040 0.935447
Cu3   Cu    Cu3+1 0.026640 0.500000 0.436960 0.934211
Cu4   Cu    Cu3+1 0.973360 0.500000 0.563040 0.935567
C9    C     C_R   0.661244 0.136659 0.703549 -0.098376
C10   C     C_R   0.340196 0.862346 0.298095 -0.097777
C11   C     C_R   0.339018 0.136032 0.295539 -0.099648
C12   C     C_R   0.660565 0.863754 0.703923 -0.098887
C13   C     C_R   0.161652 0.636251 0.704396 -0.098473
C14   C     C_R   0.837270 0.364431 0.294319 -0.099517
C15   C     C_R   0.841676 0.638072 0.299234 -0.099025
C16   C     C_R   0.157180 0.361212 0.699430 -0.098148
C17   C     C_R   0.754890 0.219714 0.737083 0.417965
C18   C     C_R   0.247270 0.778744 0.265061 0.417711
C19   C     C_R   0.234621 0.210664 0.249150 0.417102
C20   C     C_R   0.764276 0.788664 0.749411 0.416710
C21   C     C_R   0.257993 0.717905 0.741953 0.417567
C22   C     C_R   0.724126 0.295640 0.238163 0.417603
C23   C     C_R   0.740545 0.714793 0.257800 0.417331
C24   C     C_R   0.254649 0.282038 0.736633 0.417217
C25   C     C_R   0.703108 0.168924 0.671514 -0.290858
C26   C     C_R   0.300141 0.828831 0.331870 -0.291164
C27   C     C_R   0.292309 0.164721 0.321982 -0.290342
C28   C     C_R   0.706890 0.834851 0.676992 -0.290482
C29   C     C_R   0.203034 0.669372 0.672395 -0.291506
C30   C     C_R   0.781553 0.342332 0.310249 -0.290174
C31   C     C_R   0.795726 0.666752 0.327070 -0.290003
C32   C     C_R   0.200797 0.331058 0.668997 -0.290468
C33   C     C_R   0.671483 0.154290 0.802184 -0.244799
C34   C     C_R   0.329076 0.845416 0.198530 -0.245352
C35   C     C_R   0.330981 0.154915 0.198849 -0.245154
C36   C     C_R   0.668465 0.844736 0.800442 -0.246644
C37   C     C_R   0.173733 0.651919 0.805137 -0.244254
C38   C     C_R   0.835670 0.340435 0.205533 -0.250725
C39   C     C_R   0.835871 0.659293 0.205344 -0.248121
C40   C     C_R   0.163844 0.340538 0.794261 -0.248059
C41   C     C_R   0.716156 0.208365 0.864645 -0.001258
C42   C     C_R   0.282843 0.792269 0.134341 -0.001457
C43   C     C_R   0.278091 0.203296 0.127127 -0.002129
C44   C     C_R   0.720764 0.795933 0.871328 -0.002433
C45   C     C_R   0.222152 0.703641 0.872352 -0.001803
C46   C     C_R   0.775007 0.297989 0.124724 -0.004017
C47   C     C_R   0.785368 0.709577 0.137369 -0.002342
C48   C     C_R   0.212854 0.289294 0.860468 -0.002377
C49   C     C_R   0.761944 0.240399 0.835132 0.094939
C50   C     C_R   0.236428 0.760694 0.163077 0.095872
C51   C     C_R   0.224727 0.228952 0.147765 0.098568
C52   C     C_R   0.774119 0.770327 0.850717 0.099300
C53   C     C_R   0.269488 0.734938 0.844825 0.095922
C54   C     C_R   0.720376 0.272440 0.144011 0.096542
C55   C     C_R   0.732190 0.734983 0.158415 0.099214
C56   C     C_R   0.264091 0.262479 0.837086 0.099678
C57   C     C_R   0.716637 0.230201 0.956564 0.048000
C58   C     C_R   0.280683 0.771360 0.040626 0.047417
C59   C     C_R   0.275532 0.224663 0.032999 0.051767
C60   C     C_R   0.722711 0.774067 0.964638 0.051908
C61   C     C_R   0.225211 0.723691 0.967323 0.048027
C62   C     C_R   0.769532 0.279691 0.027068 0.049894
C63   C     C_R   0.784421 0.732644 0.045582 0.051993
C64   C     C_R   0.214195 0.266524 0.952693 0.051632
C65   C     C_R   0.334338 0.795886 0.020442 -0.231202
C66   C     C_R   0.662963 0.205493 0.976647 -0.230414
C67   C     C_R   0.663703 0.791894 0.978041 -0.237625
C68   C     C_R   0.333333 0.205801 0.017740 -0.235823
C69   C     C_R   0.813659 0.311252 0.996000 -0.228767
C70   C     C_R   0.172612 0.698431 0.989040 -0.227812
C71   C     C_R   0.154922 0.284181 0.965499 -0.238851
C72   C     C_R   0.844188 0.715567 0.033388 -0.240521
C73   C     C_R   0.327984 0.780483 0.923095 0.149567
C74   C     C_R   0.664223 0.225031 0.068186 0.148660
C75   C     C_R   0.670653 0.777179 0.076330 0.146994
C76   C     C_R   0.324981 0.219601 0.918068 0.146608
C77   C     C_R   0.812248 0.291991 0.904226 0.147844
C78   C     C_R   0.179365 0.713911 0.086711 0.148272
C79   C     C_R   0.161719 0.269653 0.063712 0.144027
C80   C     C_R   0.837113 0.729702 0.934826 0.145132
H1    H     H_    0.355785 0.875971 0.171037 0.152545
H2    H     H_    0.644551 0.123871 0.829439 0.152040
H3    H     H_    0.635089 0.870838 0.821253 0.164690
H4    H     H_    0.364878 0.129008 0.178825 0.164235
H5    H     H_    0.884422 0.354621 0.203135 0.164442
H6    H     H_    0.145804 0.621444 0.830729 0.153408
H7    H     H_    0.132488 0.367165 0.818034 0.166222
H8    H     H_    0.869221 0.633744 0.183832 0.166445
H9    H     H_    0.309740 0.841794 0.410479 0.156877
H10   H     H_    0.695385 0.154689 0.594765 0.155734
H11   H     H_    0.699454 0.848974 0.600224 0.159439
H12   H     H_    0.299731 0.150646 0.398759 0.159112
H13   H     H_    0.783176 0.360978 0.380004 0.154809
H14   H     H_    0.192938 0.657234 0.593130 0.157035
H15   H     H_    0.193811 0.346194 0.592993 0.158941
H16   H     H_    0.801791 0.651102 0.402153 0.158691
H17   H     H_    0.384136 0.826556 0.081736 0.151676
H18   H     H_    0.615751 0.172349 0.918289 0.151217
H19   H     H_    0.609718 0.816653 0.911056 0.152130
H20   H     H_    0.387254 0.180724 0.083855 0.152602
H21   H     H_    0.847909 0.353542 0.039497 0.145233
H22   H     H_    0.123502 0.666934 0.929283 0.150532
H23   H     H_    0.100916 0.308747 0.897691 0.153615
H24   H     H_    0.898565 0.691541 0.101507 0.153224
N1    N     N_R   0.433280 0.000000 0.657760 -0.201175
N2    N     N_R   0.566720 0.000000 0.342240 -0.200796
N3    N     N_R   0.933280 0.500000 0.657760 -0.200752
N4    N     N_R   0.066720 0.500000 0.342240 -0.201565
C81   C     C_R   0.319815 0.990209 0.661264 0.099734
C82   C     C_R   0.679346 0.013137 0.337528 0.097170
C83   C     C_R   0.819216 0.496929 0.660760 0.099543
C84   C     C_R   0.180375 0.505875 0.338491 0.100263
C85   C     C_R   0.352629 0.992270 0.601798 0.065507
C86   C     C_R   0.646961 0.009868 0.397516 0.063447
C87   C     C_R   0.852272 0.495688 0.601546 0.064582
C88   C     C_R   0.147586 0.505656 0.398102 0.064538
C89   C     C_R   0.485256 0.006073 0.774324 0.007080
C90   C     C_R   0.514696 0.992952 0.225831 0.007282
C91   C     C_R   0.985548 0.504594 0.774544 0.008342
C92   C     C_R   0.014298 0.495345 0.225427 0.006678
C93   C     C_R   0.459061 0.996612 0.843236 -0.085991
C94   C     C_R   0.540101 0.003405 0.156217 -0.086457
C95   C     C_R   0.958653 0.497733 0.843057 -0.085832
C96   C     C_R   0.040761 0.503319 0.156583 -0.085107
C97   C     C_R   0.373698 0.989363 0.784841 0.073842
C98   C     C_R   0.625166 0.012392 0.213957 0.075190
C99   C     C_R   0.872847 0.495572 0.784498 0.074774
C100  C     C_R   0.126441 0.506797 0.214798 0.074126
C101  C     C_R   0.514838 0.997065 0.967760 -0.018766
C102  C     C_R   0.483956 0.002658 0.031601 -0.019300
C103  C     C_R   0.014552 0.496133 0.967577 -0.018556
C104  C     C_R   0.984680 0.505059 0.032016 -0.020068
C105  C     C_R   0.397979 0.005353 0.968220 0.149739
C106  C     C_R   0.600741 0.994603 0.031165 0.147320
C107  C     C_R   0.899486 0.513758 0.969251 0.145814
C108  C     C_R   0.099832 0.487997 0.030512 0.150133
C109  C     C_R   0.345995 0.985988 0.852431 0.168018
C110  C     C_R   0.652322 0.015790 0.145721 0.171322
C111  C     C_R   0.845132 0.496520 0.852329 0.167185
C112  C     C_R   0.153796 0.506636 0.146583 0.168654
H25   H     H_    0.453695 0.978133 0.188866 0.153350
H26   H     H_    0.546801 0.019495 0.811844 0.153148
H27   H     H_    0.952054 0.484018 0.187394 0.154548
H28   H     H_    0.047987 0.515162 0.812704 0.152771
H29   H     H_    0.686568 0.012828 0.490400 0.133817
H30   H     H_    0.313103 0.990374 0.508816 0.134189
H31   H     H_    0.187184 0.507074 0.491115 0.134367
H32   H     H_    0.812826 0.494554 0.508519 0.132473
C113  C     C_3   0.387839 0.811780 0.910376 -0.758640
H33   H     H_    0.431121 0.843714 0.983267 0.200835
H34   H     H_    0.424483 0.775458 0.907234 0.256012
H35   H     H_    0.355339 0.841204 0.831773 0.267890
C114  C     C_3   0.604938 0.193040 0.081324 -0.757893
H36   H     H_    0.567910 0.155897 0.015629 0.200756
H37   H     H_    0.638362 0.169448 0.166227 0.260546
H38   H     H_    0.561920 0.228111 0.071648 0.263912
C115  C     C_3   0.608711 0.805619 0.086245 -0.759181
H39   H     H_    0.564730 0.836230 0.011906 0.204227
H40   H     H_    0.572928 0.767834 0.089534 0.260188
H41   H     H_    0.639786 0.835993 0.163770 0.266908
C116  C     C_3   0.384791 0.189512 0.905392 -0.758283
H42   H     H_    0.429227 0.159043 0.979679 0.205908
H43   H     H_    0.351868 0.158751 0.828214 0.266182
H44   H     H_    0.420202 0.226387 0.899390 0.260388
C117  C     C_3   0.867545 0.327022 0.886448 -0.751276
H45   H     H_    0.904917 0.363873 0.952615 0.202443
H46   H     H_    0.910777 0.293630 0.892574 0.256332
H47   H     H_    0.831277 0.350938 0.801775 0.263975
C118  C     C_3   0.121193 0.681508 0.101652 -0.758207
H48   H     H_    0.078429 0.648785 0.029899 0.201775
H49   H     H_    0.155295 0.652814 0.181234 0.266646
H50   H     H_    0.083861 0.717188 0.104617 0.255670
C119  C     C_3   0.098474 0.297068 0.071914 -0.749251
H51   H     H_    0.053382 0.326336 0.996045 0.200157
H52   H     H_    0.064048 0.258724 0.076847 0.259810
H53   H     H_    0.128150 0.328600 0.147787 0.266580
C120  C     C_3   0.899997 0.701958 0.926249 -0.756767
H54   H     H_    0.944917 0.672599 0.002042 0.202532
H55   H     H_    0.870010 0.670401 0.850366 0.267683
H56   H     H_    0.934504 0.740111 0.921064 0.260426
C121  C     C_3   0.358569 0.040662 0.011481 -0.892606
H57   H     H_    0.310072 0.071868 0.942738 0.256024
H58   H     H_    0.330301 0.007806 0.036915 0.227005
H59   H     H_    0.402900 0.072066 0.083886 0.224971
C122  C     C_3   0.640461 0.957427 0.990266 -0.890710
H60   H     H_    0.688118 0.926327 0.060390 0.255964
H61   H     H_    0.596003 0.925816 0.918275 0.224911
H62   H     H_    0.669828 0.989005 0.964873 0.226463
C123  C     C_3   0.864991 0.553208 0.015520 -0.890359
H63   H     H_    0.819603 0.586725 0.948561 0.257812
H64   H     H_    0.833940 0.523464 0.040470 0.226989
H65   H     H_    0.912988 0.582432 0.089077 0.226665
C124  C     C_3   0.135006 0.447581 0.986316 -0.892486
H66   H     H_    0.180065 0.414383 0.054483 0.257088
H67   H     H_    0.087315 0.417985 0.913126 0.226501
H68   H     H_    0.166613 0.476670 0.961491 0.226051
O17   O     O_3   0.298730 0.749450 0.708363 -0.759669
H69   H     H_    0.283346 0.731518 0.635339 0.323011
O18   O     O_3   0.671173 0.273647 0.258401 -0.757774
H70   H     H_    0.682808 0.294593 0.327156 0.324736
O19   O     O_3   0.695308 0.741905 0.287017 -0.755681
H71   H     H_    0.709065 0.722273 0.358195 0.324442
O20   O     O_3   0.297382 0.253275 0.704659 -0.755781
H72   H     H_    0.283225 0.272742 0.633144 0.324409
O21   O     O_3   0.796421 0.250045 0.703645 -0.759195
H73   H     H_    0.784441 0.229387 0.634461 0.324432
O22   O     O_3   0.207967 0.746741 0.300492 -0.759746
H74   H     H_    0.222613 0.765556 0.372536 0.322683
O23   O     O_3   0.188589 0.237745 0.277038 -0.756043
H75   H     H_    0.203614 0.219590 0.349896 0.324601
O24   O     O_3   0.810047 0.761413 0.721224 -0.755502
H76   H     H_    0.795035 0.779616 0.648402 0.324942
C125  C     C_3   0.264124 0.958383 0.808567 -0.842810
H77   H     H_    0.265786 0.939528 0.880480 0.237350
H78   H     H_    0.215768 0.994434 0.763975 0.239463
H79   H     H_    0.249006 0.916884 0.753375 0.237762
C126  C     C_3   0.732578 0.045450 0.186916 -0.843299
H80   H     H_    0.730219 0.062256 0.113363 0.235641
H81   H     H_    0.744803 0.088547 0.237438 0.234123
H82   H     H_    0.783037 0.011290 0.235456 0.240224
C127  C     C_3   0.760176 0.476317 0.807379 -0.843804
H83   H     H_    0.759051 0.460707 0.878481 0.235826
H84   H     H_    0.716513 0.515566 0.762923 0.240377
H85   H     H_    0.740205 0.434129 0.752170 0.234821
C128  C     C_3   0.237515 0.529255 0.189846 -0.842161
H86   H     H_    0.255279 0.572223 0.242785 0.236004
H87   H     H_    0.283230 0.491457 0.236293 0.239902
H88   H     H_    0.237537 0.544428 0.117572 0.235573
C129  C     C_3   0.228403 0.996971 0.588178 -0.875950
H89   H     H_    0.201320 0.009905 0.498084 0.219448
H90   H     H_    0.198858 0.952049 0.582870 0.245384
H91   H     H_    0.212688 0.035893 0.621158 0.248664
C130  C     C_3   0.771076 0.009961 0.410435 -0.879462
H92   H     H_    0.799445 0.999559 0.501882 0.219806
H93   H     H_    0.789091 0.970821 0.380900 0.248597
H94   H     H_    0.797395 0.055574 0.410784 0.244185
C131  C     C_3   0.728352 0.507368 0.586973 -0.877189
H95   H     H_    0.702155 0.518576 0.496566 0.218381
H96   H     H_    0.695923 0.464464 0.582508 0.243993
H97   H     H_    0.715020 0.548753 0.618358 0.249686
C132  C     C_3   0.271596 0.497718 0.411816 -0.875072
H98   H     H_    0.298760 0.487349 0.502855 0.218891
H99   H     H_    0.286302 0.456646 0.381551 0.248114
H100  H     H_    0.301992 0.541351 0.413952 0.245919

loop_
_geom_bond_atom_site_label_1
_geom_bond_atom_site_label_2
_geom_bond_distance
_ccdc_geom_bond_type
C74   C114  1.514157 S    
O16   Cu4   1.938858 S    
C120  H56   1.110098 S    
C18   C50   1.428837 A    
C47   C63   1.423478 A    
C128  H86   1.106814 S    
C17   C49   1.429718 A    
C18   C26   1.404043 A    
O2    C2    1.293088 A    
C12   C28   1.393823 A    
C113  H33   1.110919 S    
C54   C74   1.419705 A    
C34   H1    1.076490 S    
O20   H72   0.991746 S    
C53   C73   1.419428 A    
C112  C128  1.514732 S    
C96   C100  1.428175 A    
C99   C111  1.426475 A    
C68   C76   1.397426 A    
O4    Cu1   1.950830 S    
C121  H58   1.109667 S    
C93   C101  1.449074 A    
C5    C16   1.466331 S    
C43   C59   1.425447 A    
C122  H60   1.111084 S    
C92   H27   1.073939 S    
C95   C99   1.428726 A    
C6    C15   1.467390 S    
C10   C34   1.385607 A    
O11   C3    1.298460 A    
C129  H89   1.111347 S    
O23   H75   0.991775 S    
C62   C69   1.413872 A    
N3    C91   1.362404 A    
C19   C27   1.404939 A    
C91   H28   1.073750 S    
C23   O19   1.381740 S    
O12   Cu2   1.938858 S    
N3    C87   1.348693 A    
C19   O23   1.381736 S    
C60   C67   1.411719 A    
C83   C87   1.402620 A    
N4    C88   1.348920 A    
C105  C109  1.408608 A    
C59   C64   1.405566 A    
C116  H44   1.109499 S    
C11   C35   1.384964 A    
C82   C98   1.437629 A    
O11   Cu1   1.938860 S    
C13   C29   1.392206 A    
C27   H12   1.083487 S    
C46   C54   1.430594 A    
C42   C58   1.425745 A    
C127  H83   1.109944 S    
C123  H65   1.106738 S    
C45   C53   1.430944 A    
C42   C50   1.429846 A    
C33   C41   1.404121 A    
C15   C39   1.384784 A    
C131  H95   1.111340 S    
C100  C112  1.425354 A    
C120  H55   1.110163 S    
C94   C98   1.427996 A    
C89   C93   1.427818 A    
C66   C74   1.396893 A    
C131  H97   1.108355 S    
C39   C47   1.401848 A    
O5    Cu3   1.958348 S    
C65   C73   1.396545 A    
C75   C115  1.513192 S    
O6    Cu4   1.958347 S    
C41   C57   1.426986 A    
C115  H40   1.109943 S    
C102  C105  1.423267 A    
C67   C75   1.397019 A    
C103  C104  1.430893 A    
C36   C44   1.401246 A    
O13   Cu4   1.950929 S    
O3    C3    1.293837 A    
C130  H92   1.111289 S    
C64   C71   1.410091 A    
O14   Cu3   1.950928 S    
C68   H20   1.074989 S    
C125  H77   1.110379 S    
C76   C116  1.513038 S    
C81   C97   1.437708 A    
C16   C32   1.394496 A    
Cu4   N3    2.015473 S    
C93   C97   1.427701 A    
C39   H8    1.073882 S    
C80   C120  1.513014 S    
C24   C32   1.404387 A    
C17   O21   1.381813 S    
C29   H14   1.083595 S    
O16   C8    1.298406 A    
C101  C106  1.421666 A    
C114  H36   1.111117 S    
C126  H80   1.110459 S    
O1    Cu1   1.958348 S    
C70   H22   1.075397 S    
C82   C86   1.401727 A    
C91   C95   1.427901 A    
C78   C118  1.514215 S    
C44   C60   1.424489 A    
C21   C29   1.404190 A    
C59   C68   1.412550 A    
C128  H88   1.110206 S    
C30   H13   1.083553 S    
C38   C46   1.403505 A    
O9    Cu2   1.950929 S    
O21   H73   0.991821 S    
C105  C121  1.514923 S    
C4    C9    1.466498 S    
C114  H37   1.109561 S    
C23   C55   1.427395 A    
O10   C2    1.300238 A    
C81   C129  1.512210 S    
C129  H90   1.106485 S    
C22   C54   1.429721 A    
C89   H26   1.073305 S    
C55   C75   1.419276 A    
C48   C64   1.422796 A    
C92   C96   1.427559 A    
C108  C112  1.408768 A    
C66   H18   1.075656 S    
C22   O18   1.381790 S    
C90   C94   1.427184 A    
C116  H43   1.110283 S    
C127  H84   1.107626 S    
O18   H70   0.991806 S    
C132  H99   1.108477 S    
C72   C80   1.396923 A    
C25   H10   1.083587 S    
C117  H47   1.108343 S    
C34   C42   1.403087 A    
N1    C89   1.362355 A    
Cu1   Cu2   2.681541 S    
C116  H42   1.110450 S    
C107  C111  1.410283 A    
C35   H4    1.072182 S    
O7    Cu4   1.950832 S    
C83   C131  1.512409 S    
C2    C11   1.468015 S    
C35   C43   1.401949 A    
C12   C36   1.384836 A    
C131  H96   1.106198 S    
Cu2   N1    2.015473 S    
C84   C100  1.439077 A    
C118  H50   1.109511 S    
C77   C117  1.514512 S    
Cu1   N2    2.015472 S    
C67   H19   1.075728 S    
O19   H71   0.991766 S    
C63   C72   1.410558 A    
C46   C62   1.426639 A    
C97   C109  1.423858 A    
Cu3   N4    2.015472 S    
O15   Cu3   1.938860 S    
O22   H74   0.991840 S    
C69   H21   1.076577 S    
C104  C107  1.422306 A    
C124  H66   1.110776 S    
C33   H2    1.075802 S    
C84   C88   1.402703 A    
C115  H41   1.110184 S    
C73   C113  1.514444 S    
O12   C4    1.298929 A    
C132  H100  1.106244 S    
C119  H52   1.110184 S    
C123  H63   1.110564 S    
C86   H29   1.082444 S    
O13   C5    1.300102 A    
O2    Cu2   1.958347 S    
C24   O20   1.381794 S    
C103  C108  1.421940 A    
C20   O24   1.381702 S    
C83   C99   1.439745 A    
C24   C56   1.427154 A    
C125  H78   1.107929 S    
N2    C86   1.349155 A    
C40   H7    1.074996 S    
C22   C30   1.403979 A    
C81   C85   1.401555 A    
C61   C70   1.414564 A    
C58   C65   1.413212 A    
O9    C1    1.299968 A    
O17   H69   0.991832 S    
C72   H24   1.076799 S    
C43   C51   1.430289 A    
C57   C66   1.413926 A    
C119  H51   1.110138 S    
C87   H32   1.082624 S    
C126  H81   1.107574 S    
C15   C31   1.394427 A    
O14   C6    1.300559 A    
C1    C12   1.466801 S    
C121  H59   1.105679 S    
C126  H82   1.107640 S    
C65   H17   1.076578 S    
C47   C55   1.428897 A    
C19   C51   1.428094 A    
C17   C25   1.403552 A    
C108  C124  1.515023 S    
O10   Cu1   1.950928 S    
C32   H15   1.083487 S    
C130  H93   1.108767 S    
C52   C80   1.419222 A    
C122  H62   1.109628 S    
N1    C85   1.349081 A    
C118  H48   1.111099 S    
C20   C28   1.404681 A    
C124  H68   1.109500 S    
N2    C90   1.362729 A    
C7    C14   1.467773 S    
C13   C37   1.385794 A    
C95   C103  1.449475 A    
C20   C52   1.427777 A    
C127  H85   1.105879 S    
C10   C26   1.392601 A    
O3    Cu2   1.950832 S    
C31   H16   1.083478 S    
C36   H3    1.073295 S    
C37   C45   1.403267 A    
C16   C40   1.384945 A    
C14   C30   1.392199 A    
C21   O17   1.381754 S    
C114  H38   1.108926 S    
C106  C110  1.406838 A    
C98   C110  1.423470 A    
C88   H31   1.082562 S    
C48   C56   1.428230 A    
C79   C119  1.513789 S    
O1    C1    1.292804 A    
C8    C13   1.466212 S    
C121  H57   1.110971 S    
C38   H5    1.075653 S    
C41   C49   1.431384 A    
C94   C102  1.450377 A    
C130  H94   1.106441 S    
C128  H87   1.107524 S    
N4    C92   1.362903 A    
C124  H67   1.106975 S    
C96   C104  1.450200 A    
C71   C79   1.396735 A    
C101  C102  1.432291 A    
C56   C76   1.418632 A    
C119  H53   1.110163 S    
C58   C61   1.408549 A    
C109  C125  1.515173 S    
C117  H45   1.110978 S    
C132  H98   1.111290 S    
C9    C33   1.385457 A    
C57   C62   1.407992 A    
C23   C31   1.404674 A    
O7    C7    1.294865 A    
C107  C123  1.515206 S    
O15   C7    1.298517 A    
C60   C63   1.405435 A    
O8    C8    1.294103 A    
C70   C78   1.397124 A    
C122  H61   1.106209 S    
C37   H6    1.075233 S    
C90   H25   1.073261 S    
C44   C52   1.429445 A    
C51   C79   1.420067 A    
C120  H54   1.109856 S    
C125  H79   1.106877 S    
C129  H91   1.108746 S    
C106  C122  1.514613 S    
C117  H46   1.109215 S    
C110  C126  1.514063 S    
C21   C53   1.429026 A    
O4    C4    1.293866 A    
C82   C130  1.511920 S    
C11   C27   1.393637 A    
C28   H11   1.083479 S    
O5    C5    1.292439 A    
C40   C48   1.401406 A    
C115  H39   1.110398 S    
C26   H9    1.083593 S    
C69   C77   1.396629 A    
O24   H76   0.991795 S    
C14   C38   1.386622 A    
O8    Cu3   1.950830 S    
C123  H64   1.109431 S    
C45   C61   1.427216 A    
C18   O22   1.381793 S    
C71   H23   1.077323 S    
C113  H35   1.107934 S    
C118  H49   1.108428 S    
C85   H30   1.082542 S    
C3    C10   1.465678 S    
C111  C127  1.515765 S    
C9    C25   1.391904 A    
C50   C78   1.419067 A    
C49   C77   1.419732 A    
C84   C132  1.512082 S    
Cu3   Cu4   2.681541 S    
C113  H34   1.109863 S    
O6    C6    1.292475 A    
