data_mof_unit_57823.cif
_audit_creation_date              2012-12-11T17:35:12-0500
_audit_creation_method            fapswitch 2.2
_symmetry_space_group_name_H-M    P1
_symmetry_Int_Tables_number       1
_space_group_crystal_system       triclinic
_cell_length_a                    24.017709
_cell_length_b                    7.166461
_cell_length_c                    22.33621
_cell_angle_alpha                 90.000712
_cell_angle_beta                  99.401176
_cell_angle_gamma                 90.000154
_cell_volume                      3792.91565621

loop_
_atom_site_label
_atom_site_type_symbol
_atom_type_description
_atom_site_fract_x
_atom_site_fract_y
_atom_site_fract_z
_atom_type_partial_charge
O1    O     O_R   0.801940 0.607920 0.199180 -0.534667
O2    O     O_R   0.198060 0.392080 0.800820 -0.548200
O3    O     O_R   0.698060 0.107920 0.300820 -0.534667
O4    O     O_R   0.301940 0.892080 0.699180 -0.548198
O5    O     O_R   0.687840 0.274940 0.181980 -0.550037
O6    O     O_R   0.312160 0.725060 0.818020 -0.545169
O7    O     O_R   0.812160 0.774940 0.318020 -0.550037
O8    O     O_R   0.187840 0.225060 0.681980 -0.545176
C1    C     C_R   0.668571 0.446796 0.165806 0.806703
C2    C     C_R   0.331201 0.552900 0.834501 0.813396
C3    C     C_R   0.831429 0.946798 0.334193 0.806701
C4    C     C_R   0.168798 0.052899 0.665499 0.813394
O9    O     O_R   0.800890 0.278000 0.191820 -0.546532
O10   O     O_R   0.199110 0.722000 0.808180 -0.539700
O11   O     O_R   0.699110 0.778000 0.308180 -0.546532
O12   O     O_R   0.300890 0.222000 0.691820 -0.539698
O13   O     O_R   0.811910 0.110860 0.310720 -0.538982
O14   O     O_R   0.188090 0.889140 0.689280 -0.544217
O15   O     O_R   0.688090 0.610860 0.189280 -0.538982
O16   O     O_R   0.311910 0.389140 0.810720 -0.544221
C5    C     C_R   0.817581 0.446826 0.177755 0.693983
C6    C     C_R   0.181969 0.553212 0.821789 0.692635
C7    C     C_R   0.682419 0.946827 0.322245 0.693982
C8    C     C_R   0.318031 0.053212 0.678210 0.692643
O17   O     O_3   0.753490 0.442410 0.289000 -0.382447
O18   O     O_3   0.246510 0.557590 0.711000 -0.381601
O19   O     O_3   0.746510 0.942410 0.211000 -0.382448
O20   O     O_3   0.253490 0.057590 0.789000 -0.381601
V1    V     V_3+5 0.749350 0.166330 0.242770 1.374201
V2    V     V_3+5 0.250650 0.833670 0.757230 1.369544
V3    V     V_3+5 0.750650 0.666330 0.257230 1.374202
V4    V     V_3+5 0.249350 0.333670 0.742770 1.369540
C9    C     C_R   0.409534 0.191512 0.560449 0.169321
C10   C     C_R   0.564213 0.811443 0.409638 0.162052
C11   C     C_R   0.090460 0.691512 0.939547 0.169325
C12   C     C_R   0.935787 0.311437 0.090361 0.162050
C13   C     C_R   0.370022 0.199165 0.600664 -0.186074
C14   C     C_R   0.605375 0.802448 0.371215 -0.194786
C15   C     C_R   0.129972 0.699169 0.899331 -0.186075
C16   C     C_R   0.894625 0.302445 0.128784 -0.194785
H1    H     H_    0.346366 0.326500 0.603618 0.128142
H2    H     H_    0.609363 0.675839 0.345747 0.144901
H3    H     H_    0.153624 0.826511 0.896375 0.128134
H4    H     H_    0.890637 0.175838 0.154253 0.144898
C17   C     C_R   0.360155 0.043819 0.636057 -0.064298
C18   C     C_R   0.640641 0.955602 0.364683 -0.070286
C19   C     C_R   0.139843 0.543820 0.863940 -0.064306
C20   C     C_R   0.859359 0.455599 0.135317 -0.070288
C21   C     C_R   0.391457 0.880113 0.631349 -0.186069
C22   C     C_R   0.635454 0.117245 0.398876 -0.158921
C23   C     C_R   0.108543 0.380109 0.868650 -0.186068
C24   C     C_R   0.864545 0.617239 0.101123 -0.158920
H5    H     H_    0.385518 0.758304 0.658308 0.143314
H6    H     H_    0.662534 0.236504 0.395740 0.135036
H7    H     H_    0.114485 0.258298 0.841691 0.143319
H8    H     H_    0.837465 0.736496 0.104259 0.135035
C25   C     C_R   0.431704 0.872311 0.592629 -0.188582
C26   C     C_R   0.596057 0.125711 0.438538 -0.166299
C27   C     C_R   0.068295 0.372305 0.907369 -0.188583
C28   C     C_R   0.903942 0.625702 0.061461 -0.166296
H9    H     H_    0.455891 0.745472 0.590765 0.115917
H10   H     H_    0.594333 0.249284 0.465936 0.110910
H11   H     H_    0.044110 0.245463 0.909232 0.115916
H12   H     H_    0.905665 0.749272 0.034063 0.110910
C29   C     C_R   0.440973 0.026043 0.556747 0.111762
C30   C     C_R   0.559524 0.976171 0.443548 0.092213
C31   C     C_R   0.059024 0.526039 0.943250 0.111761
C32   C     C_R   0.940475 0.476163 0.056450 0.092209
C33   C     C_1   0.482982 0.010553 0.516938 -0.055958
C34   C     C_1   0.517908 0.995621 0.483692 -0.066691
C35   C     C_1   0.017016 0.510545 0.983060 -0.055959
C36   C     C_1   0.982090 0.495611 0.016306 -0.066693
C37   C     C_R   0.934774 0.002882 0.369293 0.327876
C38   C     C_R   0.064280 0.057511 0.629093 0.322193
C39   C     C_R   0.565226 0.502876 0.130707 0.327876
C40   C     C_R   0.435720 0.557499 0.870908 0.322196
C41   C     C_R   0.881277 0.956694 0.383500 -0.244535
C42   C     C_R   0.119446 0.040825 0.615570 -0.241058
C43   C     C_R   0.618722 0.456686 0.116501 -0.244534
C44   C     C_R   0.380553 0.540829 0.884432 -0.241053
C45   C     C_R   0.875400 0.920550 0.444389 0.319228
C46   C     C_R   0.127226 0.001607 0.555383 0.304027
C47   C     C_R   0.624599 0.420537 0.055611 0.319228
C48   C     C_R   0.372773 0.501622 0.944619 0.303988
C49   C     C_R   0.921803 0.956283 0.491847 -0.080071
C50   C     C_R   0.079666 0.002545 0.507638 -0.094039
C51   C     C_R   0.578196 0.456266 0.008154 -0.080070
C52   C     C_R   0.420334 0.502550 0.992364 -0.094060
C53   C     C_R   0.976405 0.981307 0.476563 -0.065093
C54   C     C_R   0.024531 0.999493 0.522697 -0.056938
C55   C     C_R   0.523594 0.481294 0.023438 -0.065094
C56   C     C_R   0.475468 0.499483 0.977305 -0.056924
C57   C     C_R   0.983062 0.988670 0.415067 -0.033515
C58   C     C_R   0.017314 0.015520 0.583802 -0.022122
C59   C     C_R   0.516938 0.488662 0.084934 -0.033521
C60   C     C_R   0.482685 0.515505 0.916199 -0.022119
C61   C     C_R   0.915450 0.967750 0.553768 0.413128
C62   C     C_R   0.085352 0.001669 0.445364 0.408231
C63   C     C_R   0.584549 0.467729 0.946233 0.413129
C64   C     C_R   0.414648 0.501681 0.054638 0.408222
C65   C     C_R   0.963237 0.991360 0.598629 -0.279079
C66   C     C_R   0.037709 0.985384 0.400593 -0.254934
C67   C     C_R   0.536761 0.491339 0.901372 -0.279088
C68   C     C_R   0.462291 0.485386 0.099409 -0.254920
H13   H     H_    0.957666 0.991089 0.645698 0.158179
H14   H     H_    0.043926 0.975275 0.353756 0.157472
H15   H     H_    0.542332 0.491065 0.854303 0.158182
H16   H     H_    0.456074 0.475292 0.146246 0.157485
C69   C     C_3   0.416827 0.360642 0.521972 -0.380759
C70   C     C_3   0.385333 0.336103 0.457390 -0.740364
H17   H     H_    0.403664 0.219568 0.434263 0.232471
H18   H     H_    0.339955 0.307362 0.457978 0.225440
H19   H     H_    0.388630 0.466334 0.431300 0.217587
H20   H     H_    0.399915 0.487096 0.541501 0.178256
H21   H     H_    0.462320 0.386932 0.521286 0.177235
C71   C     C_3   0.527898 0.641264 0.415228 -0.370830
C72   C     C_3   0.489902 0.594029 0.355511 -0.758843
H22   H     H_    0.465229 0.718427 0.337184 0.225966
H23   H     H_    0.515473 0.542121 0.321906 0.232030
H24   H     H_    0.460169 0.481329 0.363160 0.223790
H25   H     H_    0.555868 0.521108 0.429334 0.174789
H26   H     H_    0.500825 0.659018 0.450579 0.187995
C73   C     C_3   0.083165 0.860645 0.978023 -0.380763
C74   C     C_3   0.114661 0.836117 0.042605 -0.740353
H27   H     H_    0.096332 0.719573 0.065732 0.232468
H28   H     H_    0.160039 0.807393 0.042016 0.225438
H29   H     H_    0.111358 0.966348 0.068695 0.217587
H30   H     H_    0.100076 0.987099 0.958494 0.178255
H31   H     H_    0.037672 0.886928 0.978709 0.177233
C75   C     C_3   0.972101 0.141258 0.084771 -0.370812
C76   C     C_3   0.010095 0.094019 0.144489 -0.758809
H32   H     H_    0.034772 0.218416 0.162819 0.225956
H33   H     H_    0.984521 0.042116 0.178094 0.232020
H34   H     H_    0.039825 0.981311 0.136839 0.223785
H35   H     H_    0.944130 0.021103 0.070661 0.174781
H36   H     H_    0.999177 0.159013 0.049420 0.187987
O21   O     O_3   0.938994 0.044637 0.309365 -0.580475
C77   C     C_3   0.961318 0.226569 0.303763 0.051250
H37   H     H_    0.971799 0.237758 0.257398 0.146761
H38   H     H_    0.001141 0.254345 0.335002 0.116901
C78   C     C_3   0.919455 0.381314 0.312010 -0.331445
H39   H     H_    0.878507 0.352155 0.283397 0.224561
H40   H     H_    0.913173 0.387134 0.360158 0.176311
C79   C     C_3   0.941186 0.569745 0.293859 -0.789544
H41   H     H_    0.980186 0.609333 0.325225 0.232402
H42   H     H_    0.908667 0.677452 0.295796 0.254734
H43   H     H_    0.950163 0.565207 0.246637 0.229186
O22   O     O_3   0.057448 0.098248 0.688259 -0.581068
C80   C     C_3   0.031476 0.275404 0.691222 0.046507
H44   H     H_    0.014557 0.280464 0.734618 0.149163
H45   H     H_    0.994941 0.299403 0.654534 0.115504
C81   C     C_3   0.073951 0.434159 0.690769 -0.329158
H46   H     H_    0.111156 0.404904 0.725333 0.222170
H47   H     H_    0.087573 0.442716 0.645618 0.184279
C82   C     C_3   0.049071 0.621236 0.705253 -0.803121
H48   H     H_    0.012515 0.657326 0.669970 0.235610
H49   H     H_    0.081807 0.730871 0.706448 0.257722
H50   H     H_    0.035327 0.616507 0.750367 0.229916
O23   O     O_3   0.561007 0.544637 0.190636 -0.580474
C83   C     C_3   0.538685 0.726570 0.196239 0.051251
H51   H     H_    0.528204 0.737762 0.242603 0.146763
H52   H     H_    0.498862 0.754347 0.164999 0.116898
C84   C     C_3   0.580548 0.881314 0.187991 -0.331448
H53   H     H_    0.621496 0.852157 0.216604 0.224563
H54   H     H_    0.586830 0.887129 0.139844 0.176312
C85   C     C_3   0.558817 0.069746 0.206142 -0.789549
H55   H     H_    0.519817 0.109333 0.174776 0.232405
H56   H     H_    0.591336 0.177453 0.204206 0.254737
H57   H     H_    0.549839 0.065210 0.253364 0.229187
O24   O     O_3   0.442553 0.598229 0.811742 -0.581068
C86   C     C_3   0.468526 0.775383 0.808780 0.046499
H58   H     H_    0.485448 0.780434 0.765385 0.149162
H59   H     H_    0.505059 0.799387 0.845469 0.115502
C87   C     C_3   0.426051 0.934139 0.809228 -0.329151
H60   H     H_    0.388848 0.904880 0.774661 0.222166
H61   H     H_    0.412425 0.942703 0.854376 0.184282
C88   C     C_3   0.450933 0.121213 0.794745 -0.803124
H62   H     H_    0.487488 0.157306 0.830029 0.235610
H63   H     H_    0.418197 0.230850 0.793548 0.257725
H64   H     H_    0.464679 0.116479 0.749631 0.229915
O25   O     O_3   0.822817 0.866830 0.456542 -0.559289
C89   C     C_3   0.824607 0.681264 0.479322 0.127871
H65   H     H_    0.796814 0.675871 0.514475 0.165201
H66   H     H_    0.867293 0.634985 0.501873 0.105046
C90   C     C_3   0.802020 0.543268 0.428994 -0.332177
H67   H     H_    0.760791 0.593609 0.404466 0.227439
H68   H     H_    0.832562 0.532499 0.396927 0.204282
C91   C     C_3   0.794108 0.349192 0.454203 -0.823779
H69   H     H_    0.835074 0.295211 0.478177 0.231061
H70   H     H_    0.778086 0.252746 0.416419 0.258912
H71   H     H_    0.762998 0.353558 0.485895 0.216508
O26   O     O_3   0.181753 0.972146 0.544112 -0.567880
C92   C     C_3   0.188269 0.786378 0.523918 0.108527
H72   H     H_    0.218580 0.790351 0.491301 0.164782
H73   H     H_    0.148741 0.722303 0.499353 0.117396
C93   C     C_3   0.212393 0.660336 0.576847 -0.318718
H74   H     H_    0.252547 0.720651 0.600619 0.219948
H75   H     H_    0.181455 0.650153 0.608519 0.212165
C94   C     C_3   0.223378 0.463891 0.555467 -0.821980
H76   H     H_    0.182756 0.395897 0.537060 0.223979
H77   H     H_    0.244063 0.379720 0.594387 0.263604
H78   H     H_    0.251286 0.467301 0.520417 0.215171
O27   O     O_3   0.677182 0.366815 0.043458 -0.559287
C95   C     C_3   0.675391 0.181248 0.020678 0.127874
H79   H     H_    0.703184 0.175852 0.985524 0.165200
H80   H     H_    0.632705 0.134966 0.998128 0.105043
C96   C     C_3   0.697980 0.043256 0.071006 -0.332179
H81   H     H_    0.739209 0.093601 0.095533 0.227438
H82   H     H_    0.667439 0.032490 0.103073 0.204283
C97   C     C_3   0.705891 0.849178 0.045796 -0.823774
H83   H     H_    0.664925 0.795195 0.021823 0.231063
H84   H     H_    0.721913 0.752735 0.083580 0.258911
H85   H     H_    0.737001 0.853541 0.014104 0.216509
O28   O     O_3   0.318245 0.472184 0.955892 -0.567894
C98   C     C_3   0.311723 0.286419 0.976083 0.108493
H86   H     H_    0.281415 0.290404 0.008703 0.164777
H87   H     H_    0.351249 0.222324 0.000644 0.117394
C99   C     C_3   0.287590 0.160396 0.923152 -0.318691
H88   H     H_    0.247437 0.220734 0.899385 0.219942
H89   H     H_    0.318526 0.150202 0.891478 0.212180
C100  C     C_3   0.276596 0.963952 0.944524 -0.822010
H90   H     H_    0.317216 0.895923 0.962912 0.223985
H91   H     H_    0.255897 0.879813 0.905604 0.263594
H92   H     H_    0.248701 0.967364 0.979585 0.215173
O29   O     O_3   0.862700 0.949288 0.570776 -0.564878
C101  C     C_3   0.847429 0.112132 0.600297 0.087612
H93   H     H_    0.807177 0.164543 0.574195 0.152003
H94   H     H_    0.878421 0.229275 0.602445 0.090720
C102  C     C_3   0.837218 0.062619 0.664244 -0.311172
H95   H     H_    0.803538 0.955009 0.661280 0.202639
H96   H     H_    0.876286 0.003890 0.691048 0.187486
C103  C     C_3   0.819374 0.233744 0.697109 -0.842144
H97   H     H_    0.853080 0.341464 0.701859 0.230114
H98   H     H_    0.811879 0.193087 0.743100 0.233918
H99   H     H_    0.779778 0.293499 0.671666 0.231025
O30   O     O_3   0.137275 0.020494 0.426844 -0.569335
C104  C     C_3   0.150343 0.212215 0.422148 0.120389
H100  H     H_    0.194854 0.232141 0.444133 0.158191
H101  H     H_    0.124011 0.307955 0.445527 0.091295
C105  C     C_3   0.145465 0.268729 0.355462 -0.341456
H102  H     H_    0.174909 0.182931 0.333374 0.205815
H103  H     H_    0.101881 0.243127 0.331620 0.183204
C106  C     C_3   0.159533 0.474958 0.349397 -0.822265
H104  H     H_    0.129524 0.563394 0.369778 0.237848
H105  H     H_    0.156205 0.511673 0.300646 0.234780
H106  H     H_    0.203235 0.504299 0.372460 0.229750
O31   O     O_3   0.637298 0.449266 0.929225 -0.564877
C107  C     C_3   0.652568 0.612100 0.899699 0.087608
H107  H     H_    0.692819 0.664528 0.925799 0.151997
H108  H     H_    0.621575 0.729239 0.897545 0.090723
C108  C     C_3   0.662782 0.562563 0.835754 -0.311165
H109  H     H_    0.696467 0.454968 0.838724 0.202633
H110  H     H_    0.623717 0.503804 0.808952 0.187490
C109  C     C_3   0.680618 0.733680 0.802881 -0.842143
H111  H     H_    0.646906 0.841379 0.798120 0.230109
H112  H     H_    0.688119 0.693002 0.756893 0.233918
H113  H     H_    0.720209 0.793474 0.828323 0.231026
O32   O     O_3   0.362728 0.520547 0.073163 -0.569336
C110  C     C_3   0.349651 0.712274 0.077809 0.120445
H114  H     H_    0.305137 0.732144 0.055835 0.158191
H115  H     H_    0.375971 0.807943 0.054396 0.091332
C111  C     C_3   0.354545 0.768974 0.144478 -0.341506
H116  H     H_    0.325090 0.683309 0.166593 0.205786
H117  H     H_    0.398129 0.743339 0.168322 0.183220
C112  C     C_3   0.340512 0.975254 0.150487 -0.822143
H118  H     H_    0.370543 0.063564 0.130090 0.237824
H119  H     H_    0.343841 0.012087 0.199228 0.234786
H120  H     H_    0.296814 0.004658 0.127409 0.229718

loop_
_geom_bond_atom_site_label_1
_geom_bond_atom_site_label_2
_ccdc_geom_bond_type
C26   H10   S    
C47   C51   A    
O27   C95   S    
O1    C5    A    
C51   C55   A    
O19   V1    S    
C72   H22   S    
O13   V1    S    
C38   C58   A    
C61   O29   S    
C75   H35   S    
C45   O25   S    
C44   C48   A    
C76   H34   S    
O15   V3    S    
C10   C30   A    
C111  C112  S    
C73   H30   S    
C77   H37   S    
C39   C59   A    
C108  H109  S    
C23   H7    S    
O25   C89   S    
C59   C68   A    
O7    C3    A    
C86   H59   S    
C102  H95   S    
C39   C43   A    
C71   H26   S    
C91   H71   S    
C8    C17   S    
C38   O22   S    
C84   H54   S    
C14   H2    S    
C100  H92   S    
C72   H23   S    
C97   H83   S    
O4    C8    A    
C21   H5    S    
C90   H68   S    
C82   H49   S    
O24   C86   S    
C10   C71   S    
C106  H104  S    
C56   C60   A    
C21   C25   A    
O30   C104  S    
O2    V4    S    
C1    C43   S    
O3    V1    S    
C89   H65   S    
C103  H97   S    
C12   C16   A    
C109  H112  S    
C3    C41   S    
C27   C31   A    
C87   H60   S    
C84   H53   S    
O3    C7    A    
C1    O15   A    
C64   C68   A    
C52   C56   A    
C91   H70   S    
C2    O16   A    
C53   C57   A    
C92   H73   S    
C4    C42   S    
O2    C6    A    
C94   H78   S    
C95   C96   S    
C66   H14   S    
O14   V2    S    
O26   C92   S    
C37   C57   A    
C24   C28   A    
C112  H118  S    
C69   C70   S    
C16   H4    S    
O5    V1    S    
C98   H87   S    
C107  C108  S    
C32   C36   S    
C5    C20   S    
C92   C93   S    
O11   C7    A    
C6    C19   S    
C94   H76   S    
O12   C8    A    
C7    C18   S    
C104  H100  S    
C73   H31   S    
C82   H50   S    
C85   H56   S    
C80   H45   S    
C79   H43   S    
O10   V2    S    
C93   C94   S    
C103  H98   S    
C26   C30   A    
C45   C49   A    
C54   C58   A    
C51   C63   A    
O1    V3    S    
C65   H13   S    
C86   C87   S    
C64   O32   S    
O4    V2    S    
O7    V3    S    
C107  H108  S    
C9    C29   A    
C96   H81   S    
O8    V4    S    
C83   C84   S    
C40   C44   A    
C73   C74   S    
C84   C85   S    
C49   C61   A    
O22   C80   S    
C58   C65   A    
C47   O27   S    
C63   C67   A    
C71   H25   S    
C80   C81   S    
C25   C29   A    
C55   C56   A    
C2    C44   S    
O18   V4    S    
C93   H74   S    
C90   C91   S    
C19   C23   A    
C109  H113  S    
C76   H33   S    
C46   C50   A    
C15   C19   A    
O11   V3    S    
C103  H99   S    
C9    C13   A    
C70   H17   S    
C91   H69   S    
C89   C90   S    
C83   H52   S    
C11   C15   A    
C98   H86   S    
O5    C1    A    
C109  H111  S    
C12   C75   S    
C96   C97   S    
C100  H90   S    
C78   H40   S    
C42   C46   A    
C99   H89   S    
O23   C83   S    
C87   C88   S    
C81   C82   S    
C41   C45   A    
O8    C4    A    
C88   H64   S    
C99   H88   S    
C105  H103  S    
O29   C101  S    
C22   C26   A    
O9    C5    A    
C101  H93   S    
C22   H6    S    
C95   H79   S    
C40   O24   S    
C112  H119  S    
C86   H58   S    
C94   H77   S    
C52   C64   A    
C77   H38   S    
C69   H20   S    
C74   H29   S    
C79   H42   S    
O6    V2    S    
C95   H80   S    
C88   H62   S    
C97   H84   S    
C104  H101  S    
C50   C54   A    
C85   H55   S    
C72   H24   S    
C23   C27   A    
C13   C17   A    
C76   H32   S    
C101  C102  S    
C68   H16   S    
C39   O23   S    
C107  H107  S    
C48   O28   S    
C99   C100  S    
C74   H28   S    
O16   V4    S    
O9    V1    S    
C16   C20   A    
C104  C105  S    
C3    O13   A    
C106  H106  S    
C49   C53   A    
C98   C99   S    
C89   H66   S    
C46   O26   S    
C10   C14   A    
O17   V3    S    
C75   H36   S    
C48   C52   A    
C81   H47   S    
C79   H41   S    
C108  C109  S    
C77   C78   S    
C57   C66   A    
O6    C2    A    
C110  C111  S    
C111  H117  S    
O31   C107  S    
C12   C32   A    
C25   H9    S    
C111  H116  S    
C78   C79   S    
O12   V4    S    
C97   H85   S    
O21   C77   S    
C18   C22   A    
C27   H11   S    
C4    O14   A    
C28   H12   S    
C83   H51   S    
O10   C6    A    
O20   V2    S    
O32   C110  S    
C35   C36   T    
C100  H91   S    
C110  H115  S    
C62   C66   A    
C78   H39   S    
C40   C60   A    
C43   C47   A    
C90   H67   S    
C30   C34   S    
C37   O21   S    
C29   C33   S    
O28   C98   S    
C11   C73   S    
C105  H102  S    
C87   H61   S    
C88   H63   S    
C71   C72   S    
C75   C76   S    
C31   C35   S    
C105  C106  S    
C13   H1    S    
C33   C34   T    
C50   C62   A    
C112  H120  S    
C70   H18   S    
C14   C18   A    
C93   H75   S    
C108  H110  S    
C11   C31   A    
C69   H21   S    
C55   C59   A    
C102  C103  S    
C24   H8    S    
C20   C24   A    
C9    C69   S    
C81   H46   S    
C28   C32   A    
C85   H57   S    
C102  H96   S    
C92   H72   S    
C38   C42   A    
C60   C67   A    
C70   H19   S    
C82   H48   S    
C96   H82   S    
C37   C41   A    
C67   H15   S    
C17   C21   A    
C106  H105  S    
C53   C54   A    
C80   H44   S    
C63   O31   S    
C15   H3    S    
C61   C65   A    
C101  H94   S    
C110  H114  S    
C74   H27   S    
C62   O30   S    
