data_mof_unit_50410.cif
_audit_creation_date              2012-12-10T17:50:43-0500
_audit_creation_method            fapswitch 2.2
_symmetry_space_group_name_H-M    P1
_symmetry_Int_Tables_number       1
_space_group_crystal_system       triclinic
_cell_length_a                    14.748952
_cell_length_b                    14.737023
_cell_length_c                    15.846883
_cell_angle_alpha                 75.822641
_cell_angle_beta                  102.507223
_cell_angle_gamma                 115.102242
_cell_volume                      2999.09295395

loop_
_atom_site_label
_atom_site_type_symbol
_atom_type_description
_atom_site_fract_x
_atom_site_fract_y
_atom_site_fract_z
_atom_type_partial_charge
C1    C     C_R   0.880572 0.311707 0.513820 0.798412
C2    C     C_R   0.119356 0.687840 0.488952 0.772105
C3    C     C_R   0.782416 0.022346 0.547047 -0.210243
C4    C     C_R   0.222014 0.975475 0.471020 -0.202307
C5    C     C_R   0.850600 0.123807 0.537862 -0.031074
C6    C     C_R   0.152900 0.874255 0.481317 -0.023928
C7    C     C_R   0.709570 0.176011 0.507029 -0.156440
C8    C     C_R   0.290649 0.820898 0.495738 -0.218499
C9    C     C_R   0.640258 0.074851 0.507751 0.098597
C10   C     C_R   0.361726 0.920675 0.496427 0.078610
C11   C     C_R   0.678301 0.997629 0.534947 0.067144
C12   C     C_R   0.325326 0.998978 0.474466 0.097608
C13   C     C_R   0.534070 0.048644 0.488846 -0.058241
C14   C     C_R   0.467563 0.945291 0.512666 -0.113840
C15   C     C_R   0.510103 0.871420 0.552872 0.396088
C16   C     C_R   0.493071 0.122469 0.445321 0.445979
C17   C     C_R   0.612792 0.896899 0.555820 -0.289575
C18   C     C_R   0.390645 0.098947 0.448993 -0.324584
C19   C     C_R   0.708047 0.650897 0.336140 -0.383641
C20   C     C_R   0.319257 0.401591 0.677248 -0.392692
C21   C     C_R   0.795083 0.630632 0.368582 0.673731
C22   C     C_R   0.221881 0.397664 0.642516 0.682866
C23   C     C_R   0.999879 0.500405 0.659856 0.827207
C24   C     C_R   0.000697 0.500677 0.339996 0.828133
C25   C     C_R   0.717403 0.520149 0.493409 0.044961
C26   C     C_R   0.275156 0.467225 0.500726 0.083523
C27   C     C_R   0.635268 0.553081 0.469820 -0.050627
C28   C     C_R   0.378524 0.486075 0.534982 -0.025089
C29   C     C_R   0.628319 0.611745 0.385995 0.016671
C30   C     C_R   0.397892 0.450976 0.625731 0.011742
C31   C     C_R   0.557570 0.526524 0.523340 -0.103649
C32   C     C_R   0.462530 0.533074 0.484016 -0.065526
C33   C     C_R   0.459982 0.594686 0.399377 0.439720
C34   C     C_R   0.575567 0.505312 0.616198 0.439073
C35   C     C_R   0.541963 0.631452 0.351853 -0.262762
C36   C     C_R   0.495621 0.464035 0.665367 -0.230734
C37   C     C_3   0.987131 0.411633 0.044915 0.037778
C38   C     C_3   0.016314 0.596002 0.953813 0.037022
C39   C     C_3   0.911620 0.436439 0.968751 -0.198026
C40   C     C_3   0.091839 0.571191 0.030058 -0.192457
C41   C     C_1   0.999885 0.501892 0.749168 -0.179786
C42   C     C_1   0.002002 0.502047 0.250250 -0.130578
C43   C     C_3   0.076270 0.477252 0.991670 -0.209625
C44   C     C_3   0.927160 0.530373 0.007101 -0.211981
C45   C     C_3   0.000992 0.503555 0.916234 0.131927
C46   C     C_3   0.002431 0.504038 0.082572 0.131002
C47   C     C_1   0.000240 0.502900 0.824557 -0.059324
C48   C     C_1   0.002568 0.503232 0.174518 -0.037889
C49   C     C_R   0.813993 0.202266 0.519957 -0.130808
C50   C     C_R   0.186950 0.796097 0.487924 -0.132974
Cu1   Cu    Cu3+1 0.081740 0.475690 0.522610 0.995386
Cu2   Cu    Cu3+1 0.918260 0.524310 0.477390 0.993002
H1    H     H_    0.838218 0.380723 0.942883 0.152268
H2    H     H_    0.165220 0.626932 0.055942 0.144462
H3    H     H_    0.702524 0.697131 0.272157 0.155818
H4    H     H_    0.334968 0.367727 0.744496 0.155160
H5    H     H_    0.866766 0.553057 0.014238 0.145782
H6    H     H_    0.136611 0.454578 0.984357 0.136835
H7    H     H_    0.642202 0.838014 0.581651 0.151807
H8    H     H_    0.358390 0.155521 0.424743 0.130013
H9    H     H_    0.314538 0.761603 0.495799 0.224496
H10   H     H_    0.682878 0.235270 0.500936 0.201016
H11   H     H_    0.810740 0.962229 0.565476 0.142981
H12   H     H_    0.195085 0.036102 0.459200 0.147903
H13   H     H_    0.537195 0.675111 0.286374 0.151022
H14   H     H_    0.510950 0.443717 0.735975 0.158120
N1    N     N_R   0.795440 0.560790 0.443380 -0.256255
N2    N     N_R   0.204560 0.439210 0.556620 -0.250074
O1    O     O_R   0.977900 0.338120 0.529810 -0.544670
O2    O     O_R   0.022100 0.661880 0.470190 -0.550159
O3    O     O_R   0.839850 0.379180 0.491620 -0.599101
O4    O     O_R   0.160150 0.620820 0.508380 -0.591597
O5    O     O_R   0.069010 0.479460 0.640020 -0.563507
O6    O     O_R   0.930990 0.520540 0.359980 -0.529056
O7    O     O_R   0.930960 0.520530 0.601820 -0.575000
O8    O     O_R   0.069040 0.479470 0.398180 -0.581699
C51   C     C_1   0.238164 0.442619 0.413722 0.387261
N3    N     N_1   0.208934 0.421919 0.344169 -0.274201
C52   C     C_1   0.712324 0.433166 0.561221 0.408622
N4    N     N_1   0.707703 0.363336 0.615744 -0.300155
O9    O     O_3   0.139293 0.341168 0.688772 -0.548548
C53   C     C_3   0.160326 0.348657 0.779071 0.056277
H15   H     H_    0.098363 0.361881 0.796138 0.178749
H16   H     H_    0.230806 0.413946 0.796730 0.111154
C54   C     C_3   0.159934 0.248341 0.835015 -0.813004
H17   H     H_    0.218010 0.228341 0.819041 0.244649
H18   H     H_    0.175594 0.254666 0.905568 0.208792
H19   H     H_    0.084789 0.186369 0.822977 0.262071
O10   O     O_3   0.875323 0.668735 0.320013 -0.554284
C55   C     C_3   0.907287 0.774610 0.287830 0.060502
H20   H     H_    0.989445 0.810759 0.309615 0.175582
H21   H     H_    0.870826 0.813816 0.312593 0.137088
C56   C     C_3   0.892212 0.793654 0.187871 -0.824907
H22   H     H_    0.811058 0.758101 0.162592 0.238013
H23   H     H_    0.920184 0.876769 0.162664 0.219796
H24   H     H_    0.934879 0.760916 0.163394 0.257686
O11   O     O_3   0.378117 0.620164 0.362100 -0.590385
C57   C     C_3   0.404560 0.725032 0.357501 0.064214
H25   H     H_    0.466883 0.773000 0.317100 0.140269
H26   H     H_    0.427774 0.744555 0.424341 0.177070
C58   C     C_3   0.313300 0.750158 0.314546 -0.778812
H27   H     H_    0.247688 0.701349 0.350819 0.253178
H28   H     H_    0.293069 0.736572 0.245733 0.246471
H29   H     H_    0.330905 0.831295 0.314480 0.206584
O12   O     O_3   0.672023 0.530316 0.661209 -0.585043
C59   C     C_3   0.714476 0.635157 0.665273 0.040334
H30   H     H_    0.670840 0.652860 0.703645 0.145360
H31   H     H_    0.716538 0.682472 0.598480 0.150589
C60   C     C_3   0.822422 0.663751 0.710711 -0.717490
H32   H     H_    0.868117 0.648654 0.672751 0.261599
H33   H     H_    0.856490 0.745873 0.715211 0.207317
H34   H     H_    0.823415 0.618461 0.777950 0.246118
C61   C     C_1   0.971192 0.309811 0.096076 0.232689
N5    N     N_1   0.958647 0.229521 0.136483 -0.282291
C62   C     C_1   0.032390 0.697791 0.902534 0.209852
N6    N     N_1   0.045069 0.778064 0.862035 -0.288056
C63   C     C_1   0.049087 0.853943 0.485715 0.249267
N7    N     N_1   0.966078 0.837881 0.489791 -0.312725
C64   C     C_1   0.956822 0.143360 0.549941 0.307763
N8    N     N_1   0.041836 0.158689 0.559620 -0.264230
O13   O     O_3   0.453901 0.773226 0.590422 -0.606517
C65   C     C_3   0.442481 0.773089 0.676572 0.076084
H35   H     H_    0.403738 0.823541 0.676749 0.154902
H36   H     H_    0.517270 0.798177 0.717878 0.143342
C66   C     C_3   0.378305 0.665401 0.716981 -0.794563
H37   H     H_    0.366630 0.664282 0.784192 0.194838
H38   H     H_    0.303604 0.637632 0.676387 0.260959
H39   H     H_    0.416895 0.613893 0.720856 0.247455
O14   O     O_3   0.551697 0.207280 0.389748 -0.588370
C67   C     C_3   0.518241 0.287832 0.364953 0.038285
H40   H     H_    0.509977 0.311113 0.423731 0.140730
H41   H     H_    0.446149 0.266196 0.319885 0.161358
C68   C     C_3   0.596049 0.378396 0.314613 -0.750040
H42   H     H_    0.603665 0.358032 0.254256 0.249886
H43   H     H_    0.571884 0.443200 0.295553 0.207038
H44   H     H_    0.670483 0.401260 0.355910 0.255878

loop_
_geom_bond_atom_site_label_1
_geom_bond_atom_site_label_2
_ccdc_geom_bond_type
C56   H22   S    
C27   C29   A    
C24   C42   S    
C25   N1    A    
C20   H4    S    
Cu2   O7    S    
O9    C53   S    
C21   O10   S    
C51   N3    T    
C40   C46   S    
C39   H1    S    
C1    O3    A    
C5    C64   S    
C19   C21   A    
O14   C67   S    
Cu2   O6    S    
C60   H33   S    
C36   H14   S    
C37   C61   S    
C59   H30   S    
C35   H13   S    
C62   N6    T    
C15   C17   A    
C9    C13   A    
C38   C45   S    
C2    C50   S    
C43   H6    S    
C40   C43   S    
C68   H44   S    
C4    C12   A    
C60   H32   S    
C6    C63   S    
C34   C36   A    
C8    H9    S    
C39   C45   S    
C45   C47   S    
C56   H23   S    
C13   C14   A    
C21   N1    A    
C5    C49   A    
C23   O5    A    
C2    O4    A    
C58   H27   S    
C44   C46   S    
O11   C57   S    
C54   H18   S    
C46   C48   S    
C26   C51   S    
C27   C31   A    
Cu1   Cu2   S    
C22   O9    S    
C28   C32   A    
C3    C11   A    
Cu1   O8    S    
C7    C49   A    
C4    C6    A    
C10   C14   A    
C60   H34   S    
O10   C55   S    
C24   O8    A    
C20   C30   A    
C54   H17   S    
C1    O1    A    
C37   C43   S    
C67   H41   S    
C7    H10   S    
C38   C44   S    
C66   H39   S    
C43   C45   S    
C55   H21   S    
C31   C32   A    
C44   H5    S    
C41   C47   T    
C31   C34   A    
C16   C18   A    
C42   C48   T    
C6    C50   A    
C16   O14   S    
C9    C11   A    
C22   N2    A    
O13   C65   S    
Cu2   N1    S    
C10   C12   A    
C17   H7    S    
C18   H8    S    
C20   C22   A    
C53   H15   S    
C56   H24   S    
C53   H16   S    
C68   H42   S    
C67   C68   S    
C25   C27   A    
Cu1   O4    S    
C65   H36   S    
C57   C58   S    
C8    C50   A    
C55   C56   S    
C66   H38   S    
C61   N5    T    
C54   H19   S    
C19   H3    S    
C7    C9    A    
C4    H12   S    
C11   C17   A    
C15   O13   S    
C25   C52   S    
C34   O12   S    
C26   C28   A    
C8    C10   A    
Cu1   O5    S    
C23   O7    A    
C3    C5    A    
C64   N8    T    
C39   C44   S    
C3    H11   S    
C58   H29   S    
C53   C54   S    
O12   C59   S    
C29   C35   A    
C40   H2    S    
C23   C41   S    
C30   C36   A    
C26   N2    A    
C32   C33   A    
C65   C66   S    
C28   C30   A    
C67   H40   S    
C37   C46   S    
C37   C39   S    
Cu2   O3    S    
C63   N7    T    
C38   C40   S    
C38   C62   S    
C24   O6    A    
C55   H20   S    
C66   H37   S    
C59   H31   S    
C33   C35   A    
C33   O11   S    
Cu1   N2    S    
C57   H26   S    
Cu2   O2    S    
C52   N4    T    
C58   H28   S    
C57   H25   S    
C13   C16   A    
C12   C18   A    
C68   H43   S    
C14   C15   A    
Cu1   O1    S    
C65   H35   S    
C2    O2    A    
C1    C49   S    
C59   C60   S    
C19   C29   A    
