data_mof_unit_19994.cif
_audit_creation_date              2012-12-11T15:48:13-0500
_audit_creation_method            fapswitch 2.2
_symmetry_space_group_name_H-M    P1
_symmetry_Int_Tables_number       1
_space_group_crystal_system       triclinic
_cell_length_a                    6.923518
_cell_length_b                    17.59035
_cell_length_c                    19.465513
_cell_angle_alpha                 108.630845
_cell_angle_beta                  89.664922
_cell_angle_gamma                 90.387574
_cell_volume                      2246.34994077

loop_
_atom_site_label
_atom_site_type_symbol
_atom_type_description
_atom_site_fract_x
_atom_site_fract_y
_atom_site_fract_z
_atom_type_partial_charge
O1    O     O_R   0.494330 0.415710 0.413720 -0.542794
O2    O     O_R   0.819360 0.430070 0.560210 -0.542511
O3    O     O_R   0.994320 0.584290 0.586280 -0.543922
C1    C     C_R   0.650294 0.412006 0.579349 0.695044
O4    O     O_R   0.823740 0.406290 0.412670 -0.550900
O5    O     O_R   0.998730 0.560340 0.437690 -0.541851
C2    C     C_R   0.654981 0.383270 0.384700 0.681537
O6    O     O_R   0.489920 0.439660 0.562310 -0.530154
O7    O     O_3   0.662330 0.550570 0.508380 -0.364364
V1    V     V_3+5 0.935370 0.490620 0.498440 1.473959
O8    O     O_R   0.328720 0.569930 0.439790 -0.534900
C3    C     C_R   0.160480 0.585040 0.418206 0.736851
O9    O     O_R   0.324340 0.593710 0.587330 -0.532362
C4    C     C_R   0.155112 0.618329 0.614118 0.754249
V2    V     V_3+5 0.435940 0.509380 0.501560 1.502477
O10   O     O_3   0.159110 0.449430 0.491620 -0.367592
C5    C     C_R   0.271679 0.756820 0.692368 -0.081687
C6    C     C_R   0.259379 0.822207 0.758183 -0.064045
C7    C     C_R   0.120953 0.820232 0.811998 -0.068366
C8    C     C_R   0.992531 0.755146 0.797692 -0.172430
H1    H     H_    0.884870 0.752781 0.837585 0.134629
C9    C     C_R   0.004007 0.691254 0.733110 -0.156600
H2    H     H_    0.904641 0.641312 0.724923 0.133842
C10   C     C_R   0.144459 0.690029 0.680493 -0.065974
C11   C     C_R   0.004659 0.623046 0.318192 -0.164581
C12   C     C_R   0.152951 0.634320 0.368950 -0.077382
C13   C     C_R   0.296029 0.691660 0.371936 -0.103409
C14   C     C_R   0.292519 0.739149 0.325663 0.076083
C15   C     C_R   0.141840 0.727136 0.274031 0.076640
C16   C     C_R   0.998579 0.667446 0.269146 0.032521
C17   C     C_R   0.440026 0.796123 0.328452 0.141955
C18   C     C_R   0.433786 0.842856 0.281271 -0.041963
C19   C     C_R   0.272133 0.836945 0.234692 0.025564
C20   C     C_R   0.133584 0.774952 0.227808 0.041113
C21   C     C_R   0.986270 0.761047 0.174773 0.041404
C22   C     C_R   0.844286 0.701058 0.169476 0.123281
C23   C     C_R   0.849761 0.654571 0.216803 -0.063335
C24   C     C_R   0.245177 0.890963 0.194108 -0.056641
C25   C     C_R   0.114295 0.870685 0.135432 -0.133567
C26   C     C_R   0.986259 0.806610 0.126982 -0.167353
H3    H     H_    0.895003 0.578681 0.317312 0.104057
H4    H     H_    0.407996 0.699012 0.411832 0.173961
H5    H     H_    0.884380 0.794156 0.082995 0.158316
C27   C     C_R   0.472710 0.187923 0.869154 -0.150461
C28   C     C_R   0.623044 0.134581 0.869435 -0.069528
C29   C     C_R   0.777706 0.126317 0.820698 -0.199693
C30   C     C_R   0.780955 0.169412 0.771193 0.107867
C31   C     C_R   0.631062 0.223555 0.771573 0.070728
C32   C     C_R   0.477030 0.233050 0.821240 0.047800
C33   C     C_R   0.930258 0.158028 0.720467 -0.183703
C34   C     C_R   0.931981 0.199534 0.670302 -0.123162
C35   C     C_R   0.787405 0.256191 0.670889 0.098342
C36   C     C_R   0.634814 0.267835 0.722153 0.013974
C37   C     C_R   0.485455 0.323128 0.724067 0.052664
C38   C     C_R   0.333694 0.333106 0.775198 0.172236
C39   C     C_R   0.329672 0.287520 0.822384 -0.188189
C40   C     C_R   0.790132 0.300680 0.621365 -0.046661
C41   C     C_R   0.643084 0.358087 0.625067 -0.150991
C42   C     C_R   0.492410 0.367589 0.675599 -0.097529
H6    H     H_    0.352930 0.194879 0.906761 0.140711
H7    H     H_    0.892952 0.084589 0.819884 0.145945
H8    H     H_    0.045392 0.116064 0.718941 0.155050
H9    H     H_    0.048810 0.186287 0.631423 0.180889
H10   H     H_    0.382250 0.411462 0.677525 0.167330
H11   H     H_    0.211359 0.295373 0.860683 0.163152
C43   C     C_R   0.792810 0.259450 0.293788 -0.120496
H12   H     H_    0.918559 0.263696 0.327683 0.136887
C44   C     C_R   0.779480 0.195915 0.228623 -0.118259
H13   H     H_    0.895415 0.152552 0.214387 0.148056
C45   C     C_R   0.618634 0.187766 0.182724 -0.084819
C46   C     C_R   0.470646 0.246226 0.203835 0.156398
C47   C     C_R   0.483525 0.308398 0.270010 -0.148609
H14   H     H_    0.369270 0.352496 0.285000 0.140172
C48   C     C_R   0.643816 0.315855 0.315557 -0.082992
O11   O     O_R   0.774940 0.060470 0.937800 -0.543428
O12   O     O_R   0.440880 0.093730 0.087350 -0.532987
O13   O     O_R   0.266130 0.939630 0.062280 -0.550058
C49   C     C_R   0.609388 0.118298 0.114504 0.706651
O14   O     O_R   0.445480 0.069960 0.939820 -0.522950
O15   O     O_R   0.270770 0.915690 0.913690 -0.528416
C50   C     C_R   0.614528 0.085490 0.918642 0.747790
O16   O     O_R   0.770300 0.084410 0.086380 -0.538488
O17   O     O_3   0.602600 0.949510 0.991670 -0.377719
V3    V     V_3+5 0.329470 0.009370 0.001550 1.506179
O18   O     O_R   0.940760 0.906160 0.912560 -0.551729
C51   C     C_R   0.109753 0.884985 0.883423 0.750647
O19   O     O_R   0.936150 0.929930 0.060100 -0.543147
C52   C     C_R   0.104305 0.917476 0.083852 0.682938
V4    V     V_3+5 0.828930 0.990450 0.998310 1.459364
O20   O     O_3   0.105670 0.050490 0.008320 -0.353195
C53   C     C_2   0.407284 0.762050 0.634394 0.397177
H15   H     H_    0.552831 0.784860 0.647757 0.038808
O21   O     O_2   0.355266 0.743285 0.571311 -0.520995
I1    I     I_    0.621487 0.678123 0.088380 -0.356430
C54   C     C_2   0.703485 0.590415 0.210071 0.452383
H16   H     H_    0.749301 0.530477 0.206786 0.044591
O22   O     O_2   0.531036 0.604495 0.210672 -0.511199
C55   C     C_2   0.940317 0.285699 0.563716 0.418746
H17   H     H_    0.897393 0.275419 0.507895 0.041715
O23   O     O_2   0.111987 0.289546 0.578548 -0.530389
I2    I     I_    0.105518 0.416847 0.786852 -0.393197
C56   C     C_2   0.380491 0.895007 0.767374 0.365491
H18   H     H_    0.531875 0.889535 0.752137 0.027319
O24   O     O_2   0.309987 0.961912 0.789972 -0.534011
I3    I     I_    0.229274 0.251982 0.138410 -0.407166
I4    I     I_    0.680540 0.808493 0.401311 -0.295331
C57   C     C_2   0.607770 0.889176 0.272770 0.528117
H19   H     H_    0.656822 0.885486 0.218756 0.000385
O25   O     O_2   0.690229 0.935114 0.325035 -0.470617
C58   C     C_2   0.322937 0.974484 0.220603 0.356107
H20   H     H_    0.375472 0.004471 0.183518 0.051870
O26   O     O_2   0.321931 0.012069 0.285316 -0.486742

loop_
_geom_bond_atom_site_label_1
_geom_bond_atom_site_label_2
_ccdc_geom_bond_type
C27   C32   A    
C43   C44   A    
O19   C52   A    
C45   C49   S    
C54   H16   S    
C5    C53   S    
O15   V3    S    
C7    C51   S    
O12   V3    S    
C36   C37   A    
C35   C36   A    
C42   H10   S    
O16   V4    S    
C22   C23   A    
O12   C49   A    
C6    C7    A    
O5    C3    A    
O14   V3    S    
C39   H11   S    
C43   C48   A    
C23   C54   S    
C20   C21   A    
C6    C56   S    
C4    C10   S    
C58   H20   S    
O15   C51   A    
C29   C30   A    
O8    V2    S    
C26   H5    S    
O17   V3    S    
O13   C52   A    
C44   H13   S    
C18   C57   S    
C57   H19   S    
C45   C46   A    
O1    V2    S    
C2    C48   S    
O7    V1    S    
C1    O6    A    
C43   H12   S    
O9    C4    A    
C57   O25   D    
V3    O20   S    
C25   C52   S    
C19   C20   A    
C30   C33   A    
C37   C42   A    
C31   C36   A    
O17   V4    S    
C5    C10   A    
C29   H7    S    
C34   C35   A    
C30   C31   A    
C34   H9    S    
C47   C48   A    
C11   H3    S    
C53   H15   S    
O14   C50   A    
O18   V4    S    
O11   C50   A    
O13   V3    S    
C33   C34   A    
C11   C12   A    
O18   C51   A    
C15   C20   A    
C16   C23   A    
C3    C12   S    
C21   C22   A    
O2    C1    A    
C15   C16   A    
C53   O21   D    
C49   O16   A    
C17   C18   A    
C38   C39   A    
C5    C6    A    
C12   C13   A    
C56   O24   D    
O3    C4    A    
C31   C32   A    
C8    C9    A    
O6    V2    S    
C55   O23   D    
C46   I3    S    
C33   H8    S    
C17   I4    S    
C9    C10   A    
C28   C29   A    
C24   C58   S    
O2    V1    S    
C25   C26   A    
C27   C28   A    
O4    C2    A    
C11   C16   A    
C37   C38   A    
C14   C15   A    
O1    C2    A    
C14   C17   A    
C28   C50   S    
C47   H14   S    
O5    V1    S    
O8    C3    A    
C54   O22   D    
C32   C39   A    
C38   I2    S    
C19   C24   A    
C18   C19   A    
C7    C8    A    
O9    V2    S    
C21   C26   A    
C41   C42   A    
O4    V1    S    
O3    V1    S    
V1    O10   S    
C13   H4    S    
C40   C41   A    
C24   C25   A    
C27   H6    S    
C40   C55   S    
O7    V2    S    
C56   H18   S    
C58   O26   D    
C35   C40   A    
O11   V4    S    
C22   I1    S    
C46   C47   A    
C8    H1    S    
C44   C45   A    
C55   H17   S    
C1    C41   S    
C13   C14   A    
O19   V4    S    
C9    H2    S    
V4    O20   S    
V2    O10   S    
