data_mof_unit_22688.cif
_audit_creation_date              2013-03-05T15:48:54-0500
_audit_creation_method            fapswitch 2.2
_symmetry_space_group_name_H-M    P1
_symmetry_Int_Tables_number       1
_space_group_crystal_system       triclinic
_cell_length_a                    18.375874
_cell_length_b                    18.373156
_cell_length_c                    50.870362
_cell_angle_alpha                 89.793932
_cell_angle_beta                  90.194591
_cell_angle_gamma                 119.698389
_cell_volume                      14918.8580824

loop_
_atom_site_label
_atom_site_type_symbol
_atom_site_description
_atom_site_fract_x
_atom_site_fract_y
_atom_site_fract_z
_atom_type_partial_charge
O1    O     O_R   0.475290 0.813700 0.278840 -0.472110
O2    O     O_R   0.475290 0.813700 0.221160 -0.445308
O3    O     O_R   0.448450 0.657720 0.276690 -0.524134
O4    O     O_R   0.448450 0.657720 0.223310 -0.485938
C1    C     C_R   0.409112 0.583989 0.287671 0.582032
C2    C     C_R   0.408659 0.584377 0.212263 0.507758
O5    O     O_R   0.338410 0.524710 0.278840 -0.428191
O6    O     O_R   0.338410 0.524710 0.221160 -0.462946
O7    O     O_R   0.209270 0.551550 0.276690 -0.490658
O8    O     O_R   0.209270 0.551550 0.223310 -0.501463
C3    C     C_R   0.175784 0.591420 0.287586 0.570572
C4    C     C_R   0.170728 0.588634 0.213381 0.545131
O9    O     O_R   0.186300 0.661590 0.278840 -0.491846
O10   O     O_R   0.186300 0.661590 0.221160 -0.423128
O11   O     O_R   0.342280 0.790730 0.276690 -0.478872
O12   O     O_R   0.342280 0.790730 0.223310 -0.471322
C5    C     C_R   0.416213 0.825984 0.287328 0.588065
C6    C     C_R   0.416096 0.825600 0.212567 0.557974
Cr1   Cr    Cr6+3 0.456550 0.732290 0.250000 1.069328
Cr2   Cr    Cr6+3 0.275740 0.543450 0.250000 1.090613
Cr3   Cr    Cr6+3 0.267710 0.724260 0.250000 1.062595
O13   O     O_3   0.333333 0.666667 0.250000 -0.275206
C7    C     C_R   0.991680 0.416310 0.399576 0.494140
C8    C     C_R   0.956857 0.487721 0.100975 0.498404
O14   O     O_2   0.002027 0.363583 0.388262 -0.384435
O15   O     O_2   0.898266 0.469608 0.115876 -0.406753
N1    N     N_R   0.003740 0.486540 0.386010 -0.405578
N2    N     N_R   0.033584 0.506071 0.111287 -0.378844
C9    C     C_R   0.984118 0.542839 0.397361 0.403872
C10   C     C_R   0.100602 0.523812 0.095165 0.500548
C11   C     C_R   0.001593 0.509859 0.337795 0.258855
C12   C     C_R   0.044570 0.577370 0.153163 0.246597
C13   C     C_R   0.046318 0.540841 0.314186 0.252240
C14   C     C_R   0.073009 0.593527 0.179435 0.196474
C15   C     C_R   0.171416 0.550981 0.335021 0.191533
C16   C     C_R   0.101524 0.477192 0.178013 0.175770
C17   C     C_R   0.127923 0.524540 0.358872 0.333040
C18   C     C_R   0.069224 0.458869 0.152414 0.312620
C19   C     C_R   0.043677 0.505033 0.360530 0.128619
C20   C     C_R   0.046585 0.512442 0.139387 0.157665
C21   C     C_R   0.956563 0.468185 0.438708 -0.146254
C22   C     C_R   0.013553 0.504653 0.056784 -0.155468
C23   C     C_R   0.969754 0.406722 0.426469 0.028542
C24   C     C_R   0.945975 0.489504 0.073482 0.041302
C25   C     C_R   0.959722 0.337469 0.441383 0.222442
C26   C     C_R   0.869517 0.476240 0.062376 0.244041
C27   C     C_R   0.953940 0.530649 0.423411 -0.012217
C28   C     C_R   0.091610 0.521572 0.067572 0.023477
C29   C     C_R   0.130438 0.559710 0.312526 -0.055250
C30   C     C_R   0.112000 0.550469 0.190702 -0.106191
C31   C     C_R   0.859179 0.426640 0.685433 -0.033564
C32   C     C_R   0.870761 0.427849 0.812580 -0.095110
C33   C     C_R   0.959994 0.414905 0.509371 -0.003443
C34   C     C_R   0.927673 0.509369 0.990471 -0.014114
C35   C     C_R   0.941129 0.538378 0.506556 0.044574
C36   C     C_R   0.048263 0.488425 0.985495 0.033248
C37   C     C_R   0.948549 0.477378 0.521812 -0.105198
C38   C     C_R   0.982968 0.497286 0.974112 -0.111917
C39   C     C_R   0.988085 0.369180 0.525069 0.326602
C40   C     C_R   0.874910 0.536036 0.978639 0.306733
C41   C     C_R   0.982148 0.368896 0.552509 0.294554
C42   C     C_R   0.862859 0.530728 0.951299 0.274809
C43   C     C_R   0.956792 0.421241 0.565019 -0.029820
C44   C     C_R   0.910891 0.508270 0.935007 -0.002119
C45   C     C_R   0.946424 0.479886 0.549724 -0.166070
C46   C     C_R   0.972897 0.493860 0.946446 -0.151873
C47   C     C_R   0.933465 0.540768 0.562309 0.025411
C48   C     C_R   0.024994 0.476240 0.930322 0.012198
C49   C     C_R   0.916972 0.533334 0.589624 0.475659
C50   C     C_R   0.012362 0.471346 0.902831 0.466563
N3    N     N_R   0.922498 0.472805 0.604196 -0.386935
N4    N     N_R   0.949014 0.481345 0.892102 -0.387063
C51   C     C_R   0.944315 0.418716 0.592482 0.446820
C52   C     C_R   0.899091 0.500259 0.907521 0.438691
C53   C     C_R   0.824314 0.388866 0.639382 0.277296
C54   C     C_R   0.867087 0.379304 0.857473 0.239064
C55   C     C_R   0.809320 0.368416 0.666052 0.270187
C56   C     C_R   0.840558 0.362321 0.831269 0.233284
C57   C     C_R   0.934116 0.499193 0.677933 0.207476
C58   C     C_R   0.937927 0.507434 0.819342 0.166780
C59   C     C_R   0.955396 0.514283 0.650923 0.292552
C60   C     C_R   0.964156 0.525141 0.845728 0.282463
C61   C     C_R   0.899012 0.460864 0.631635 0.153572
C62   C     C_R   0.927699 0.461578 0.864815 0.142714
O16   O     O_2   0.950912 0.367244 0.606046 -0.453494
O17   O     O_2   0.843290 0.508231 0.897200 -0.490684
C63   C     C_R   0.951295 0.405723 0.481595 0.033037
C64   C     C_R   0.930014 0.497820 0.018136 0.026826
C65   C     C_R   0.947858 0.468329 0.466344 -0.093263
C66   C     C_R   0.003355 0.503451 0.029194 -0.092441
C67   C     C_R   0.934998 0.530377 0.478492 0.044880
C68   C     C_R   0.066531 0.507288 0.012568 0.023137
C69   C     C_R   0.941020 0.333369 0.468475 0.254282
C70   C     C_R   0.860329 0.476080 0.034695 0.235028
O18   O     O_2   0.996483 0.605322 0.385130 -0.481841
O19   O     O_2   0.168339 0.542361 0.105043 -0.397343
C71   C     C_R   0.920013 0.577874 0.434578 0.227438
C72   C     C_R   0.159450 0.538867 0.050631 0.285126
C73   C     C_R   0.949282 0.610046 0.519772 0.273346
C74   C     C_R   0.091792 0.459271 0.969797 0.279761
C75   C     C_R   0.941558 0.609526 0.547454 0.286031
C76   C     C_R   0.085481 0.460148 0.942156 0.269272
O20   O     O_2   0.895432 0.579015 0.600337 -0.455205
O21   O     O_2   0.056017 0.456075 0.888353 -0.439181
C77   C     C_R   0.908668 0.576670 0.462258 0.360943
C78   C     C_R   0.147344 0.534584 0.023185 0.297926
C79   C     C_R   0.465089 0.037401 0.398322 0.479196
C80   C     C_R   0.465657 0.897815 0.094523 0.481737
O22   O     O_2   0.430998 0.066596 0.384627 -0.422607
O23   O     O_2   0.430365 0.827371 0.103976 -0.447120
N5    N     N_R   0.489402 0.984563 0.387166 -0.395403
N6    N     N_R   0.492605 0.966474 0.110855 -0.395031
C81   C     C_R   0.529316 0.951205 0.401778 0.433797
C82   C     C_R   0.540359 0.046882 0.101204 0.437876
C83   C     C_R   0.532700 0.979346 0.342078 -0.104802
C84   C     C_R   0.534134 0.975123 0.157293 -0.092132
C85   C     C_R   0.516280 0.938292 0.317767 0.206179
C86   C     C_R   0.514998 0.941549 0.182690 0.196114
C87   C     C_R   0.366696 0.865904 0.328031 0.192739
C88   C     C_R   0.368646 0.856300 0.169712 0.220476
C89   C     C_R   0.385165 0.902699 0.353187 0.310281
C90   C     C_R   0.386597 0.900302 0.145853 0.304225
C91   C     C_R   0.468505 0.958531 0.360225 0.153630
C92   C     C_R   0.470939 0.951969 0.138414 0.120406
C93   C     C_R   0.515397 0.019180 0.440799 -0.141499
C94   C     C_R   0.525362 0.990440 0.057031 -0.140779
C95   C     C_R   0.478064 0.056287 0.425428 -0.012462
C96   C     C_R   0.478354 0.908307 0.067221 -0.021352
C97   C     C_R   0.455753 0.111861 0.437571 0.270018
C98   C     C_R   0.446833 0.838918 0.049842 0.312087
C99   C     C_R   0.543582 0.968113 0.428875 0.074436
C100  C     C_R   0.559768 0.060484 0.074084 0.074067
C101  C     C_R   0.432877 0.878877 0.310986 -0.001093
C102  C     C_R   0.432603 0.877152 0.188551 -0.037691
C103  C     C_R   0.559759 0.134162 0.686745 -0.013999
C104  C     C_R   0.560183 0.130119 0.812828 -0.021971
C105  C     C_R   0.473060 0.063387 0.508475 0.007589
C106  C     C_R   0.481653 0.952485 0.985940 -0.024992
C107  C     C_R   0.581079 0.022275 0.510730 -0.017730
C108  C     C_R   0.604490 0.091406 0.991376 0.013810
C109  C     C_R   0.527496 0.045686 0.523476 -0.087050
C110  C     C_R   0.543655 0.028698 0.974897 -0.070753
C111  C     C_R   0.406726 0.066662 0.521535 0.306214
C112  C     C_R   0.409987 0.899830 0.970790 0.258680
C113  C     C_R   0.405336 0.069663 0.549045 0.276973
C114  C     C_R   0.408994 0.912960 0.943685 0.289825
C115  C     C_R   0.465176 0.060555 0.564123 -0.006757
C116  C     C_R   0.476734 0.983753 0.931742 -0.002821
C117  C     C_R   0.527364 0.050153 0.551238 -0.145615
C118  C     C_R   0.544153 0.042161 0.947533 -0.147367
C119  C     C_R   0.589610 0.044582 0.566061 -0.016305
C120  C     C_R   0.611929 0.113849 0.936095 -0.008516
C121  C     C_R   0.595710 0.062877 0.593144 0.467147
C122  C     C_R   0.611080 0.125427 0.908665 0.432000
N7    N     N_R   0.531044 0.065733 0.605924 -0.362692
N8    N     N_R   0.545045 0.068391 0.893588 -0.382561
C123  C     C_R   0.464031 0.060209 0.591822 0.436677
C124  C     C_R   0.478281 0.999008 0.904528 0.468141
C125  C     C_R   0.529889 0.153200 0.641690 -0.077612
C126  C     C_R   0.513613 0.134678 0.857110 -0.096350
C127  C     C_R   0.534746 0.174334 0.668085 0.243849
C128  C     C_R   0.518976 0.156587 0.830612 0.216419
C129  C     C_R   0.563204 0.061469 0.679354 0.145459
C130  C     C_R   0.582896 0.070185 0.821268 0.185438
C131  C     C_R   0.553291 0.037531 0.652504 0.353208
C132  C     C_R   0.578128 0.049839 0.848114 0.366509
C133  C     C_R   0.538063 0.085127 0.633663 0.161585
C134  C     C_R   0.544790 0.083594 0.865926 0.162872
O24   O     O_2   0.404011 0.055866 0.603520 -0.478025
O25   O     O_2   0.420466 0.950979 0.890415 -0.452784
C135  C     C_R   0.483614 0.071547 0.480758 0.030789
C136  C     C_R   0.490371 0.934623 0.012477 -0.015637
C137  C     C_R   0.522999 0.031733 0.468319 -0.051615
C138  C     C_R   0.536268 0.002532 0.029555 -0.037965
C139  C     C_R   0.567694 0.002234 0.483528 -0.004653
C140  C     C_R   0.590901 0.082595 0.019047 0.027884
C141  C     C_R   0.457813 0.118967 0.465299 0.281662
C142  C     C_R   0.454096 0.852071 0.022649 0.276196
H1    H     H_    0.518742 0.190055 0.627235 0.174873
H2    H     H_    0.487146 0.159493 0.871084 0.173994
O26   O     O_2   0.550637 0.905202 0.391118 -0.446324
O27   O     O_2   0.564652 0.106218 0.116212 -0.439321
C143  C     C_R   0.582164 0.932742 0.444484 0.247000
C144  C     C_R   0.610058 0.141802 0.063416 0.249518
H3    H     H_    0.596181 0.024875 0.347565 0.151873
H4    H     H_    0.599021 0.015695 0.151895 0.186951
C145  C     C_R   0.644567 0.018564 0.525734 0.291917
C146  C     C_R   0.675843 0.159643 0.979842 0.288885
C147  C     C_R   0.646876 0.026452 0.553087 0.272045
C148  C     C_R   0.679374 0.170421 0.952252 0.242294
O28   O     O_2   0.659931 0.080110 0.605132 -0.492645
O29   O     O_2   0.668483 0.186515 0.898032 -0.446541
C149  C     C_R   0.593482 0.950124 0.471446 -0.115743
C150  C     C_R   0.625600 0.151547 0.036211 -0.096675
H5    H     H_    0.617547 0.917446 0.483042 0.168131
H6    H     H_    0.660125 0.214334 0.028486 0.129500
C151  C     C_R   0.546169 0.488927 0.397211 0.486428
C152  C     C_R   0.570354 0.619114 0.097339 0.483051
O30   O     O_2   0.608807 0.518933 0.383458 -0.409764
O31   O     O_2   0.585471 0.686046 0.106944 -0.415741
N9    N     N_R   0.473435 0.483222 0.387398 -0.393579
N10   N     N_R   0.536549 0.548250 0.112941 -0.392447
C153  C     C_R   0.400316 0.445376 0.401765 0.436682
C154  C     C_R   0.524170 0.472893 0.103180 0.443597
C155  C     C_R   0.446820 0.459853 0.340083 -0.104638
C156  C     C_R   0.420090 0.522478 0.141841 -0.064049
C157  C     C_R   0.431839 0.484369 0.315354 0.200041
C158  C     C_R   0.388094 0.533440 0.165396 0.188432
C159  C     C_R   0.476446 0.623899 0.333003 0.180447
C160  C     C_R   0.529104 0.596832 0.184555 0.209527
C161  C     C_R   0.486082 0.596467 0.358049 0.363684
C162  C     C_R   0.560103 0.587776 0.160160 0.365484
C163  C     C_R   0.471785 0.514474 0.361450 0.170286
C164  C     C_R   0.505495 0.551298 0.138743 0.127574
C165  C     C_R   0.476462 0.432049 0.439042 -0.156733
C166  C     C_R   0.561130 0.534411 0.059480 -0.149578
C167  C     C_R   0.548169 0.460513 0.423032 0.029091
C168  C     C_R   0.584277 0.613719 0.070255 0.027621
C169  C     C_R   0.618048 0.456477 0.432952 0.223999
C170  C     C_R   0.620768 0.684865 0.053646 0.214992
C171  C     C_R   0.400613 0.420356 0.428043 0.006480
C172  C     C_R   0.538375 0.465130 0.076259 0.019719
C173  C     C_R   0.443531 0.565872 0.311834 0.014925
C174  C     C_R   0.442254 0.570354 0.187377 -0.049524
C175  C     C_R   0.572835 0.434273 0.685566 -0.036427
C176  C     C_R   0.568648 0.439088 0.813505 -0.030426
C177  C     C_R   0.561959 0.415984 0.504909 0.059450
C178  C     C_R   0.559820 0.579099 0.987802 0.059206
C179  C     C_R   0.417950 0.391117 0.510031 0.055807
C180  C     C_R   0.525163 0.432174 0.993321 0.048511
C181  C     C_R   0.492388 0.398919 0.521164 -0.095140
C182  C     C_R   0.538991 0.500323 0.976756 -0.100425
C183  C     C_R   0.638306 0.434108 0.517563 0.283104
C184  C     C_R   0.552202 0.638568 0.971809 0.301632
C185  C     C_R   0.637927 0.411062 0.544180 0.262937
C186  C     C_R   0.540207 0.625897 0.944388 0.282718
C187  C     C_R   0.569142 0.394661 0.560291 -0.005342
C188  C     C_R   0.535834 0.554108 0.932681 0.005407
C189  C     C_R   0.498285 0.392822 0.548864 -0.173220
C190  C     C_R   0.529356 0.488931 0.949064 -0.168592
C191  C     C_R   0.431220 0.380013 0.565160 -0.030747
C192  C     C_R   0.512652 0.412021 0.937788 -0.013365
C193  C     C_R   0.436563 0.368140 0.592287 0.454119
C194  C     C_R   0.516115 0.406454 0.910100 0.483470
N11   N     N_R   0.513630 0.393029 0.603843 -0.395760
N12   N     N_R   0.528817 0.472932 0.894216 -0.349193
C195  C     C_R   0.571425 0.386334 0.587973 0.460603
C196  C     C_R   0.534277 0.544225 0.905032 0.481172
C197  C     C_R   0.619774 0.467726 0.640173 0.306123
C198  C     C_R   0.617165 0.521422 0.854251 0.258765
C199  C     C_R   0.638396 0.469603 0.667114 0.282478
C200  C     C_R   0.633584 0.504100 0.828359 0.225296
C201  C     C_R   0.492711 0.414634 0.677366 -0.220538
C202  C     C_R   0.488098 0.395141 0.824646 -0.175341
C203  C     C_R   0.473868 0.414239 0.650507 0.215846
C204  C     C_R   0.473328 0.407835 0.850883 0.245965
C205  C     C_R   0.534552 0.423368 0.631339 0.175917
C206  C     C_R   0.539257 0.468306 0.866107 0.248303
O32   O     O_2   0.623048 0.371060 0.597842 -0.399693
O33   O     O_2   0.538712 0.599295 0.890488 -0.464728
C207  C     C_R   0.555080 0.422482 0.476973 0.065008
C208  C     C_R   0.578786 0.592860 0.015135 0.064657
C209  C     C_R   0.480846 0.416082 0.466209 -0.103622
C210  C     C_R   0.559000 0.523955 0.031809 -0.093310
C211  C     C_R   0.409481 0.390143 0.482205 0.052516
C212  C     C_R   0.539348 0.445447 0.021006 0.062138
C213  C     C_R   0.615806 0.426798 0.458920 0.280803
C214  C     C_R   0.624027 0.674055 0.026170 0.276971
O34   O     O_2   0.335282 0.434285 0.391573 -0.430316
O35   O     O_2   0.498940 0.412456 0.117862 -0.468804
C215  C     C_R   0.326807 0.381322 0.443354 0.270763
C216  C     C_R   0.531900 0.391093 0.065610 0.265531
H7    H     H_    0.435634 0.396733 0.343106 0.138672
H8    H     H_    0.378550 0.495468 0.125135 0.184024
C217  C     C_R   0.357523 0.392923 0.527006 0.302435
C218  C     C_R   0.487880 0.351133 0.981945 0.287224
C219  C     C_R   0.362542 0.383976 0.554408 0.277340
C220  C     C_R   0.491142 0.342481 0.954412 0.262293
O36   O     O_2   0.372107 0.328841 0.604773 -0.403920
O37   O     O_2   0.509611 0.343173 0.900060 -0.434448
C221  C     C_R   0.330702 0.358675 0.469648 0.294279
C222  C     C_R   0.542332 0.385975 0.038195 0.291171
H9    H     H_    0.444010 0.397756 0.691944 0.118437
H10   H     H_    0.436737 0.347907 0.813244 0.134949
O38   O     O_R   0.524710 0.338410 0.721160 -0.499489
O39   O     O_R   0.524710 0.338410 0.778840 -0.504495
O40   O     O_R   0.551550 0.209270 0.723310 -0.459456
O41   O     O_R   0.551550 0.209270 0.776690 -0.460746
C223  C     C_R   0.590531 0.174975 0.712514 0.575719
C224  C     C_R   0.590785 0.174624 0.787483 0.562206
O42   O     O_R   0.661590 0.186300 0.721160 -0.503444
O43   O     O_R   0.661590 0.186300 0.778840 -0.497769
O44   O     O_R   0.790730 0.342280 0.723310 -0.472376
O45   O     O_R   0.790730 0.342280 0.776690 -0.471704
C225  C     C_R   0.824956 0.415957 0.712372 0.604911
C226  C     C_R   0.825317 0.415575 0.787475 0.570586
O46   O     O_R   0.813700 0.475290 0.721160 -0.505705
O47   O     O_R   0.813700 0.475290 0.778840 -0.480812
O48   O     O_R   0.657720 0.448450 0.723310 -0.468422
O49   O     O_R   0.657720 0.448450 0.776690 -0.453410
C227  C     C_R   0.584672 0.408221 0.712083 0.587786
C228  C     C_R   0.584172 0.408731 0.787906 0.576727
Cr4   Cr    Cr6+3 0.543450 0.275740 0.750000 1.047592
Cr5   Cr    Cr6+3 0.724260 0.267710 0.750000 1.048900
Cr6   Cr    Cr6+3 0.732290 0.456550 0.750000 1.064494
O50   O     O_3   0.666667 0.333333 0.750000 -0.246337
O51   O     O_3   0.254133 0.569492 0.334933 -0.653042
H11   H     H_    0.283776 0.605706 0.319745 0.330751
O52   O     O_3   0.123746 0.423126 0.189612 -0.601290
H12   H     H_    0.107805 0.417921 0.208394 0.329773
O53   O     O_3   0.917039 0.484169 0.337767 -0.640899
H13   H     H_    0.891274 0.453606 0.354264 0.347730
O54   O     O_3   0.019173 0.626770 0.139843 -0.635371
H14   H     H_    0.022893 0.671463 0.151511 0.371872
O55   O     O_3   0.891290 0.619568 0.418762 -0.680607
H15   H     H_    0.868008 0.586907 0.402405 0.377106
O56   O     O_3   0.237174 0.560915 0.061273 -0.609697
H16   H     H_    0.276349 0.564526 0.047361 0.367616
O57   O     O_3   0.975502 0.683310 0.505710 -0.711867
H17   H     H_    0.967842 0.724220 0.516216 0.353684
O58   O     O_3   0.134594 0.424083 0.981981 -0.634568
H18   H     H_    0.153173 0.397231 0.968811 0.364382
O59   O     O_3   0.994220 0.544658 0.696762 -0.544834
C229  C     C_3   0.986603 0.613639 0.705301 -0.098101
H19   H     H_    0.953748 0.634082 0.691205 0.080118
H20   H     H_    0.050405 0.667634 0.708352 0.130877
H21   H     H_    0.954946 0.599470 0.724662 0.157530
O60   O     O_3   0.973396 0.570578 0.800751 -0.555624
C230  C     C_3   0.032241 0.559462 0.786174 -0.078717
H22   H     H_    0.001607 0.499651 0.774972 0.109734
H23   H     H_    0.082554 0.562134 0.799094 0.150582
H24   H     H_    0.062246 0.611247 0.771683 0.145184
O61   O     O_3   0.945077 0.678098 0.559933 -0.537881
C231  C     C_3   0.028788 0.732944 0.567567 -0.101446
H25   H     H_    0.070431 0.759596 0.550189 0.118742
H26   H     H_    0.053377 0.701508 0.580668 0.116827
H27   H     H_    0.030935 0.785807 0.578677 0.158836
O62   O     O_3   0.135436 0.440482 0.926836 -0.519671
C232  C     C_3   0.214995 0.512777 0.924468 -0.096455
H28   H     H_    0.247639 0.531847 0.943787 0.116647
H29   H     H_    0.210460 0.565842 0.915541 0.121843
H30   H     H_    0.253914 0.498245 0.911234 0.162795
O63   O     O_3   0.035389 0.573825 0.643302 -0.519200
C233  C     C_3   0.043639 0.654437 0.643330 -0.069377
H31   H     H_    0.079942 0.689499 0.660841 0.135383
H32   H     H_    0.983206 0.654956 0.642559 0.129466
H33   H     H_    0.080650 0.689071 0.625874 0.131766
O64   O     O_3   0.028986 0.603184 0.852845 -0.517838
C234  C     C_3   0.998175 0.659658 0.854774 -0.083775
H34   H     H_    0.943651 0.636260 0.868267 0.146661
H35   H     H_    0.981377 0.673825 0.835167 0.152817
H36   H     H_    0.048398 0.719455 0.863005 0.150885
O65   O     O_3   0.854915 0.601427 0.473368 -0.506892
C235  C     C_3   0.869281 0.680481 0.464472 0.008429
H37   H     H_    0.824412 0.672268 0.448545 0.184808
H38   H     H_    0.935181 0.723020 0.458196 0.165015
H39   H     H_    0.856164 0.711750 0.480922 0.137766
O66   O     O_3   0.216205 0.561347 0.006885 -0.549634
C236  C     C_3   0.241247 0.643394 0.998265 -0.066105
H40   H     H_    0.261768 0.687702 0.015120 0.202208
H41   H     H_    0.190899 0.646644 0.987020 0.096055
H42   H     H_    0.295022 0.663469 0.984726 0.193100
O67   O     O_3   0.284463 0.810125 0.321412 -0.553257
C237  C     C_3   0.246726 0.856279 0.312395 -0.059013
H43   H     H_    0.280564 0.895921 0.295111 0.107704
H44   H     H_    0.242718 0.895545 0.328294 0.170392
H45   H     H_    0.181894 0.811689 0.306008 0.133421
O68   O     O_3   0.290347 0.786731 0.172983 -0.499925
C238  C     C_3   0.291909 0.717225 0.161693 -0.004211
H46   H     H_    0.321032 0.692091 0.175514 0.082360
H47   H     H_    0.324658 0.731432 0.142389 0.191978
H48   H     H_    0.227071 0.667547 0.157698 0.156356
O69   O     O_3   0.321755 0.885705 0.370920 -0.515865
C239  C     C_3   0.296947 0.807669 0.382927 -0.092618
H49   H     H_    0.351131 0.804531 0.391571 0.101876
H50   H     H_    0.262675 0.755740 0.368759 0.156450
H51   H     H_    0.253285 0.798802 0.399207 0.147315
O70   O     O_3   0.322524 0.878144 0.127817 -0.499873
C240  C     C_3   0.308925 0.946627 0.124351 -0.079717
H52   H     H_    0.363653 0.000641 0.114936 0.123081
H53   H     H_    0.293699 0.966018 0.143333 0.127762
H54   H     H_    0.254417 0.927166 0.111062 0.153717
O71   O     O_3   0.428545 0.156876 0.422593 -0.524332
C241  C     C_3   0.498963 0.233731 0.415410 -0.077261
H55   H     H_    0.533528 0.270513 0.432974 0.114937
H56   H     H_    0.477148 0.271446 0.404306 0.162217
H57   H     H_    0.541974 0.223914 0.402446 0.148021
O72   O     O_3   0.402510 0.757375 0.059101 -0.484616
C242  C     C_3   0.458168 0.725864 0.061991 -0.024689
H58   H     H_    0.510714 0.765383 0.075526 0.176629
H59   H     H_    0.482812 0.719990 0.042661 0.159487
H60   H     H_    0.423650 0.662282 0.070767 0.168064
O73   O     O_3   0.166915 0.513973 0.380708 -0.476079
C243  C     C_3   0.211949 0.591323 0.393787 -0.106879
H61   H     H_    0.172634 0.620674 0.397736 0.107677
H62   H     H_    0.268758 0.634616 0.382467 0.130386
H63   H     H_    0.233085 0.580407 0.413082 0.106724
O74   O     O_3   0.067568 0.392478 0.139192 -0.472898
C244  C     C_3   0.985565 0.323650 0.140513 -0.065448
H64   H     H_    0.940031 0.337117 0.130200 0.132947
H65   H     H_    0.965793 0.304791 0.161252 0.135802
H66   H     H_    0.984490 0.269619 0.130484 0.163530
O75   O     O_3   0.518607 0.237255 0.675562 -0.524327
C245  C     C_3   0.432780 0.209778 0.671107 -0.085081
H67   H     H_    0.391082 0.142562 0.676370 0.106466
H68   H     H_    0.422328 0.221114 0.650321 0.154624
H69   H     H_    0.413438 0.246013 0.683776 0.156343
O76   O     O_3   0.490469 0.210080 0.822685 -0.523213
C246  C     C_3   0.402431 0.163035 0.820406 -0.086332
H70   H     H_    0.372506 0.143716 0.840074 0.132042
H71   H     H_    0.382071 0.107215 0.807549 0.106160
H72   H     H_    0.379608 0.202597 0.811108 0.131719
O77   O     O_3   0.342757 0.078696 0.561003 -0.505912
C247  C     C_3   0.368743 0.164925 0.562051 -0.036585
H73   H     H_    0.376356 0.192281 0.542010 0.157803
H74   H     H_    0.427954 0.200254 0.573460 0.110642
H75   H     H_    0.319779 0.172717 0.572240 0.183374
O78   O     O_3   0.337642 0.860272 0.929506 -0.502387
C248  C     C_3   0.340448 0.787110 0.923075 -0.068049
H76   H     H_    0.340062 0.751835 0.940938 0.106847
H77   H     H_    0.396046 0.802276 0.910722 0.138965
H78   H     H_    0.283794 0.745420 0.911430 0.150093
O79   O     O_3   0.339448 0.062182 0.507827 -0.498346
C249  C     C_3   0.281547 0.977202 0.502861 -0.074246
H79   H     H_    0.257887 0.941106 0.521495 0.130258
H80   H     H_    0.309137 0.947995 0.490130 0.098901
H81   H     H_    0.227051 0.973566 0.492227 0.165613
O80   O     O_3   0.338469 0.836469 0.982374 -0.560490
C250  C     C_3   0.290903 0.871104 0.992439 -0.097246
H82   H     H_    0.272054 0.900362 0.976576 0.150648
H83   H     H_    0.325403 0.917462 0.008223 0.117143
H84   H     H_    0.232803 0.819919 0.001249 0.129466
O81   O     O_3   0.442796 0.177383 0.477592 -0.654920
H85   H     H_    0.418718 0.200885 0.464987 0.364871
O82   O     O_3   0.430467 0.783058 0.006804 -0.668191
H86   H     H_    0.462093 0.801678 0.990098 0.329845
O83   O     O_3   0.580081 0.959149 0.299677 -0.553248
C251  C     C_3   0.643660 0.946430 0.310626 -0.066465
H87   H     H_    0.617993 0.887242 0.322228 0.162358
H88   H     H_    0.686983 0.000829 0.322862 0.134281
H89   H     H_    0.680964 0.941527 0.294335 0.153549
O84   O     O_3   0.579761 0.964298 0.200439 -0.521384
C252  C     C_3   0.580206 0.024502 0.217632 -0.073058
H90   H     H_    0.521328 0.998248 0.229277 0.116720
H91   H     H_    0.590550 0.081540 0.206743 0.121537
H92   H     H_    0.632758 0.043774 0.231731 0.173142
O85   O     O_3   0.607548 0.880482 0.433245 -0.630329
H93   H     H_    0.633911 0.862005 0.446784 0.324229
O86   O     O_3   0.643353 0.211096 0.079708 -0.604793
H94   H     H_    0.677518 0.262539 0.069203 0.328342
O87   O     O_3   0.706685 0.008309 0.514071 -0.558621
C253  C     C_3   0.771183 0.087525 0.505984 -0.047744
H95   H     H_    0.799387 0.130602 0.523008 0.195230
H96   H     H_    0.748243 0.115895 0.491052 0.118721
H97   H     H_    0.821307 0.079445 0.496749 0.171931
O88   O     O_3   0.747454 0.203499 0.995154 -0.541542
C254  C     C_3   0.780791 0.291035 0.993195 -0.078938
H98   H     H_    0.733021 0.309726 0.988397 0.113402
H99   H     H_    0.832806 0.318176 0.978770 0.186490
H100  H     H_    0.808442 0.318564 0.012512 0.154413
O89   O     O_3   0.573922 0.011813 0.697668 -0.706214
H101  H     H_    0.564735 0.026668 0.715558 0.326274
O90   O     O_3   0.609876 0.030605 0.804043 -0.683260
H102  H     H_    0.590119 0.033306 0.786119 0.327137
O91   O     O_3   0.968283 0.274749 0.429379 -0.633561
H103  H     H_    0.986688 0.247745 0.442712 0.339978
O92   O     O_3   0.804900 0.465009 0.078804 -0.628519
H104  H     H_    0.770144 0.484906 0.069734 0.342898
O93   O     O_3   0.705145 0.013798 0.566444 -0.614173
H105  H     H_    0.676883 0.978363 0.581979 0.342012
O94   O     O_3   0.751336 0.233544 0.941241 -0.647677
H106  H     H_    0.737444 0.277140 0.935757 0.322251
O95   O     O_3   0.550266 0.963942 0.644412 -0.524218
C255  C     C_3   0.624753 0.963376 0.651116 -0.021783
H107  H     H_    0.615470 0.927176 0.669509 0.173860
H108  H     H_    0.680696 0.027101 0.653018 0.132817
H109  H     H_    0.638603 0.930562 0.635323 0.128372
O96   O     O_3   0.600463 0.992317 0.856973 -0.511803
C256  C     C_3   0.688489 0.032001 0.858990 -0.065800
H110  H     H_    0.715260 0.091793 0.870174 0.165125
H111  H     H_    0.717762 0.043101 0.839252 0.147619
H112  H     H_    0.705135 0.989768 0.869822 0.147624
O97   O     O_3   0.495335 0.706073 0.330443 -0.686982
H113  H     H_    0.525956 0.727603 0.313729 0.344332
O98   O     O_3   0.585909 0.631861 0.204922 -0.650290
H114  H     H_    0.555877 0.614624 0.221891 0.330517
O99   O     O_3   0.515349 0.651442 0.379046 -0.501551
C257  C     C_3   0.449139 0.661054 0.389125 -0.048092
H115  H     H_    0.394376 0.599849 0.394723 0.124668
H116  H     H_    0.429522 0.694387 0.375004 0.179367
H117  H     H_    0.471407 0.699782 0.407175 0.163899
O100  O     O_3   0.645134 0.619270 0.156827 -0.485797
C258  C     C_3   0.664530 0.556561 0.163911 -0.052263
H118  H     H_    0.630679 0.500061 0.151314 0.160503
H119  H     H_    0.650802 0.539116 0.185019 0.143934
H120  H     H_    0.732593 0.581458 0.160936 0.164459
O101  O     O_3   0.685797 0.477307 0.416747 -0.654056
H121  H     H_    0.735491 0.491570 0.427824 0.350129
O102  O     O_3   0.653590 0.763856 0.064500 -0.656755
H122  H     H_    0.652529 0.802577 0.051087 0.325707
O103  O     O_3   0.720477 0.499616 0.674874 -0.511865
C259  C     C_3   0.755441 0.585205 0.681195 -0.085506
H123  H     H_    0.714995 0.597179 0.694745 0.091128
H124  H     H_    0.768818 0.623705 0.663105 0.128481
H125  H     H_    0.815685 0.606009 0.691478 0.133036
O104  O     O_3   0.711997 0.551784 0.817316 -0.565354
C260  C     C_3   0.769071 0.532889 0.829928 -0.067959
H126  H     H_    0.747255 0.464601 0.829188 0.136823
H127  H     H_    0.781606 0.554850 0.850570 0.180818
H128  H     H_    0.829647 0.567310 0.819553 0.167766
O105  O     O_3   0.686531 0.508358 0.623009 -0.473929
C261  C     C_3   0.684135 0.577248 0.611552 -0.079833
H129  H     H_    0.680903 0.619146 0.626701 0.069039
H130  H     H_    0.630913 0.556560 0.597593 0.111830
H131  H     H_    0.742676 0.614577 0.600215 0.195860
O106  O     O_3   0.679038 0.584611 0.869342 -0.551401
C262  C     C_3   0.701303 0.663660 0.858335 -0.048036
H132  H     H_    0.646940 0.666667 0.849733 0.148587
H133  H     H_    0.751080 0.681651 0.843350 0.146455
H134  H     H_    0.727491 0.711178 0.874190 0.164009
O107  O     O_3   0.709389 0.416235 0.555188 -0.537572
C263  C     C_3   0.716020 0.346864 0.546504 -0.090216
H135  H     H_    0.726958 0.349521 0.524936 0.150053
H136  H     H_    0.659547 0.286570 0.551960 0.135812
H137  H     H_    0.770674 0.348246 0.556265 0.145263
O108  O     O_3   0.532434 0.684207 0.929127 -0.527875
C264  C     C_3   0.446520 0.658883 0.926930 -0.106348
H138  H     H_    0.420722 0.664514 0.946086 0.102532
H139  H     H_    0.409104 0.593811 0.919314 0.127627
H140  H     H_    0.439632 0.700588 0.912609 0.145071
O109  O     O_3   0.713538 0.482875 0.504757 -0.610645
H141  H     H_    0.760989 0.500364 0.517134 0.363189
O110  O     O_3   0.547033 0.703503 0.983717 -0.659227
H142  H     H_    0.554010 0.746154 0.970513 0.357958
O111  O     O_3   0.745285 0.290122 0.673159 -0.507497
C265  C     C_3   0.775851 0.233363 0.670542 -0.058069
H143  H     H_    0.833753 0.253201 0.682401 0.102598
H144  H     H_    0.787363 0.225126 0.649596 0.185238
H145  H     H_    0.728595 0.171164 0.677959 0.149802
O112  O     O_3   0.778307 0.282529 0.824635 -0.499376
C266  C     C_3   0.816415 0.233591 0.819577 -0.055087
H146  H     H_    0.843922 0.223322 0.837761 0.145008
H147  H     H_    0.865013 0.262061 0.803961 0.095685
H148  H     H_    0.767969 0.171364 0.812393 0.168518
O113  O     O_3   0.664093 0.391009 0.465766 -0.654621
H149  H     H_    0.682917 0.374886 0.449692 0.318940
O114  O     O_3   0.677634 0.739911 0.010173 -0.653778
H150  H     H_    0.723784 0.783017 0.020941 0.337001
O115  O     O_3   0.404494 0.429248 0.294431 -0.655700
H151  H     H_    0.399449 0.375262 0.300135 0.334898
O116  O     O_3   0.304272 0.510337 0.165513 -0.602717
H152  H     H_    0.295314 0.545990 0.178096 0.342825
O117  O     O_3   0.249977 0.360757 0.432337 -0.511282
C267  C     C_3   0.229288 0.422171 0.439812 -0.062214
H153  H     H_    0.276230 0.485134 0.432317 0.126279
H154  H     H_    0.223942 0.424593 0.461496 0.096820
H155  H     H_    0.167625 0.405982 0.431123 0.196347
O118  O     O_3   0.524337 0.327759 0.082204 -0.512025
C268  C     C_3   0.442781 0.258512 0.079672 -0.058040
H156  H     H_    0.431703 0.230495 0.059703 0.138248
H157  H     H_    0.394301 0.276021 0.084372 0.140819
H158  H     H_    0.435694 0.209581 0.093924 0.165853
O119  O     O_3   0.300496 0.413843 0.516703 -0.700739
H159  H     H_    0.258539 0.406331 0.530109 0.339536
O120  O     O_3   0.440989 0.281665 0.997656 -0.664111
H160  H     H_    0.408704 0.231168 0.986695 0.355350
O121  O     O_3   0.301276 0.382078 0.570699 -0.543248
C269  C     C_3   0.328213 0.463984 0.579925 -0.103700
H161  H     H_    0.340364 0.508594 0.563454 0.098507
H162  H     H_    0.385037 0.487212 0.592486 0.166391
H163  H     H_    0.277745 0.462622 0.592182 0.145116
O122  O     O_3   0.462489 0.263804 0.943639 -0.526048
C270  C     C_3   0.524421 0.240553 0.947108 -0.096734
H164  H     H_    0.536043 0.234330 0.968259 0.124477
H165  H     H_    0.584004 0.285564 0.937223 0.125555
H166  H     H_    0.501572 0.178458 0.937856 0.150691
O123  O     O_3   0.400875 0.413169 0.643371 -0.643867
H167  H     H_    0.367764 0.408642 0.659269 0.325911
O124  O     O_3   0.395497 0.360849 0.862307 -0.642311
H168  H     H_    0.356348 0.320433 0.849217 0.320810
O125  O     O_3   0.259211 0.300797 0.482767 -0.647354
H169  H     H_    0.210406 0.277625 0.470735 0.360142
O126  O     O_3   0.563324 0.328861 0.028156 -0.676414
H170  H     H_    0.575443 0.300428 0.042681 0.342302
O127  O     O_3   0.766271 0.334421 0.621479 -0.612044
H171  H     H_    0.776886 0.361969 0.604082 0.362030
O128  O     O_3   0.829822 0.314199 0.875366 -0.611714
H172  H     H_    0.855292 0.332798 0.892949 0.354189
O129  O     O_3   0.998370 0.314213 0.566847 -0.479684
C271  C     C_3   0.083494 0.355504 0.574500 -0.028494
H173  H     H_    0.107160 0.421510 0.580852 0.092558
H174  H     H_    0.122978 0.353352 0.558437 0.145362
H175  H     H_    0.090433 0.321434 0.591498 0.183302
O130  O     O_3   0.810524 0.556802 0.940393 -0.502376
C272  C     C_3   0.726966 0.491511 0.942809 -0.037627
H176  H     H_    0.705523 0.483109 0.963573 0.155373
H177  H     H_    0.718043 0.431281 0.934773 0.112116
H178  H     H_    0.686981 0.508963 0.931115 0.165691
O131  O     O_3   0.025266 0.326565 0.514277 -0.487323
C273  C     C_3   0.105697 0.385037 0.504909 -0.105486
H179  H     H_    0.143380 0.433445 0.519857 0.077100
H180  H     H_    0.102193 0.416302 0.486638 0.094790
H181  H     H_    0.139046 0.350517 0.500035 0.196566
O132  O     O_3   0.837660 0.571977 0.993305 -0.497426
C274  C     C_3   0.896917 0.656960 0.997582 -0.073487
H182  H     H_    0.866225 0.686182 0.008699 0.163138
H183  H     H_    0.919578 0.691612 0.978670 0.135992
H184  H     H_    0.950667 0.663741 0.009586 0.101885
O133  O     O_3   0.906193 0.258177 0.481936 -0.679514
H185  H     H_    0.881827 0.211469 0.469167 0.320959
O134  O     O_3   0.781944 0.445539 0.023450 -0.681156
H186  H     H_    0.738931 0.404837 0.035614 0.328669
O135  O     O_3   0.005537 0.544912 0.291759 -0.532690
C275  C     C_3   0.996362 0.616647 0.293132 -0.055077
H187  H     H_    0.057191 0.674508 0.296834 0.116370
H188  H     H_    0.950150 0.609488 0.308393 0.190612
H189  H     H_    0.972351 0.624694 0.273941 0.120310
O136  O     O_3   0.070871 0.657804 0.192835 -0.521768
C276  C     C_3   0.000354 0.622243 0.209481 -0.094876
H190  H     H_    0.004841 0.580373 0.224492 0.135375
H191  H     H_    0.941226 0.587566 0.197995 0.126060
H192  H     H_    0.997771 0.673516 0.220113 0.146947

loop_
_geom_bond_atom_site_label_1
_geom_bond_atom_site_label_2
_geom_bond_distance
_ccdc_geom_bond_type
C150  H6    1.077481 S    
O121  C269  1.412566 S    
C43   C45   1.413882 A    
N9    C153  1.378487 Am   
C254  H98   1.115639 S    
C98   O72   1.384999 S    
O109  H141  0.989986 S    
C265  H145  1.103745 S    
O131  C273  1.411911 S    
C85   C101  1.414524 A    
C186  O108  1.384103 S    
C211  C221  1.415996 A    
C104  C128  1.414552 A    
O83   C251  1.412456 S    
C135  C137  1.410783 A    
C111  O79   1.383893 S    
O77   C247  1.411280 S    
C72   O56   1.385675 S    
O10   Cr3   2.001653 S    
C129  C131  1.419633 A    
N6    C92   1.445990 S    
C260  H127  1.108088 S    
O136  C276  1.409843 S    
N2    C20   1.444040 S    
C198  C200  1.424122 A    
C7    C23   1.413036 A    
C269  H161  1.112969 S    
C275  H189  1.109184 S    
C40   C42   1.403715 A    
O127  H171  0.988734 S    
O46   Cr6   2.002449 S    
C151  O30   1.221535 D    
C76   O62   1.384233 S    
C42   C44   1.415774 A    
C247  H75   1.109070 S    
C123  O24   1.222241 D    
O114  H150  0.990441 S    
N7    C133  1.446231 S    
C229  H19   1.113361 S    
C192  C194  1.416501 A    
O40   C223  1.290016 A    
O3    Cr1   1.878465 S    
C266  H147  1.114065 S    
C94   C138  1.413755 A    
C238  H48   1.102759 S    
C71   C77   1.422654 A    
C156  C164  1.394946 A    
C49   O20   1.221495 D    
C175  C199  1.407930 A    
C74   O58   1.385062 S    
C162  O100  1.382107 S    
C247  H74   1.113848 S    
C21   C23   1.413839 A    
C152  C168  1.414929 A    
C267  H154  1.110786 S    
O42   Cr5   2.003350 S    
C165  C171  1.414496 A    
O68   C238  1.415362 S    
C24   C26   1.417352 A    
C2    C174  1.488392 S    
C216  C222  1.418154 A    
C177  C183  1.423383 A    
C188  C190  1.412453 A    
C83   C91   1.395670 A    
O119  H159  0.987910 S    
C217  O119  1.383656 S    
O39   Cr4   2.001320 S    
C245  H68   1.111326 S    
C248  H78   1.109220 S    
C57   O59   1.385443 S    
C193  O36   1.217423 D    
N3    C51   1.379878 Am   
C159  O97   1.377148 S    
O104  C260  1.409494 S    
O93   H105  0.991029 S    
C267  H155  1.109685 S    
C12   C14   1.411297 A    
C185  O107  1.385195 S    
C270  H166  1.107817 S    
O81   H85   0.989315 S    
C3    C29   1.471128 S    
C77   O65   1.397422 S    
C66   C68   1.411805 A    
C108  C140  1.425012 A    
C261  H129  1.113524 S    
O9    Cr3   2.003026 S    
N5    C81   1.380080 Am   
C32   C226  1.479005 S    
O44   Cr5   1.884723 S    
C180  C182  1.421618 A    
C114  O78   1.384719 S    
N4    C62   1.439171 S    
C161  O99   1.384154 S    
C68   C78   1.416698 A    
C73   C75   1.415363 A    
C197  C199  1.407834 A    
C60   C62   1.405861 A    
C258  H119  1.112911 S    
C5    C101  1.482457 S    
C242  H58   1.112653 S    
C254  H100  1.106865 S    
C85   O83   1.388457 S    
C192  C220  1.413499 A    
O71   C241  1.410970 S    
C183  O109  1.383081 S    
C69   O133  1.381002 S    
O116  H152  0.988170 S    
C60   O64   1.383660 S    
C201  C203  1.407548 A    
C74   C76   1.411164 A    
C104  C130  1.421938 A    
C244  H65   1.113720 S    
O118  C268  1.411319 S    
C248  H77   1.112344 S    
O2    Cr1   1.996382 S    
C103  C129  1.420128 A    
O48   Cr6   1.878834 S    
C108  C110  1.415710 A    
O106  C262  1.413241 S    
C241  H56   1.109425 S    
C90   O70   1.383541 S    
O73   C243  1.408856 S    
C158  O116  1.380200 S    
C72   C78   1.409362 A    
C269  H163  1.109179 S    
N8    C124  1.374704 Am   
C125  C127  1.389323 A    
C79   C95   1.413421 A    
C34   C64   1.426161 A    
C222  O126  1.384578 S    
C3    O9    1.283373 A    
C231  H27   1.109130 S    
C255  H107  1.109542 S    
O45   C226  1.293575 A    
C70   O134  1.383008 S    
C229  H21   1.108207 S    
C257  H115  1.112063 S    
C84   C86   1.398468 A    
C156  C158  1.394958 A    
O124  H168  0.991646 S    
C126  C134  1.392220 A    
O125  H169  0.989952 S    
C89   C91   1.402896 A    
C243  H61   1.113949 S    
C120  C148  1.419419 A    
C256  H111  1.110232 S    
C272  H178  1.107088 S    
C273  H179  1.113453 S    
C215  O117  1.384802 S    
C175  C201  1.393746 A    
O130  C272  1.409568 S    
C216  O118  1.385439 S    
C236  H40   1.113007 S    
C93   C95   1.415248 A    
C152  O31   1.221935 D    
C47   C49   1.414828 A    
C246  H70   1.112269 S    
C129  O89   1.381954 S    
C201  H9    1.083911 S    
C126  C128  1.395170 A    
C154  O35   1.221518 D    
O49   Cr6   1.884773 S    
C264  H140  1.106965 S    
C177  C181  1.422904 A    
C157  C173  1.414273 A    
C234  H34   1.111573 S    
N1    C9    1.381561 Am   
C67   C77   1.428113 A    
C248  H76   1.112273 S    
C25   C69   1.414229 A    
N6    C82   1.380855 Am   
O133  H185  0.990053 S    
C225  O46   1.287861 A    
C250  H82   1.113362 S    
C157  O115  1.382384 S    
C266  H146  1.112134 S    
C9    C27   1.411944 A    
C265  H144  1.112382 S    
C10   C28   1.411181 A    
C116  C118  1.419085 A    
C117  C119  1.413170 A    
C271  H174  1.108314 S    
N8    C134  1.434102 S    
C244  H64   1.112558 S    
C261  H131  1.109283 S    
C237  H43   1.113809 S    
C187  C195  1.418616 A    
C41   C43   1.413324 A    
O117  C267  1.411188 S    
C239  H49   1.114342 S    
O64   C234  1.410686 S    
C81   O26   1.222639 D    
O97   H113  0.988073 S    
C125  C133  1.394217 A    
C218  O120  1.384902 S    
C130  O90   1.381005 S    
C143  O85   1.384164 S    
C15   C29   1.419408 A    
C242  H60   1.109184 S    
C10   O19   1.222548 D    
C65   C67   1.417865 A    
C98   C142  1.398801 A    
C112  O80   1.383483 S    
C86   C102  1.416588 A    
O89   H101  0.989809 S    
C203  C205  1.429449 A    
C212  C222  1.419058 A    
C119  C121  1.410201 A    
C42   O130  1.383155 S    
O59   C229  1.412367 S    
C131  C133  1.412916 A    
O103  C259  1.410737 S    
C132  C134  1.401898 A    
C230  H23   1.113686 S    
C31   C225  1.481091 S    
C87   O67   1.382628 S    
C59   C61   1.411355 A    
C136  C138  1.408163 A    
O113  H149  0.990586 S    
C268  H158  1.109412 S    
N3    C61   1.445951 S    
C137  C139  1.414450 A    
C21   C27   1.404658 A    
C64   C70   1.416649 A    
C39   C41   1.400299 A    
C252  H91   1.113716 S    
O88   C254  1.412406 S    
C245  H67   1.115939 S    
C58   C60   1.408255 A    
O8    Cr2   1.877473 S    
C179  C211  1.422729 A    
C231  H25   1.112225 S    
C124  O25   1.222006 D    
C240  H54   1.109196 S    
C11   O53   1.382119 S    
C257  H117  1.109302 S    
O38   C227  1.292786 A    
C22   C66   1.414140 A    
C239  H51   1.109124 S    
O41   C224  1.294604 A    
C95   C97   1.418900 A    
O98   H114  0.989014 S    
C139  C149  1.405244 A    
C183  C185  1.416218 A    
C93   C99   1.415725 A    
C168  C170  1.414064 A    
C272  H176  1.111837 S    
C26   C70   1.417502 A    
C273  H181  1.107515 S    
C94   C100  1.416525 A    
C36   C68   1.419321 A    
C89   O69   1.383320 S    
C86   O84   1.381564 S    
C33   C63   1.422668 A    
C22   C28   1.417486 A    
C80   C96   1.405775 A    
C246  H72   1.107338 S    
C275  H188  1.110944 S    
C53   C55   1.397889 A    
C51   O16   1.222084 D    
C263  H136  1.114356 S    
C275  H187  1.112481 S    
C249  H79   1.113514 S    
O58   H18   0.989741 S    
C274  H184  1.112841 S    
C160  C162  1.411532 A    
O51   H11   0.988154 S    
O48   C227  1.299634 A    
O41   Cr4   1.877199 S    
Cr2   O13   1.967526 S    
C90   C92   1.410677 A    
O105  C261  1.411875 S    
O80   C250  1.409813 S    
C47   C75   1.413099 A    
C219  O121  1.386630 S    
C121  O28   1.221088 D    
C250  H84   1.109274 S    
C136  C142  1.416864 A    
C161  C163  1.405217 A    
C122  O29   1.221225 D    
C94   C96   1.413468 A    
C16   O52   1.377592 S    
C180  C218  1.419170 A    
C54   C56   1.399894 A    
C122  N8    1.377789 Am   
C8    N2    1.379127 Am   
C4    O10   1.287705 A    
O60   C230  1.409326 S    
C171  C215  1.414134 A    
C4    C30   1.494937 S    
C80   O23   1.221845 D    
O11   C5    1.297584 A    
C234  H36   1.109107 S    
O1    C5    1.289387 A    
C27   C71   1.416405 A    
C237  H45   1.108252 S    
C217  C219  1.411073 A    
C53   O127  1.382197 S    
C106  C112  1.414296 A    
C107  C109  1.414545 A    
C75   O61   1.385339 S    
C144  C150  1.406805 A    
C63   C69   1.416012 A    
C269  H162  1.112039 S    
C6    C102  1.480255 S    
C236  H42   1.108375 S    
C88   C102  1.412548 A    
O96   C256  1.410474 S    
C31   C57   1.414135 A    
C263  H135  1.112620 S    
O47   Cr6   1.996807 S    
O87   C253  1.407845 S    
C232  H30   1.108937 S    
C125  H1    1.083545 S    
C233  H31   1.108053 S    
C229  H20   1.109154 S    
O86   H94   0.991820 S    
C188  C196  1.417185 A    
O99   C257  1.411440 S    
C135  C141  1.415669 A    
C127  O75   1.383017 S    
O84   C252  1.409436 S    
C258  H118  1.112399 S    
C202  H10   1.081029 S    
C238  H47   1.114059 S    
C115  C123  1.409201 A    
O78   C248  1.410177 S    
O135  C275  1.411169 S    
N7    C123  1.382754 Am   
C276  H191  1.113700 S    
C21   C65   1.415645 A    
C256  H110  1.113392 S    
C204  O124  1.380990 S    
O53   H13   0.989741 S    
C54   C62   1.413512 A    
O65   C235  1.414326 S    
C256  H112  1.109146 S    
C240  H52   1.112000 S    
C235  H37   1.109993 S    
C214  O114  1.383480 S    
C176  C200  1.417616 A    
C56   O112  1.382366 S    
C130  C132  1.406111 A    
O12   Cr3   1.885501 S    
C119  C147  1.416888 A    
N10   C154  1.381067 Am   
O38   Cr4   1.993523 S    
C169  C213  1.420185 A    
C1    C173  1.490662 S    
O112  C266  1.411325 S    
C115  C117  1.412252 A    
C48   C76   1.415997 A    
C197  O105  1.385532 S    
C266  H148  1.107010 S    
C15   O51   1.383436 S    
C262  H132  1.115345 S    
C83   H3    1.082135 S    
C50   O21   1.221958 D    
C215  C221  1.411442 A    
C45   C47   1.409954 A    
C13   C29   1.409403 A    
C155  H7    1.083314 S    
C113  O77   1.383682 S    
O100  C258  1.409767 S    
C32   C56   1.412334 A    
C270  H165  1.113164 S    
C251  H87   1.114631 S    
C35   C67   1.434064 A    
C153  O34   1.222184 D    
C145  O87   1.381673 S    
C196  O33   1.221113 D    
C99   C143  1.415808 A    
C249  H81   1.109143 S    
C245  H69   1.106338 S    
C178  C208  1.425029 A    
C83   C85   1.402884 A    
C82   C100  1.416129 A    
C261  H130  1.110886 S    
O67   C237  1.409996 S    
C121  N7    1.380117 Am   
N11   C205  1.484764 S    
O45   Cr5   1.885841 S    
C226  O47   1.292369 A    
C155  C163  1.395474 A    
O55   H15   0.991134 S    
O110  H142  0.989439 S    
C254  H99   1.109318 S    
C79   N5    1.378245 Am   
C253  H97   1.109090 S    
C151  C167  1.418772 A    
C113  C115  1.414625 A    
O49   C228  1.307541 A    
Cr4   O50   1.967827 S    
C259  H124  1.110072 S    
C40   O132  1.384222 S    
O1    Cr1   2.002557 S    
C106  C136  1.415367 A    
O85   H93   0.991602 S    
C58   O60   1.382841 S    
C165  C209  1.422007 A    
C175  C227  1.480734 S    
C166  C210  1.419188 A    
N4    C52   1.378494 Am   
C106  C110  1.411470 A    
C1    O5    1.293622 A    
C33   C37   1.416910 A    
C253  H95   1.113767 S    
C260  H128  1.105279 S    
C2    O6    1.292753 A    
C43   C51   1.413375 A    
O120  H160  0.989816 S    
N5    C91   1.439993 S    
C189  C191  1.406976 A    
O90   H102  0.990439 S    
O122  C270  1.410193 S    
C251  H89   1.109239 S    
C108  C146  1.416463 A    
O94   H106  0.992516 S    
C31   C55   1.409303 A    
O115  H151  0.991773 S    
C251  H88   1.110344 S    
O61   C231  1.412558 S    
O7    Cr2   1.884231 S    
C255  H108  1.115568 S    
C232  H28   1.112923 S    
C233  H33   1.107775 S    
C257  H116  1.111229 S    
C59   O63   1.383919 S    
N9    C163  1.443815 S    
C243  H62   1.109983 S    
C112  C114  1.400524 A    
C272  H177  1.114259 S    
C273  H180  1.109245 S    
N11   C195  1.389546 Am   
C220  O122  1.384459 S    
C247  H73   1.113203 S    
C8    C24   1.414723 A    
C276  H192  1.109210 S    
O4    C2    1.301028 A    
C158  C174  1.424764 A    
C267  H153  1.112638 S    
C146  O88   1.390854 S    
C144  O86   1.383616 S    
C178  C182  1.418660 A    
C177  C207  1.436045 A    
C255  H109  1.109349 S    
C262  H133  1.109232 S    
C120  C122  1.411908 A    
C264  H139  1.113212 S    
C105  C109  1.415690 A    
C259  H123  1.114678 S    
C179  C217  1.422292 A    
C84   C92   1.399193 A    
C154  C172  1.415852 A    
O39   C228  1.295360 A    
C8    O15   1.221968 D    
C37   C45   1.422093 A    
O3    C1    1.302583 A    
C243  H63   1.108017 S    
C96   C98   1.419641 A    
C262  H134  1.109251 S    
C148  O94   1.374109 S    
C131  O95   1.389241 S    
C197  C205  1.432421 A    
C110  C118  1.412248 A    
C16   C18   1.400476 A    
C103  C127  1.408985 A    
C179  C181  1.418947 A    
C184  O110  1.384644 S    
C82   O27   1.221537 D    
C100  C144  1.417823 A    
C18   C20   1.407209 A    
C271  H175  1.109175 S    
C53   C61   1.410704 A    
O54   H14   0.989366 S    
C79   O22   1.221802 D    
O11   Cr3   1.885121 S    
C84   H4    1.082975 S    
C12   O54   1.383437 S    
C198  O106  1.386508 S    
O132  C274  1.409681 S    
C143  C149  1.400687 A    
C237  H44   1.112316 S    
C138  C140  1.411442 A    
C162  C164  1.405187 A    
C9    O18   1.222299 D    
O57   H17   0.989292 S    
C80   N6    1.382958 Am   
C252  H90   1.113270 S    
C7    O14   1.221954 D    
O76   C246  1.411258 S    
N10   C164  1.445284 S    
C210  C212  1.414644 A    
O5    Cr2   1.993727 S    
C258  H120  1.109202 S    
C242  H59   1.111695 S    
C63   C65   1.412155 A    
C44   C52   1.411231 A    
C104  C224  1.479497 S    
C140  C150  1.406308 A    
C32   C58   1.411464 A    
C25   O91   1.382338 S    
C169  O101  1.381501 S    
C44   C46   1.414303 A    
C259  H125  1.106122 S    
C244  H66   1.109185 S    
C46   C48   1.417161 A    
O63   C233  1.412144 S    
C22   C24   1.415648 A    
O2    C6    1.286018 A    
C203  O123  1.379091 S    
C18   O74   1.382108 S    
C230  H22   1.112930 S    
C107  C139  1.422154 A    
O75   C245  1.415292 S    
O128  H172  0.988315 S    
C93   C137  1.414754 A    
C241  H55   1.110693 S    
C33   C39   1.425494 A    
C109  C117  1.415006 A    
C260  H126  1.112724 S    
C268  H157  1.113673 S    
C34   C40   1.416694 A    
O52   H12   0.990615 S    
O6    Cr2   2.001295 S    
C147  O93   1.379441 S    
O56   H16   0.989549 S    
C87   C101  1.416353 A    
C184  C186  1.413528 A    
C13   O135  1.384881 S    
C146  C148  1.413931 A    
C15   C17   1.401598 A    
C176  C228  1.501212 S    
C180  C212  1.431056 A    
C207  C213  1.419048 A    
C166  C168  1.412307 A    
C141  O81   1.385121 S    
C165  C167  1.412271 A    
C114  C116  1.416174 A    
C208  C214  1.416233 A    
C231  H26   1.111626 S    
C240  H53   1.113910 S    
C221  O125  1.385165 S    
O102  H122  0.991077 S    
C186  C188  1.414634 A    
C194  O37   1.221932 D    
C153  C171  1.412904 A    
C181  C189  1.421143 A    
O101  H121  0.990198 S    
C49   N3    1.379147 Am   
C97   C141  1.415706 A    
C268  H156  1.112116 S    
C252  H92   1.109346 S    
C128  O76   1.381609 S    
C159  C161  1.411047 A    
O4    Cr1   1.884851 S    
C38   C46   1.416470 A    
C126  H2    1.083574 S    
C16   C30   1.419503 A    
C194  N12   1.382349 Am   
C149  H5    1.078316 S    
C276  H190  1.113511 S    
C11   C13   1.407172 A    
C151  N9    1.379692 Am   
C7    N1    1.378997 Am   
C246  H71   1.114694 S    
O107  C263  1.411670 S    
C178  C184  1.421159 A    
C172  C216  1.415102 A    
C249  H80   1.113012 S    
C105  C111  1.417497 A    
C234  H35   1.110629 S    
O40   Cr4   1.884274 S    
C185  C187  1.409987 A    
C270  H164  1.112678 S    
C88   O68   1.381831 S    
C107  C145  1.421524 A    
C160  O98   1.381692 S    
C88   C90   1.402483 A    
C166  C172  1.411004 A    
C36   C38   1.410525 A    
C17   C19   1.408219 A    
N12   C196  1.379550 Am   
C14   C30   1.422434 A    
C105  C135  1.421136 A    
C156  H8    1.083721 S    
C250  H83   1.112899 S    
C14   O136  1.383035 S    
O92   H104  0.991266 S    
C191  C219  1.408286 A    
Cr1   O13   1.968589 S    
C265  H143  1.114403 S    
C253  H96   1.113132 S    
N1    C19   1.445751 S    
O79   C249  1.410187 S    
C207  C209  1.418079 A    
C271  H173  1.115157 S    
O72   C242  1.409953 S    
C208  C210  1.411592 A    
C193  N11   1.383784 Am   
O95   C255  1.414505 S    
O129  C271  1.412800 S    
Cr6   O50   1.968313 S    
C204  C206  1.402843 A    
C191  C193  1.406954 A    
C73   O57   1.381512 S    
C152  N10   1.380414 Am   
N12   C206  1.451788 S    
C160  C174  1.426905 A    
C103  C223  1.477268 S    
C202  C204  1.406029 A    
O134  H186  0.990550 S    
C176  C202  1.407916 A    
O111  C265  1.415133 S    
C132  O96   1.383334 S    
C190  C192  1.412422 A    
O91   H103  0.991404 S    
C236  H41   1.112491 S    
C35   C37   1.421769 A    
C116  C124  1.409047 A    
C52   O17   1.221929 D    
C23   C25   1.410720 A    
O7    C3    1.293960 A    
C87   C89   1.409176 A    
O8    C4    1.301624 A    
C17   O73   1.384170 S    
O12   C6    1.300179 A    
C232  H29   1.113919 S    
C218  C220  1.414954 A    
O62   C232  1.411409 S    
C235  H38   1.114564 S    
C187  C189  1.409196 A    
C230  H24   1.109329 S    
C118  C120  1.413695 A    
C36   C74   1.412936 A    
C35   C73   1.420733 A    
C170  C214  1.418102 A    
C241  H57   1.112557 S    
C182  C190  1.422414 A    
C238  H46   1.110871 S    
C34   C38   1.415946 A    
C111  C113  1.401545 A    
C81   C99   1.408945 A    
O74   C244  1.409349 S    
C41   O129  1.385760 S    
C78   O66   1.384993 S    
C64   C66   1.414401 A    
C263  H137  1.107822 S    
C195  O32   1.220739 D    
C57   C59   1.418179 A    
C274  H182  1.109306 S    
C167  C169  1.413778 A    
C235  H39   1.109297 S    
C28   C72   1.417946 A    
C264  H138  1.112417 S    
Cr3   O13   1.959149 S    
N2    C10   1.379366 Am   
C54   O128  1.383136 S    
O126  H170  0.989903 S    
O44   C225  1.300361 A    
C209  C211  1.412185 A    
O69   C239  1.408733 S    
C142  O82   1.380384 S    
C55   O111  1.380764 S    
O70   C240  1.409387 S    
C159  C173  1.423743 A    
Cr5   O50   1.959125 S    
C223  O42   1.292011 A    
C239  H50   1.110359 S    
C11   C19   1.415851 A    
O43   Cr5   2.001195 S    
C224  O43   1.287955 A    
C12   C20   1.401981 A    
O66   C236  1.409152 S    
C170  O102  1.382397 S    
C39   O131  1.384527 S    
C145  C147  1.397785 A    
C199  O103  1.381416 S    
O82   H86   0.990587 S    
C97   O71   1.384642 S    
C213  O113  1.383981 S    
C200  O104  1.382174 S    
C274  H183  1.113526 S    
O123  H167  0.991935 S    
C233  H32   1.115813 S    
C71   O55   1.380578 S    
C48   C50   1.412705 A    
O108  C264  1.411651 S    
C50   N4    1.376082 Am   
C155  C157  1.406237 A    
C198  C206  1.408164 A    
C26   O92   1.383329 S    
