data_mof_unit_29029.cif
_audit_creation_date              2013-03-05T16:33:12-0500
_audit_creation_method            fapswitch 2.2
_symmetry_space_group_name_H-M    P1
_symmetry_Int_Tables_number       1
_space_group_crystal_system       triclinic
_cell_length_a                    27.803161
_cell_length_b                    10.82012
_cell_length_c                    9.530549
_cell_angle_alpha                 89.912566
_cell_angle_beta                  89.730629
_cell_angle_gamma                 90.188724
_cell_volume                      2867.05813276

loop_
_atom_site_label
_atom_site_type_symbol
_atom_site_description
_atom_site_fract_x
_atom_site_fract_y
_atom_site_fract_z
_atom_type_partial_charge
O1    O     O_R   0.500000 0.319640 0.618810 -0.587439
O2    O     O_R   0.500010 0.319680 0.381230 -0.582316
C1    C     C_R   0.499255 0.262264 0.500121 0.805491
O3    O     O_R   0.430260 0.500000 0.618780 -0.584353
O4    O     O_R   0.430270 0.500040 0.381190 -0.584607
C2    C     C_R   0.407446 0.499664 0.500342 0.810759
Cu1   Cu    Cu3+1 0.500000 0.499980 0.640670 0.945472
Cu2   Cu    Cu3+1 0.500000 0.500020 0.359330 0.947345
O5    O     O_R   0.499990 0.680320 0.618770 -0.572582
O6    O     O_R   0.500000 0.680360 0.381190 -0.585103
O7    O     O_R   0.569730 0.499960 0.618810 -0.588864
O8    O     O_R   0.569740 0.500000 0.381220 -0.580301
C3    C     C_R   0.499280 0.737695 0.499877 0.812989
C4    C     C_R   0.592556 0.499894 0.499907 0.795948
C5    C     C_R   0.178068 0.398079 0.453325 0.520066
O9    O     O_2   0.203017 0.298573 0.409057 -0.541863
N1    N     N_R   0.202072 0.499978 0.501162 -0.470797
C6    C     C_R   0.178006 0.602933 0.545209 0.519105
C7    C     C_R   0.278939 0.524115 0.380005 -0.130698
C8    C     C_R   0.328931 0.523392 0.378303 -0.219864
C9    C     C_R   0.329207 0.473692 0.626552 -0.204456
C10   C     C_R   0.278535 0.472443 0.629576 0.134552
C11   C     C_R   0.253646 0.499101 0.504120 0.332823
C12   C     C_R   0.101926 0.500388 0.498433 -0.043948
C13   C     C_R   0.127589 0.396491 0.450672 -0.018838
C14   C     C_R   0.102463 0.293044 0.402808 -0.150169
C15   C     C_R   0.127529 0.604631 0.546006 -0.019056
C16   C     C_R   0.354476 0.498937 0.501595 -0.067433
H1    H     H_    0.349474 0.454135 0.720380 0.150366
H2    H     H_    0.121351 0.211358 0.367217 0.187689
C17   C     C_R   0.645516 0.499144 0.500448 -0.037648
C18   C     C_R   0.974461 0.398140 0.439862 0.041425
C19   C     C_R   0.974451 0.600426 0.559791 0.041453
C20   C     C_R   0.949196 0.498967 0.500402 0.068057
C21   C     C_R   0.947507 0.303012 0.374978 -0.206264
C22   C     C_R   0.897553 0.304548 0.374532 -0.145378
C23   C     C_R   0.872404 0.400868 0.438432 -0.021187
C24   C     C_R   0.898051 0.498350 0.501547 -0.044319
C25   C     C_R   0.872423 0.595257 0.565737 -0.021096
C26   C     C_R   0.821930 0.592769 0.565818 0.535617
N2    N     N_R   0.797875 0.497500 0.503106 -0.469754
C27   C     C_R   0.821909 0.402497 0.439923 0.535468
C28   C     C_R   0.720662 0.460554 0.621724 -0.101612
C29   C     C_R   0.670496 0.460936 0.620803 -0.221090
C30   C     C_R   0.671642 0.537014 0.381375 -0.218536
C31   C     C_R   0.721778 0.536021 0.382232 -0.102232
C32   C     C_R   0.746377 0.497868 0.502352 0.361996
O10   O     O_2   0.796982 0.309789 0.379234 -0.536754
C33   C     C_R   0.025544 0.395963 0.445273 0.042044
C34   C     C_R   0.050784 0.500060 0.498621 0.066913
C35   C     C_R   0.025507 0.603786 0.552344 0.041897
C36   C     C_R   0.052514 0.292485 0.400134 -0.208082
H3    H     H_    0.651328 0.430011 0.713556 0.144374
H4    H     H_    0.739591 0.430737 0.714795 0.138438
H5    H     H_    0.878676 0.229382 0.323490 0.187362
H6    H     H_    0.963868 0.226684 0.320606 0.140524
H7    H     H_    0.036166 0.207824 0.364756 0.140057
O11   O     O_2   0.202904 0.703044 0.588507 -0.538942
C37   C     C_R   0.102357 0.708207 0.592783 -0.148594
H8    H     H_    0.347557 0.543202 0.280724 0.164180
H9    H     H_    0.259588 0.544418 0.284436 0.142299
H10   H     H_    0.121207 0.790291 0.627790 0.187820
C38   C     C_R   0.947534 0.694819 0.626048 -0.206300
C39   C     C_R   0.897590 0.692101 0.628685 -0.145303
O12   O     O_2   0.797028 0.685109 0.627171 -0.537138
C40   C     C_R   0.052410 0.708081 0.595937 -0.207939
H11   H     H_    0.963939 0.771390 0.679943 0.140632
H12   H     H_    0.653489 0.569246 0.288517 0.148029
H13   H     H_    0.878736 0.766802 0.680587 0.187342
H14   H     H_    0.741578 0.565695 0.289976 0.138940
H15   H     H_    0.035995 0.792747 0.630662 0.140048
C41   C     C_R   0.497375 0.063336 0.626478 0.162243
C42   C     C_R   0.494843 0.129103 0.500562 -0.148240
C43   C     C_R   0.485820 0.064533 0.375391 -0.189727
H16   H     H_    0.480893 0.112962 0.276958 0.185451
C44   C     C_R   0.485810 0.935683 0.375153 -0.198996
H17   H     H_    0.480875 0.887617 0.276622 0.177355
C45   C     C_R   0.494868 0.870731 0.500046 -0.118805
C46   C     C_R   0.497599 0.935954 0.625869 0.138959
C47   C     C_3   0.534321 0.928373 0.739538 -0.488122
C48   C     C_3   0.534346 0.069128 0.740286 -0.209536
H18   H     H_    0.519510 0.884424 0.836165 0.219211
H19   H     H_    0.568878 0.888519 0.702022 0.175412
H20   H     H_    0.568956 0.110605 0.704365 0.119839
C49   C     C_R   0.524466 0.589189 0.073194 0.263698
N3    N     N_R   0.500300 0.500930 0.147930 -0.191709
C50   C     C_R   0.471940 0.419988 0.074996 -0.067803
H21   H     H_    0.450054 0.353450 0.131362 0.154605
C51   C     C_R   0.471824 0.420279 0.925971 -0.081137
H22   H     H_    0.449751 0.354230 0.870333 0.166045
N4    N     N_R   0.500310 0.500890 0.852020 -0.195014
C52   C     C_R   0.524389 0.589389 0.925637 0.261237
C53   C     C_3   0.577063 0.614540 0.918688 -0.494573
C54   C     C_3   0.577228 0.612961 0.077571 -0.513537
H23   H     H_    0.597795 0.536911 0.872743 0.215323
H24   H     H_    0.585316 0.706940 0.873541 0.195623
H25   H     H_    0.597359 0.532939 0.120104 0.215258
H26   H     H_    0.586009 0.704092 0.124833 0.198451
C55   C     C_3   0.249800 0.442543 0.761993 -0.390001
C56   C     C_3   0.279482 0.408570 0.892136 -0.397328
C57   C     C_3   0.246917 0.377776 0.016913 -0.773618
H27   H     H_    0.224221 0.458577 0.044442 0.247878
H28   H     H_    0.223353 0.297761 0.991909 0.263231
H29   H     H_    0.269291 0.353511 0.109096 0.256686
H30   H     H_    0.302196 0.326625 0.869083 0.233308
H31   H     H_    0.302979 0.487595 0.921733 0.224342
H32   H     H_    0.227211 0.523814 0.788531 0.222628
H33   H     H_    0.225325 0.363883 0.738261 0.211438
C58   C     C_2   0.515549 0.124686 0.874501 0.403740
H34   H     H_    0.537453 0.191405 0.930357 0.062031
O13   O     O_2   0.476270 0.095272 0.922183 -0.562504

loop_
_geom_bond_atom_site_label_1
_geom_bond_atom_site_label_2
_geom_bond_distance
_ccdc_geom_bond_type
C50   H21   1.081693 S    
C53   C54   1.514343 S    
N2    C27   1.366901 A    
C21   C22   1.389074 A    
C12   C15   1.408489 A    
C4    C17   1.472513 S    
Cu1   Cu2   2.681323 S    
C49   N3    1.363804 A    
Cu1   O7    1.948903 S    
C55   H33   1.112120 S    
C56   H30   1.111853 S    
N1    C11   1.434389 S    
C43   C44   1.394181 A    
C22   C23   1.395961 A    
C44   C45   1.405552 A    
C41   C46   1.378339 A    
C58   O13   1.221887 D    
C37   C40   1.388867 A    
C24   C25   1.408610 A    
O7    C4    1.296224 A    
C5    C13   1.403866 A    
C54   H26   1.111572 S    
C5    O9    1.349787 S    
C5    N1    1.366905 A    
C42   C43   1.406543 A    
C23   C27   1.404095 A    
O5    C3    1.291465 A    
C52   C53   1.489838 S    
C3    C45   1.445087 S    
C29   H3    1.082092 S    
C6    O11   1.349795 S    
C2    C16   1.472729 S    
C55   C56   1.537811 S    
C8    H8    1.083116 S    
C41   C48   1.499096 S    
Cu2   O8    1.951156 S    
C53   H23   1.109708 S    
O1    Cu1   1.962707 S    
C9    C10   1.409040 A    
O3    Cu1   1.951162 S    
C49   C52   1.406311 A    
C34   C35   1.421003 A    
C12   C34   1.421872 A    
C38   H11   1.076718 S    
C17   C29   1.406035 A    
C57   H27   1.110922 S    
C44   H17   1.083224 S    
O3    C2    1.297379 A    
C43   H16   1.083327 S    
N4    C52   1.363681 A    
C45   C46   1.394588 A    
C41   C42   1.396420 A    
C8    C16   1.401189 A    
C54   H25   1.109756 S    
C13   C14   1.395841 A    
C30   C31   1.394098 A    
C9    H1    1.080225 S    
C38   C39   1.388938 A    
O1    C1    1.291384 A    
C35   C40   1.415761 A    
C18   C20   1.421162 A    
C7    C11   1.398907 A    
C28   C29   1.394859 A    
C18   C21   1.415866 A    
C23   C24   1.408495 A    
C25   C39   1.395909 A    
C14   C36   1.389087 A    
C49   C54   1.489259 S    
C28   H4    1.082832 S    
C40   H15   1.076710 S    
C19   C38   1.415810 A    
C33   C36   1.415952 A    
Cu1   N4    2.014380 S    
C30   H12   1.078868 S    
N1    C6    1.366965 A    
N2    C32   1.431880 S    
C27   O10   1.349825 S    
C39   H13   1.083676 S    
C12   C13   1.408516 A    
C47   H18   1.112473 S    
C26   N2    1.366827 A    
C9    C16   1.405820 A    
C48   C58   1.506266 S    
C14   H2    1.083663 S    
C53   H24   1.110679 S    
C26   O12   1.349840 S    
C50   C51   1.420308 A    
C51   N4    1.368611 A    
C25   C26   1.404031 A    
C48   H20   1.112724 S    
N3    C50   1.369077 A    
C47   H19   1.112152 S    
Cu1   O5    1.962115 S    
C31   C32   1.398755 A    
C37   H10   1.083647 S    
C10   C55   1.524192 S    
C21   H6    1.076612 S    
C20   C24   1.421963 A    
Cu2   O6    1.962706 S    
O2    Cu2   1.962117 S    
C6    C15   1.403569 A    
O8    C4    1.299488 A    
C47   C48   1.523009 S    
O6    C3    1.291044 A    
O4    Cu2   1.948906 S    
C19   C35   1.421287 A    
C55   H32   1.111081 S    
C56   H31   1.111878 S    
C7    C8    1.389994 A    
O2    C1    1.291448 A    
C22   H5    1.083675 S    
C15   C37   1.395820 A    
C58   H34   1.084786 S    
O4    C2    1.298245 A    
C7    H9    1.082639 S    
C56   C57   1.526977 S    
C19   C20   1.420965 A    
Cu2   N3    2.014746 S    
C1    C42   1.445628 S    
C18   C33   1.421716 A    
C31   H14   1.082881 S    
C36   H7    1.076586 S    
C46   C47   1.494471 S    
C57   H28   1.110834 S    
C33   C34   1.421098 A    
C17   C30   1.404375 A    
C10   C11   1.414106 A    
C57   H29   1.110524 S    
C51   H22   1.081598 S    
C28   C32   1.399118 A    
