data_mof_unit_5316.cif
_audit_creation_date              2012-10-26T20:35:46-0400
_audit_creation_method            fapswitch 2.2
_symmetry_space_group_name_H-M    P1
_symmetry_Int_Tables_number       1
_space_group_crystal_system       triclinic
_cell_length_a                    8.736028
_cell_length_b                    15.880537
_cell_length_c                    17.117021
_cell_angle_alpha                 96.242199
_cell_angle_beta                  90.781891
_cell_angle_gamma                 84.471772
_cell_volume                      2349.6217117

loop_
_atom_site_label
_atom_site_type_symbol
_atom_type_description
_atom_site_fract_x
_atom_site_fract_y
_atom_site_fract_z
_atom_type_partial_charge
C1    C     C_R   0.498840 0.489761 0.348656 0.554779
C2    C     C_R   0.436812 0.154866 0.418762 0.185866
C3    C     C_R   0.643098 0.747466 0.540741 0.015669
C4    C     C_R   0.430059 0.244200 0.425060 0.020825
C5    C     C_R   0.205579 0.521862 0.500961 0.556232
C6    C     C_R   0.794416 0.478160 0.499056 0.555064
C7    C     C_2   0.040570 0.533827 0.501533 -0.143776
C8    C     C_2   0.959423 0.466263 0.498504 -0.145112
C9    C     C_R   0.497808 0.484372 0.262607 0.001282
C10   C     C_R   0.501571 0.515462 0.737388 0.006872
C11   C     C_R   0.504045 0.558214 0.225112 -0.153017
C12   C     C_R   0.501013 0.510216 0.651343 0.557781
C13   C     C_R   0.494255 0.441600 0.774764 -0.155189
C14   C     C_R   0.503320 0.553577 0.143585 -0.080654
C15   C     C_R   0.494550 0.446115 0.856289 -0.082055
C16   C     C_R   0.496267 0.474481 0.097947 0.225235
C17   C     C_R   0.502227 0.525093 0.902026 0.228457
C18   C     C_R   0.489741 0.401061 0.135506 -0.092534
C19   C     C_R   0.509647 0.598518 0.864591 -0.096214
C20   C     C_R   0.490499 0.405694 0.217221 -0.136302
C21   C     C_R   0.509345 0.594010 0.782890 -0.136061
C22   C     C_3   0.604120 0.123490 0.625610 -0.245967
C23   C     C_R   0.397039 0.759432 0.482235 0.029707
C24   C     C_3   0.473926 0.107455 0.679222 -0.393991
C25   C     C_3   0.245478 0.897749 0.464532 -0.256525
C26   C     C_3   0.213478 0.882315 0.376481 -0.366577
C27   C     C_R   0.537037 0.248517 0.552269 0.018983
C28   C     C_R   0.394130 0.848765 0.486660 -0.038043
C29   C     C_R   0.542171 0.159355 0.551627 -0.035925
C30   C     C_R   0.524735 0.888439 0.517302 0.225912
C31   C     C_R   0.491509 0.109851 0.482423 0.212715
C32   C     C_R   0.649819 0.835952 0.544789 0.209210
Cu1   Cu    Cu3+1 0.492520 0.415770 0.496210 0.954029
Cu2   Cu    Cu3+1 0.507480 0.584230 0.503790 0.959726
H1    H     H_    0.985721 0.598514 0.504454 0.123729
H2    H     H_    0.515183 0.651959 0.755490 0.154917
H3    H     H_    0.579869 0.285835 0.602970 0.139507
H4    H     H_    0.298497 0.728865 0.458712 0.141551
H5    H     H_    0.736965 0.707736 0.563467 0.160087
H6    H     H_    0.385982 0.277882 0.376704 0.162837
H7    H     H_    0.522899 0.076943 0.730569 0.178805
H8    H     H_    0.393176 0.065453 0.648079 0.191283
H9    H     H_    0.408430 0.168826 0.700870 0.137950
H10   H     H_    0.685068 0.066234 0.611839 0.257214
H11   H     H_    0.675250 0.169059 0.659826 0.122433
H12   H     H_    0.014317 0.401587 0.495570 0.134848
H13   H     H_    0.309704 0.900975 0.342569 0.239752
H14   H     H_    0.198672 0.814243 0.358693 0.117103
H15   H     H_    0.105686 0.920485 0.361981 0.212686
H16   H     H_    0.149883 0.876224 0.496799 0.196498
H17   H     H_    0.242963 0.966985 0.482303 0.213391
H18   H     H_    0.979198 0.776142 0.537720 0.312184
H19   H     H_    0.133611 0.128463 0.360610 0.341923
H20   H     H_    0.488203 0.380157 0.741124 0.124678
H21   H     H_    0.509546 0.619741 0.258677 0.142040
H22   H     H_    0.488745 0.387817 0.883082 0.143603
H23   H     H_    0.508323 0.611888 0.116711 0.149052
H24   H     H_    0.484184 0.339969 0.101170 0.144386
H25   H     H_    0.515647 0.659519 0.899023 0.137695
H26   H     H_    0.485437 0.347734 0.244710 0.161895
N1    N     N_2   0.495546 0.465749 0.014643 -0.242997
N2    N     N_2   0.502836 0.533738 0.985320 -0.241560
N3    N     N_R   0.518730 0.710760 0.509500 -0.266701
N4    N     N_R   0.481270 0.289240 0.490500 -0.267673
N5    N     N_2   0.526557 0.979185 0.530320 -0.215722
N6    N     N_2   0.494272 0.017979 0.471614 -0.161844
O1    O     O_R   0.493000 0.421040 0.382520 -0.509774
O2    O     O_2   0.778151 0.922117 0.666557 -0.251076
O3    O     O_3   0.960352 0.802336 0.592367 -0.517579
O4    O     O_2   0.370950 0.157630 0.264669 -0.284283
O5    O     O_2   0.479028 0.022179 0.307212 -0.222100
O6    O     O_3   0.195040 0.074274 0.342635 -0.519386
O7    O     O_R   0.507000 0.578960 0.617480 -0.490081
O8    O     O_R   0.505640 0.563310 0.388930 -0.502135
O9    O     O_R   0.494360 0.436690 0.611070 -0.518702
O10   O     O_R   0.269980 0.445280 0.497530 -0.496069
O11   O     O_R   0.730020 0.554720 0.502470 -0.510240
O12   O     O_R   0.282610 0.587550 0.503940 -0.504672
O13   O     O_R   0.717390 0.412450 0.496060 -0.488129
O14   O     O_2   0.865399 0.943716 0.535509 -0.301387
S1    S     S_3+6 0.815645 0.879221 0.585576 -0.006884
S2    S     S_3+6 0.373555 0.101273 0.329896 0.016545

loop_
_geom_bond_atom_site_label_1
_geom_bond_atom_site_label_2
_ccdc_geom_bond_type
C31   N6    S    
C22   C29   S    
C27   C29   A    
C24   H8    S    
C7    C8    D    
C21   H2    S    
C25   C28   S    
C32   S1    S    
C1    O8    A    
C19   C21   A    
Cu2   O11   S    
C11   C14   A    
C25   H16   S    
H18   O3    S    
Cu1   O10   S    
C1    O1    A    
C18   H24   S    
C22   H10   S    
C4    H6    S    
C14   C16   A    
C20   H26   S    
C26   H14   S    
O5    S2    D    
C23   N3    A    
C3    H5    S    
C12   O7    A    
C24   H7    S    
C3    C32   A    
Cu1   O9    S    
C10   C21   A    
C1    C9    S    
C26   H15   S    
C5    C7    S    
Cu1   O13   S    
C6    O11   A    
C6    C8    S    
C19   H25   S    
C25   C26   S    
C2    C31   A    
C2    C4    A    
C25   H17   S    
C17   N2    S    
C9    C20   A    
Cu1   Cu2   S    
C23   C28   A    
C9    C11   A    
C10   C12   S    
C26   H13   S    
Cu2   O8    S    
C13   C15   A    
C22   C24   S    
C2    S2    S    
C16   N1    S    
O2    S1    D    
C11   H21   S    
Cu1   O1    S    
C13   H20   S    
C15   C17   A    
C14   H23   S    
C7    H1    S    
O14   S1    D    
C10   C13   A    
C3    N3    A    
C23   H4    S    
C4    N4    A    
C15   H22   S    
C5    O10   A    
C28   C30   A    
C29   C31   A    
Cu2   O12   S    
C30   C32   A    
C6    O13   A    
C27   H3    S    
Cu1   N4    S    
Cu2   N3    S    
C17   C19   A    
C18   C20   A    
N1    N2    D    
O4    S2    D    
C8    H12   S    
C30   N5    S    
O3    S1    S    
C27   N4    A    
Cu2   O7    S    
C22   H11   S    
C16   C18   A    
N5    N6    D    
C12   O9    A    
C24   H9    S    
C5    O12   A    
H19   O6    S    
O6    S2    S    
