data_mof_unit_56072.cif
_audit_creation_date              2012-12-10T18:24:39-0500
_audit_creation_method            fapswitch 2.2
_symmetry_space_group_name_H-M    P1
_symmetry_Int_Tables_number       1
_space_group_crystal_system       triclinic
_cell_length_a                    14.014191
_cell_length_b                    14.951444
_cell_length_c                    15.359543
_cell_angle_alpha                 89.933314
_cell_angle_beta                  86.604931
_cell_angle_gamma                 90.097467
_cell_volume                      3212.66617184

loop_
_atom_site_label
_atom_site_type_symbol
_atom_type_description
_atom_site_fract_x
_atom_site_fract_y
_atom_site_fract_z
_atom_type_partial_charge
C1    C     C_R   0.500182 0.673052 0.498307 0.950394
C2    C     C_R   0.499822 0.326912 0.501789 0.957937
C3    C     C_R   0.445673 0.185629 0.569427 0.364287
C4    C     C_R   0.554181 0.814273 0.430834 0.373062
C5    C     C_R   0.499669 0.231568 0.504127 -0.170877
C6    C     C_R   0.500453 0.768316 0.496262 -0.168873
C7    C     C_R   0.554751 0.187403 0.439619 -0.230989
C8    C     C_R   0.446262 0.812377 0.561438 -0.229545
C9    C     C_R   0.555666 0.094795 0.436919 0.040338
C10   C     C_R   0.445545 0.904987 0.564319 0.041358
C11   C     C_R   0.500518 0.046685 0.501533 -0.016092
C12   C     C_R   0.500398 0.953129 0.499520 -0.020013
C13   C     C_R   0.445613 0.092129 0.568239 -0.013225
C14   C     C_R   0.554946 0.907713 0.432557 -0.014043
C15   C     C_R   0.609838 0.049306 0.370936 0.377569
C16   C     C_R   0.391783 0.950445 0.630583 0.390702
C17   C     C_R   0.608943 0.956630 0.369116 -0.125103
C18   C     C_R   0.392075 0.043164 0.631998 -0.141111
C19   C     C_R   0.198720 0.443724 0.554277 0.008004
C20   C     C_R   0.801237 0.556114 0.445511 0.007974
C21   C     C_R   0.206131 0.555373 0.444853 -0.000459
C22   C     C_R   0.793888 0.444876 0.555325 -0.000390
C23   C     C_R   0.487876 0.502279 0.657750 0.890773
C24   C     C_R   0.512123 0.502207 0.342201 0.881904
C25   C     C_R   0.105302 0.556412 0.441860 -0.057988
C26   C     C_R   0.894700 0.443836 0.558210 -0.058458
C27   C     C_R   0.050624 0.499317 0.499245 0.090982
C28   C     C_R   0.949364 0.500796 0.500688 0.091840
C29   C     C_R   0.097641 0.440935 0.555403 -0.066872
C30   C     C_R   0.902323 0.558997 0.444389 -0.066195
C31   C     C_R   0.058304 0.614323 0.384927 -0.088044
C32   C     C_R   0.941661 0.385957 0.615139 -0.090527
C33   C     C_R   0.956921 0.616609 0.387216 -0.100324
C34   C     C_R   0.043018 0.383246 0.612483 -0.103081
C35   C     C_R   0.483024 0.528976 0.750815 -0.072039
C36   C     C_R   0.517107 0.527832 0.248685 -0.095633
C37   C     C_R   0.566594 0.531241 0.797168 -0.131729
C38   C     C_R   0.432362 0.539621 0.205390 -0.158997
C39   C     C_R   0.572198 0.585446 0.871516 -0.111087
C40   C     C_R   0.430381 0.593937 0.130594 -0.007639
C41   C     C_R   0.491649 0.636536 0.900979 -0.093040
C42   C     C_R   0.516669 0.634367 0.096971 -0.103636
C43   C     C_R   0.405186 0.624915 0.860674 -0.028413
C44   C     C_R   0.602811 0.612397 0.134014 -0.028594
C45   C     C_R   0.400566 0.571204 0.786821 -0.155570
C46   C     C_R   0.603270 0.559388 0.208808 -0.077783
C47   C     C_2   0.500878 0.717055 0.956091 0.282140
C48   C     C_2   0.516811 0.715848 0.042046 0.358149
H1    H     H_    0.630463 0.497691 0.770791 0.183261
H2    H     H_    0.365638 0.514236 0.235136 0.200555
H3    H     H_    0.237936 0.402189 0.597226 0.187524
H4    H     H_    0.761969 0.597494 0.402457 0.178766
H5    H     H_    0.251102 0.599199 0.404287 0.160823
H6    H     H_    0.748962 0.401179 0.596077 0.160200
H7    H     H_    0.669955 0.550988 0.240081 0.166275
H8    H     H_    0.334885 0.570468 0.753039 0.168952
H9    H     H_    0.342985 0.663934 0.881739 0.204376
H10   H     H_    0.669125 0.643399 0.109773 0.193598
H11   H     H_    0.595406 0.226530 0.390900 0.211176
H12   H     H_    0.405981 0.773170 0.610358 0.207847
H13   H     H_    0.651440 0.923692 0.317578 0.250282
H14   H     H_    0.349612 0.076097 0.683554 0.244743
N1    N     N_R   0.249970 0.499930 0.499970 -0.116362
N2    N     N_R   0.750030 0.500070 0.500030 -0.114135
O1    O     O_R   0.419720 0.632140 0.499990 -0.623361
O2    O     O_R   0.580280 0.367860 0.500010 -0.618432
O3    O     O_R   0.580270 0.632160 0.499980 -0.575283
O4    O     O_R   0.419730 0.367840 0.500020 -0.570688
O5    O     O_R   0.410240 0.500000 0.615800 -0.600072
O6    O     O_R   0.589760 0.500000 0.384200 -0.601074
O7    O     O_R   0.570790 0.500020 0.615800 -0.610062
O8    O     O_R   0.429210 0.499980 0.384200 -0.607055
Zn1   Zn    Zn3+2 0.392800 0.499980 0.500010 0.991624
Zn2   Zn    Zn3+2 0.607200 0.500020 0.499990 0.991367
C49   C     C_2   0.114346 0.674227 0.323700 0.948744
O9    O     O_2   0.173030 0.642679 0.270252 -0.598155
O10   O     O_R   0.098389 0.766477 0.326321 -0.749343
H15   H     H_    0.140219 0.800072 0.281122 0.376032
C50   C     C_2   0.885536 0.326546 0.676755 0.949525
O11   O     O_2   0.827850 0.358661 0.730797 -0.583511
O12   O     O_R   0.900268 0.234124 0.673787 -0.751642
H16   H     H_    0.858512 0.200866 0.719283 0.373132
C51   C     C_2   0.908751 0.678405 0.328043 0.956333
O13   O     O_2   0.854022 0.735521 0.358359 -0.547997
O14   O     O_R   0.927661 0.672101 0.237881 -0.758200
H17   H     H_    0.890934 0.717883 0.204504 0.376578
C52   C     C_2   0.091108 0.320699 0.670977 0.965176
O15   O     O_2   0.145649 0.263762 0.640018 -0.547046
O16   O     O_R   0.072206 0.325968 0.761204 -0.750712
H18   H     H_    0.108588 0.279503 0.794042 0.378350
Cl1   Cl    Cl    0.534152 0.817263 0.098017 -0.394142
Cl2   Cl    Cl    0.491987 0.820457 0.901180 -0.419077
C53   C     C_2   0.335670 0.612704 0.095724 0.939323
O17   O     O_2   0.319388 0.684524 0.061597 -0.581990
O18   O     O_R   0.263422 0.548096 0.104350 -0.749522
H19   H     H_    0.201831 0.568411 0.079088 0.381243
C54   C     C_2   0.665503 0.592573 0.911710 0.908869
O19   O     O_2   0.703731 0.524811 0.936988 -0.509470
O20   O     O_R   0.712425 0.674547 0.919152 -0.734329
H20   H     H_    0.681164 0.724803 0.887111 0.342674
Cl3   Cl    Cl    0.382792 0.246173 0.654050 -0.575666
Cl4   Cl    Cl    0.615836 0.753897 0.345387 -0.582086
Cl5   Cl    Cl    0.680177 0.105143 0.288562 -0.507760
Cl6   Cl    Cl    0.322685 0.894461 0.713738 -0.501225

loop_
_geom_bond_atom_site_label_1
_geom_bond_atom_site_label_2
_ccdc_geom_bond_type
C25   C31   A    
C21   H5    S    
C52   O15   D    
C26   C32   A    
C53   O17   D    
C27   C29   A    
C47   Cl2   S    
C23   O5    A    
O18   H19   S    
C40   C53   S    
O12   H16   S    
C24   O6    A    
C22   H6    S    
C20   C30   A    
O14   H17   S    
C24   C36   S    
C13   C18   A    
C35   C37   A    
C2    O4    A    
C39   C54   S    
C33   C51   S    
O1    Zn1   S    
C7    C9    A    
C49   O10   S    
C17   H13   S    
C16   Cl6   S    
C47   C48   D    
C45   H8    S    
C44   H10   S    
C48   Cl1   S    
C4    Cl4   S    
C46   H7    S    
O6    Zn2   S    
C1    O1    A    
C31   C33   A    
C36   C46   A    
C3    C13   A    
C3    Cl3   S    
C40   C42   A    
C53   O18   S    
C41   C43   A    
C14   C17   A    
C42   C44   A    
C7    H11   S    
C54   O20   S    
C44   C46   A    
C54   O19   D    
C37   C39   A    
C1    C6    S    
C23   O7    A    
C4    C6    A    
C19   N1    A    
C50   O12   S    
C18   H14   S    
C6    C8    A    
N1    Zn1   S    
C3    C5    A    
O4    Zn1   S    
O10   H15   S    
C29   C34   A    
C32   C34   A    
C20   N2    A    
C49   O9    D    
C35   C45   A    
C37   H1    S    
C31   C49   S    
C51   O13   D    
C41   C47   S    
O3    Zn2   S    
C42   C48   S    
O5    Zn1   S    
C43   C45   A    
C10   C12   A    
C16   C18   A    
C51   O14   S    
C12   C14   A    
C23   C35   S    
C9    C11   A    
C2    C5    S    
C19   C29   A    
C24   O8    A    
C5    C7    A    
C15   C17   A    
C21   C25   A    
C30   C33   A    
O8    Zn1   S    
C2    O2    A    
O7    Zn2   S    
C11   C12   A    
C38   H2    S    
C25   C27   A    
C26   C28   A    
O20   H20   S    
C28   C30   A    
C9    C15   A    
C20   H4    S    
C10   C16   A    
C8    H12   S    
C32   C50   S    
C38   C40   A    
C11   C13   A    
C36   C38   A    
C1    O3    A    
C34   C52   S    
C4    C14   A    
C21   N1    A    
C43   H9    S    
C22   N2    A    
C50   O11   D    
C19   H3    S    
C39   C41   A    
C8    C10   A    
C22   C26   A    
C27   C28   A    
C52   O16   S    
N2    Zn2   S    
C15   Cl5   S    
O16   H18   S    
O2    Zn2   S    
