data_mof_unit_7542.cif
_audit_creation_date              2013-03-05T16:35:52-0500
_audit_creation_method            fapswitch 2.2
_symmetry_space_group_name_H-M    P1
_symmetry_Int_Tables_number       1
_space_group_crystal_system       triclinic
_cell_length_a                    23.498909
_cell_length_b                    9.08948
_cell_length_c                    7.779987
_cell_angle_alpha                 90.007172
_cell_angle_beta                  90.000143
_cell_angle_gamma                 89.999704
_cell_volume                      1661.74968732

loop_
_atom_site_label
_atom_site_type_symbol
_atom_site_description
_atom_site_fract_x
_atom_site_fract_y
_atom_site_fract_z
_atom_type_partial_charge
O1    O     O_R   0.500000 0.288390 0.642760 -0.573462
O2    O     O_R   0.500000 0.711610 0.357240 -0.573463
O3    O     O_R   0.500000 0.711610 0.642760 -0.578142
O4    O     O_R   0.500000 0.288390 0.357240 -0.578141
H1    H     H_    0.948266 0.193862 0.747258 0.199136
H2    H     H_    0.051734 0.806215 0.252758 0.199135
H3    H     H_    0.948266 0.806217 0.252759 0.199135
H4    H     H_    0.051733 0.193859 0.747256 0.199136
C1    C     C_R   0.500000 0.220003 0.499992 0.848152
C2    C     C_R   0.500000 0.779997 0.500008 0.848150
O5    O     O_R   0.417880 0.500000 0.642820 -0.580421
O6    O     O_R   0.582120 0.500000 0.357180 -0.580418
O7    O     O_R   0.582120 0.500000 0.642820 -0.580418
O8    O     O_R   0.417880 0.500000 0.357180 -0.580421
C3    C     C_R   0.208998 0.500028 0.500000 0.245631
C4    C     C_R   0.791001 0.500036 0.500000 0.245630
C5    C     C_R   0.390682 0.500001 0.500000 0.822628
C6    C     C_R   0.609318 0.500001 0.500000 0.822623
Cu1   Cu    Cu3+1 0.500000 0.500000 0.669080 1.019069
Cu2   Cu    Cu3+1 0.500000 0.500000 0.330920 1.019070
C7    C     C_R   0.298301 0.566259 0.635281 -0.227023
C8    C     C_R   0.701702 0.433747 0.364731 -0.227018
C9    C     C_R   0.298298 0.433768 0.364718 -0.227020
C10   C     C_R   0.701699 0.566288 0.635269 -0.227023
H5    H     H_    0.320996 0.618959 0.739668 0.180759
H6    H     H_    0.679009 0.381018 0.260356 0.180754
H7    H     H_    0.320991 0.381061 0.260331 0.180760
H8    H     H_    0.679003 0.619006 0.739645 0.180754
C11   C     C_R   0.328267 0.500009 0.500000 -0.106295
C12   C     C_R   0.671733 0.500010 0.500001 -0.106286
C13   C     C_R   0.880352 0.608396 0.412915 0.595106
C14   C     C_R   0.119647 0.391677 0.587095 0.595105
C15   C     C_R   0.880353 0.391683 0.587098 0.595102
C16   C     C_R   0.119647 0.608391 0.412914 0.595107
N1    N     N_R   0.851970 0.500039 0.500005 -0.461407
N2    N     N_R   0.148030 0.500032 0.500003 -0.461406
C17   C     C_R   0.940024 0.389509 0.589144 -0.023240
C18   C     C_R   0.059975 0.610568 0.410871 -0.023241
C19   C     C_R   0.940024 0.610570 0.410872 -0.023241
C20   C     C_R   0.059975 0.389505 0.589142 -0.023240
C21   C     C_R   0.969976 0.500039 0.500008 -0.012433
C22   C     C_R   0.030024 0.500037 0.500007 -0.012434
C23   C     C_R   0.970312 0.279927 0.677713 -0.141672
C24   C     C_R   0.029687 0.720150 0.322303 -0.141672
C25   C     C_R   0.970313 0.720151 0.322303 -0.141673
C26   C     C_R   0.029687 0.279925 0.677713 -0.141673
C27   C     C_1   0.500000 0.065374 0.499990 -0.158799
C28   C     C_1   0.500000 0.934626 0.500010 -0.158799
C29   C     C_R   0.238933 0.568381 0.634563 0.196435
C30   C     C_R   0.761069 0.431653 0.365446 0.196433
C31   C     C_R   0.238931 0.431665 0.365436 0.196435
C32   C     C_R   0.761066 0.568407 0.634554 0.196434
N3    N     N_1   0.500000 0.500000 0.076820 -0.042731
N4    N     N_1   0.500000 0.500000 0.923180 -0.042731
O9    O     O_2   0.850834 0.713467 0.328863 -0.490717
O10   O     O_2   0.149165 0.286604 0.671144 -0.490717
O11   O     O_2   0.850834 0.286612 0.671148 -0.490717
O12   O     O_2   0.149166 0.713462 0.328865 -0.490717
I1    I     I_    0.196087 0.678760 0.836685 -0.209469
I2    I     I_    0.803921 0.321283 0.163327 -0.209466
I3    I     I_    0.196080 0.321298 0.163316 -0.209469
I4    I     I_    0.803912 0.678793 0.836673 -0.209463

loop_
_geom_bond_atom_site_label_1
_geom_bond_atom_site_label_2
_geom_bond_distance
_ccdc_geom_bond_type
C10   C32   1.395206 A    
C9    C11   1.402157 A    
C18   C24   1.404867 A    
C6    C12   1.466687 S    
C9    H7    1.083208 S    
Cu2   N3    1.976894 S    
C5    C11   1.466689 S    
C21   C22   1.411060 A    
C9    C31   1.395207 A    
C27   C28   1.188436 T    
C31   I3    2.119586 S    
C8    C30   1.395208 A    
C19   C25   1.404868 A    
C30   I2    2.119599 S    
O3    Cu1   1.934320 S    
O6    Cu2   1.940515 S    
C20   C22   1.409190 A    
H1    C23   1.083155 S    
C19   C21   1.409190 A    
O3    C2    1.272801 A    
H2    C24   1.083156 S    
N3    N4    1.195318 T    
C20   C26   1.404867 A    
O8    C5    1.281838 A    
O5    Cu1   1.940517 S    
O7    C6    1.281836 A    
C17   C21   1.409189 A    
H3    C25   1.083155 S    
Cu1   N4    1.976894 S    
C7    C29   1.395206 A    
C15   N1    1.368997 A    
C16   N2    1.368997 A    
C13   C19   1.402447 A    
C1    C27   1.405493 S    
C3    C31   1.405952 A    
C3    C29   1.405947 A    
C4    N1    1.432693 S    
C2    C28   1.405493 S    
C4    C30   1.405971 A    
C23   C26   1.395231 A    
H4    C26   1.083155 S    
C17   C23   1.404866 A    
O1    Cu1   1.934270 S    
C10   C12   1.402185 A    
O7    Cu1   1.940516 S    
O2    Cu2   1.934269 S    
O4    Cu2   1.934321 S    
C18   C22   1.409190 A    
C14   N2    1.368996 A    
C3    N2    1.432696 S    
C14   C20   1.402445 A    
O1    C1    1.272768 A    
C24   C25   1.395231 A    
O8    Cu2   1.940518 S    
C4    C32   1.405963 A    
C8    H6    1.083227 S    
O6    C6    1.281836 A    
C16   O12   1.349451 S    
C13   N1    1.368995 A    
C7    H5    1.083205 S    
O5    C5    1.281837 A    
C15   O11   1.349454 S    
C8    C12   1.402174 A    
C13   O9    1.349453 S    
O4    C1    1.272801 A    
C16   C18   1.402447 A    
C7    C11   1.402161 A    
C32   I4    2.119611 S    
O2    C2    1.272768 A    
C15   C17   1.402445 A    
Cu1   Cu2   2.630881 S    
C10   H8    1.083221 S    
C14   O10   1.349454 S    
C29   I1    2.119590 S    
