data_mof_unit_6981.cif
_audit_creation_date              2012-12-10T18:53:46-0500
_audit_creation_method            fapswitch 2.2
_symmetry_space_group_name_H-M    P1
_symmetry_Int_Tables_number       1
_space_group_crystal_system       triclinic
_cell_length_a                    10.809553
_cell_length_b                    9.852319
_cell_length_c                    19.216898
_cell_angle_alpha                 90.153393
_cell_angle_beta                  89.246328
_cell_angle_gamma                 89.723455
_cell_volume                      2046.37499866

loop_
_atom_site_label
_atom_site_type_symbol
_atom_type_description
_atom_site_fract_x
_atom_site_fract_y
_atom_site_fract_z
_atom_type_partial_charge
C1    C     C_R   0.259480 0.500442 0.498147 0.874835
C2    C     C_R   0.058536 0.624874 0.490137 0.041584
C3    C     C_R   0.871907 0.499412 0.497303 -0.142834
C4    C     C_R   0.126075 0.501132 0.494234 -0.163592
C5    C     C_R   0.570094 0.071782 0.546015 -0.121545
C6    C     C_R   0.428728 0.928293 0.454432 -0.089967
C7    C     C_R   0.428586 0.071965 0.454499 -0.084535
C8    C     C_R   0.571323 0.928227 0.545426 -0.084352
C9    C     C_R   0.463063 0.617184 0.251188 0.000526
C10   C     C_R   0.488225 0.387072 0.752069 -0.006397
C11   C     C_R   0.582317 0.613458 0.743710 -0.027250
C12   C     C_R   0.739790 0.499718 0.499878 0.871772
C13   C     C_R   0.530129 0.378457 0.248367 -0.045547
C14   C     C_R   0.504222 0.632156 0.182363 0.395430
C15   C     C_R   0.519302 0.386244 0.822535 0.412581
C16   C     C_R   0.565403 0.626818 0.815603 0.433088
C17   C     C_R   0.535007 0.387865 0.175316 0.409127
C18   C     C_R   0.532801 0.515355 0.143952 -0.203417
C19   C     C_R   0.545102 0.510086 0.854889 -0.223715
C20   C     C_R   0.495556 0.497079 0.287717 -0.248528
C21   C     C_R   0.526733 0.499779 0.710501 -0.257343
C22   C     C_3   0.112498 0.243895 0.466417 -0.380413
C23   C     C_R   0.542767 0.518365 0.929715 0.362106
C24   C     C_3   0.017937 0.165711 0.423026 -0.363511
C25   C     C_3   0.082089 0.060303 0.376767 -0.970421
C26   C     C_3   0.881155 0.715027 0.420260 -0.401363
C27   C     C_3   0.840944 0.641658 0.353706 -0.316122
C28   C     C_3   0.779185 0.738776 0.303454 -0.896845
C29   C     C_3   0.889215 0.277746 0.569228 -0.406006
C30   C     C_3   0.851243 0.344806 0.638833 -0.331101
C31   C     C_3   0.824096 0.240375 0.695257 -0.908451
C32   C     C_3   0.105665 0.763337 0.512906 -0.388549
C33   C     C_3   0.135291 0.763606 0.590948 -0.298224
C34   C     C_R   0.536899 0.522375 0.069045 0.400645
C35   C     C_3   0.178228 0.902960 0.614524 -0.919122
C36   C     C_3   0.368776 0.719549 0.279000 -0.343929
C37   C     C_3   0.249535 0.712429 0.236194 -0.329058
C38   C     C_3   0.151013 0.809349 0.264392 -0.947372
C39   C     C_3   0.405255 0.274746 0.725407 -0.332207
C40   C     C_3   0.278147 0.333381 0.705994 -0.326314
C41   C     C_3   0.202791 0.232269 0.664876 -0.908599
C42   C     C_3   0.659477 0.720018 0.706058 -0.341571
C43   C     C_3   0.789996 0.732681 0.736359 -0.337778
C44   C     C_3   0.856742 0.855669 0.706171 -0.946118
C45   C     C_R   0.496690 0.499106 0.364897 0.895305
C46   C     C_3   0.558526 0.241331 0.280998 -0.331382
C47   C     C_3   0.689778 0.235567 0.310348 -0.287834
C48   C     C_3   0.709388 0.106797 0.353093 -0.888751
C49   C     C_3   0.614005 0.801006 0.126641 0.081654
C50   C     C_3   0.648172 0.931788 0.163875 -0.369407
C51   C     C_3   0.772670 0.986205 0.138555 -0.903123
C52   C     C_3   0.637469 0.235480 0.884588 0.057823
C53   C     C_3   0.673317 0.091065 0.863609 -0.329229
C54   C     C_3   0.806063 0.057336 0.883682 -0.932623
C55   C     C_3   0.454017 0.799920 0.865813 0.086732
C56   C     C_R   0.507862 0.499973 0.634547 0.893720
C57   C     C_3   0.397489 0.882186 0.806556 -0.380636
C58   C     C_3   0.277157 0.950635 0.830227 -0.954612
C59   C     C_3   0.425526 0.222814 0.120055 0.051520
C60   C     C_3   0.427508 0.144408 0.051067 -0.309125
C61   C     C_3   0.313104 0.055466 0.044199 -0.940408
C62   C     C_R   0.061073 0.376601 0.496297 0.042710
C63   C     C_R   0.935427 0.614321 0.471887 0.048069
C64   C     C_R   0.938786 0.383843 0.518651 0.067501
H1    H     H_    0.625021 0.125899 0.583265 0.128382
H2    H     H_    0.188792 0.267311 0.429355 0.227417
H3    H     H_    0.148125 0.178293 0.508621 0.202833
H4    H     H_    0.692026 0.778860 0.327010 0.273291
H5    H     H_    0.841815 0.824251 0.290293 0.262655
H6    H     H_    0.756510 0.683408 0.254957 0.246386
H7    H     H_    0.923415 0.595220 0.327690 0.214831
H8    H     H_    0.774550 0.559426 0.365831 0.210103
H9    H     H_    0.804767 0.775772 0.443783 0.233955
H10   H     H_    0.952029 0.789826 0.403851 0.187222
H11   H     H_    0.745990 0.174699 0.679981 0.252784
H12   H     H_    0.371730 0.874399 0.417952 0.111446
H13   H     H_    0.907336 0.176924 0.704790 0.268153
H14   H     H_    0.798140 0.293613 0.744309 0.251625
H15   H     H_    0.926813 0.411794 0.657020 0.209341
H16   H     H_    0.767556 0.408728 0.632149 0.220138
H17   H     H_    0.812036 0.219870 0.546759 0.214007
H18   H     H_    0.961550 0.200430 0.579746 0.195127
H19   H     H_    0.263005 0.933117 0.585296 0.279136
H20   H     H_    0.104110 0.979402 0.606061 0.259407
H21   H     H_    0.199626 0.899577 0.670771 0.252954
H22   H     H_    0.051096 0.735271 0.621106 0.212876
H23   H     H_    0.371507 0.126126 0.418057 0.119504
H24   H     H_    0.207855 0.688318 0.603874 0.235281
H25   H     H_    0.185050 0.796403 0.480332 0.214007
H26   H     H_    0.033423 0.842580 0.505903 0.189335
H27   H     H_    0.128744 0.784735 0.319479 0.267545
H28   H     H_    0.184609 0.915337 0.260396 0.272524
H29   H     H_    0.065520 0.799641 0.233396 0.262494
H30   H     H_    0.268119 0.738727 0.180906 0.263983
H31   H     H_    0.212429 0.607358 0.238002 0.210006
H32   H     H_    0.340196 0.698304 0.333255 0.204094
H33   H     H_    0.408525 0.823400 0.277101 0.207283
H34   H     H_    0.629700 0.874543 0.581152 0.120529
H35   H     H_    0.256894 0.193986 0.619337 0.282709
H36   H     H_    0.174106 0.146786 0.698543 0.258167
H37   H     H_    0.118924 0.284012 0.645893 0.258070
H38   H     H_    0.226233 0.361814 0.754247 0.215314
H39   H     H_    0.287127 0.426518 0.674099 0.213972
H40   H     H_    0.450427 0.218448 0.681967 0.213837
H41   H     H_    0.388471 0.196631 0.765832 0.232539
H42   H     H_    0.859676 0.850563 0.648419 0.263057
H43   H     H_    0.807795 0.949793 0.722520 0.275051
H44   H     H_    0.952746 0.859393 0.725920 0.265033
H45   H     H_    0.144165 0.110955 0.338444 0.262313
H46   H     H_    0.786892 0.744107 0.793777 0.266400
H47   H     H_    0.844201 0.639359 0.723798 0.202008
H48   H     H_    0.675960 0.693365 0.650906 0.205607
H49   H     H_    0.610247 0.819191 0.708969 0.208074
H50   H     H_    0.685713 0.126470 0.408458 0.279277
H51   H     H_    0.652078 0.021705 0.334006 0.249708
H52   H     H_    0.807384 0.074830 0.349649 0.247430
H53   H     H_    0.757239 0.236739 0.266206 0.207697
H54   H     H_    0.709273 0.325368 0.343327 0.216726
H55   H     H_    0.486196 0.212387 0.319311 0.201928
H56   H     H_    0.137394 0.989368 0.408655 0.261728
H57   H     H_    0.553367 0.158755 0.242403 0.198429
H58   H     H_    0.608459 0.821266 0.069884 0.174442
H59   H     H_    0.690351 0.725888 0.134289 0.133372
H60   H     H_    0.575653 0.007922 0.154224 0.253215
H61   H     H_    0.650969 0.914063 0.220668 0.222018
H62   H     H_    0.847477 0.911897 0.149534 0.254284
H63   H     H_    0.793246 0.082520 0.166021 0.274171
H64   H     H_    0.770304 0.006542 0.081752 0.262448
H65   H     H_    0.636181 0.242664 0.942315 0.173212
H66   H     H_    0.711498 0.305132 0.865035 0.133739
H67   H     H_    0.012052 0.001879 0.347834 0.262182
H68   H     H_    0.610439 0.019881 0.890598 0.246216
H69   H     H_    0.663468 0.078434 0.806481 0.224203
H70   H     H_    0.871986 0.124254 0.855401 0.262398
H71   H     H_    0.827408 0.950332 0.869653 0.281470
H72   H     H_    0.818083 0.070226 0.940641 0.260109
H73   H     H_    0.461980 0.865196 0.912652 0.162420
H74   H     H_    0.388651 0.717703 0.881077 0.138067
H75   H     H_    0.463631 0.960842 0.788573 0.227587
H76   H     H_    0.378024 0.813649 0.762035 0.216145
H77   H     H_    0.211572 0.874622 0.851777 0.264846
H78   H     H_    0.950848 0.112884 0.457643 0.220334
H79   H     H_    0.233184 0.000900 0.785428 0.257888
H80   H     H_    0.296171 0.028972 0.870252 0.284339
H81   H     H_    0.353665 0.304204 0.116223 0.139339
H82   H     H_    0.396752 0.154019 0.163002 0.135790
H83   H     H_    0.430858 0.217404 0.007152 0.247433
H84   H     H_    0.511295 0.079117 0.047010 0.227506
H85   H     H_    0.309071 0.980041 0.087055 0.281065
H86   H     H_    0.317367 0.999599 0.994068 0.260305
H87   H     H_    0.227925 0.118979 0.045643 0.264967
H88   H     H_    0.966558 0.237391 0.389214 0.236722
N1    N     N_R   0.500000 0.857200 0.500000 -0.074729
N2    N     N_R   0.500000 0.142800 0.500000 -0.081196
N3    N     N_R   0.646113 0.535270 0.034459 -0.195345
N4    N     N_R   0.433901 0.504860 0.964369 -0.185650
N5    N     N_R   0.648886 0.534604 0.965371 -0.181719
N6    N     N_R   0.430912 0.507879 0.033270 -0.188022
O1    O     O_R   0.316770 0.614620 0.500000 -0.620721
O2    O     O_3   0.516936 0.266058 0.860062 -0.656589
O3    O     O_3   0.574416 0.752770 0.847299 -0.652386
O4    O     O_3   0.545603 0.273432 0.133487 -0.645628
O5    O     O_R   0.683230 0.385380 0.500000 -0.628283
O6    O     O_R   0.683230 0.614620 0.500000 -0.626918
O7    O     O_R   0.316770 0.385380 0.500000 -0.627635
O8    O     O_R   0.499990 0.614700 0.398140 -0.623228
O9    O     O_R   0.500010 0.385300 0.601860 -0.605707
O10   O     O_R   0.500010 0.614700 0.601860 -0.628993
O11   O     O_R   0.499990 0.385300 0.398140 -0.615986
O12   O     O_3   0.495724 0.757827 0.150323 -0.655526
Zn1   Zn    Zn3+2 0.500000 0.653120 0.500000 0.920061
Zn2   Zn    Zn3+2 0.500000 0.346880 0.500000 0.918736

loop_
_geom_bond_atom_site_label_1
_geom_bond_atom_site_label_2
_ccdc_geom_bond_type
C52   O2    S    
C4    C62   A    
N3    N5    A    
C14   C18   A    
C19   C23   S    
C28   H5    S    
C14   O12   S    
C39   H40   S    
C53   C54   S    
C52   C53   S    
C15   C19   A    
C57   H75   S    
C26   C27   S    
C29   C30   S    
C55   H74   S    
O1    Zn1   S    
C53   H69   S    
C52   H65   S    
C36   C37   S    
C28   H4    S    
C33   H24   S    
C10   C15   A    
C49   O12   S    
C22   C62   S    
C54   H71   S    
C5    N2    A    
C54   H70   S    
C38   H28   S    
C26   H9    S    
C37   H31   S    
C11   C42   S    
C2    C32   S    
C42   H48   S    
C22   H2    S    
C62   C64   A    
C3    C12   S    
C24   H88   S    
C26   H10   S    
C58   H79   S    
O10   Zn1   S    
C32   H26   S    
C47   C48   S    
C24   H78   S    
C46   H55   S    
C9    C36   S    
C41   H35   S    
C46   H57   S    
C36   H33   S    
C43   H46   S    
C45   O8    A    
C20   C45   S    
C25   H45   S    
C48   H52   S    
C30   H16   S    
O7    Zn2   S    
C29   C64   S    
C59   C60   S    
C23   N4    A    
C56   O10   A    
C43   H47   S    
C34   N3    A    
C31   H13   S    
C44   H44   S    
C10   C21   A    
C7    H23   S    
C1    O1    A    
C50   H60   S    
C24   C25   S    
C55   O3    S    
C5    H1    S    
C39   C40   S    
C50   H61   S    
C9    C14   A    
C35   H19   S    
C50   C51   S    
C3    C64   A    
C38   H27   S    
C11   C21   A    
C57   H76   S    
C10   C39   S    
C47   H54   S    
C2    C4    A    
C26   C63   S    
C29   H17   S    
C37   C38   S    
O5    Zn2   S    
C12   O6    A    
C61   H87   S    
C11   C16   A    
C36   H32   S    
C9    C20   A    
C31   H11   S    
C32   H25   S    
C1    O7    A    
C54   H72   S    
N1    Zn1   S    
C17   C18   A    
C41   H36   S    
N2    Zn2   S    
C53   H68   S    
C8    H34   S    
C8    N1    A    
C18   C34   S    
C6    C7    A    
O8    Zn1   S    
C48   H51   S    
C30   H15   S    
C34   N6    A    
C40   C41   S    
C60   H83   S    
C44   H42   S    
C55   C57   S    
C43   C44   S    
O11   Zn2   S    
C22   C24   S    
C5    C8    A    
C42   C43   S    
C51   H64   S    
C25   H67   S    
C25   H56   S    
C59   H81   S    
C42   H49   S    
C27   H7    S    
C2    C63   A    
C31   H14   S    
C48   H50   S    
C61   H86   S    
C44   H43   S    
C39   H41   S    
C46   C47   S    
C13   C20   A    
C38   H29   S    
C51   H62   S    
C28   H6    S    
C45   O11   A    
C21   C56   S    
C35   H20   S    
C6    H12   S    
O9    Zn2   S    
C3    C63   A    
C16   O3    S    
C55   H73   S    
C13   C17   A    
C1    C4    S    
C51   H63   S    
C32   C33   S    
N4    N6    A    
C52   H66   S    
C15   O2    S    
C59   O4    S    
C40   H39   S    
C35   H21   S    
C58   H77   S    
C57   C58   S    
C30   C31   S    
C7    N2    A    
C16   C19   A    
C49   H58   S    
C23   N5    A    
C56   O9    A    
C33   C35   S    
C41   H37   S    
C37   H30   S    
C29   H18   S    
C22   H3    S    
C6    N1    A    
C17   O4    S    
C40   H38   S    
C59   H82   S    
C58   H80   S    
C47   H53   S    
C49   C50   S    
C27   C28   S    
C13   C46   S    
C60   C61   S    
O6    Zn1   S    
C60   H84   S    
C61   H85   S    
C33   H22   S    
C27   H8    S    
C12   O5    A    
C49   H59   S    
