data_mof_unit_14338.cif
_audit_creation_date              2012-12-10T19:30:31-0500
_audit_creation_method            fapswitch 2.2
_symmetry_space_group_name_H-M    P1
_symmetry_Int_Tables_number       1
_space_group_crystal_system       triclinic
_cell_length_a                    14.970602
_cell_length_b                    15.704109
_cell_length_c                    16.897148
_cell_angle_alpha                 90.171484
_cell_angle_beta                  84.500142
_cell_angle_gamma                 92.395642
_cell_volume                      3950.77316837

loop_
_atom_site_label
_atom_site_type_symbol
_atom_type_description
_atom_site_fract_x
_atom_site_fract_y
_atom_site_fract_z
_atom_type_partial_charge
C1    C     C_R   0.501736 0.662431 0.500103 0.854632
C2    C     C_3   0.577815 0.035252 0.498525 0.603647
C3    C     C_3   0.504140 0.917111 0.501770 0.083270
C4    C     C_3   0.489826 0.081618 0.503205 0.065955
C5    C     C_1   0.506714 0.826500 0.501364 -0.011423
C6    C     C_1   0.489642 0.172675 0.502725 0.009704
C7    C     C_3   0.038536 0.572624 0.460776 0.484764
C8    C     C_3   0.962797 0.434449 0.531244 0.488478
C9    C     C_3   0.980537 0.504952 0.420791 0.463647
C10   C     C_3   0.020568 0.502167 0.570933 0.483428
C11   C     C_3   0.968615 0.574358 0.535121 -0.538259
C12   C     C_R   0.498102 0.337373 0.500257 0.912784
C13   C     C_3   0.032568 0.433355 0.456610 -0.482615
C14   C     C_3   0.910390 0.505277 0.494861 -0.175428
C15   C     C_3   0.090359 0.502067 0.497217 -0.126726
C16   C     C_R   0.487522 0.506259 0.653142 0.945882
C17   C     C_R   0.513201 0.501777 0.346702 0.975516
C18   C     C_1   0.810157 0.502440 0.498387 0.126335
C19   C     C_1   0.190120 0.501082 0.498966 0.166640
C20   C     C_R   0.479671 0.531379 0.737139 -0.350687
C21   C     C_R   0.523286 0.519509 0.261770 -0.301125
C22   C     C_R   0.554251 0.527317 0.781797 0.451097
C23   C     C_3   0.454683 0.022675 0.438610 -0.312273
C24   C     C_R   0.456521 0.488339 0.215165 0.447364
C25   C     C_R   0.543634 0.547207 0.862295 -0.355771
C26   C     C_R   0.460104 0.515505 0.136338 -0.359281
C27   C     C_R   0.462860 0.578503 0.897739 -0.050077
C28   C     C_R   0.524436 0.577730 0.105947 -0.051315
C29   C     C_R   0.389408 0.584699 0.853184 0.387449
C30   C     C_R   0.595892 0.602310 0.150376 0.413855
C31   C     C_R   0.399970 0.567899 0.771545 0.314392
C32   C     C_R   0.593938 0.575430 0.229538 0.281951
C33   C     C_2   0.452100 0.595334 0.983364 -0.125774
C34   C     C_3   0.538728 0.975490 0.566364 -0.313971
C35   C     C_2   0.523795 0.608392 0.023958 -0.144956
C36   C     C_3   0.704375 0.564732 0.748650 0.115918
C37   C     C_3   0.693851 0.635773 0.688072 -0.335524
C38   C     C_3   0.767101 0.705902 0.690834 -0.998633
C39   C     C_3   0.305666 0.436826 0.228192 0.106390
C40   C     C_3   0.267013 0.520273 0.261509 -0.389544
C41   C     C_3   0.169936 0.527269 0.242960 -0.863546
C42   C     C_3   0.019568 0.705901 0.408952 0.095914
C43   C     C_3   0.059971 0.768091 0.344587 -0.310808
C44   C     C_3   0.996903 0.839831 0.332599 -0.988038
C45   C     C_3   0.544417 0.976012 0.433798 -0.327335
C46   C     C_3   0.969077 0.292795 0.570413 0.129059
C47   C     C_3   0.940279 0.232013 0.505600 -0.369511
C48   C     C_3   0.991437 0.150101 0.504136 -0.992927
C49   C     C_3   0.658960 0.680694 0.301898 0.144196
C50   C     C_3   0.738128 0.700554 0.350830 -0.319620
C51   C     C_3   0.738947 0.792164 0.381033 -1.020648
C52   C     C_3   0.352748 0.667074 0.687412 0.149236
C53   C     C_3   0.327470 0.742566 0.741662 -0.382492
C54   C     C_3   0.340966 0.826592 0.696290 -0.939685
C55   C     C_3   0.246253 0.544276 0.899891 0.108593
C56   C     C_3   0.448972 0.022226 0.571226 -0.329788
C57   C     C_3   0.152169 0.578061 0.916384 -0.320027
C58   C     C_3   0.081187 0.505363 0.927197 -0.993472
C59   C     C_3   0.731309 0.611083 0.073554 0.077875
C60   C     C_3   0.805514 0.587253 0.124711 -0.307117
C61   C     C_3   0.887741 0.557044 0.073715 -1.011256
C62   C     C_3   0.732369 0.022175 0.487984 0.065274
C63   C     C_3   0.774453 0.017976 0.566767 -0.317486
C64   C     C_3   0.846513 0.951980 0.562831 -1.005103
C65   C     C_3   0.261014 0.964243 0.515852 0.058095
C66   C     C_3   0.176628 0.905743 0.526620 -0.293037
C67   C     C_1   0.505483 0.751241 0.500873 -0.191203
C68   C     C_3   0.091458 0.955126 0.527546 -1.008473
C69   C     C_3   0.887418 0.487371 0.317097 0.080435
C70   C     C_3   0.866538 0.391050 0.325402 -0.391943
C71   C     C_3   0.776287 0.366347 0.295015 -0.881566
C72   C     C_3   0.020626 0.560759 0.698033 0.117421
C73   C     C_3   0.088791 0.636380 0.684253 -0.371658
C74   C     C_3   0.054721 0.716254 0.726738 -0.993316
C75   C     C_1   0.493155 0.248176 0.501617 -0.162698
C76   C     C_3   0.415903 0.962706 0.506495 0.581747
H1    H     H_    0.058862 0.377108 0.423588 0.171044
H2    H     H_    0.572702 0.952800 0.617372 0.150748
H3    H     H_    0.769730 0.535179 0.732263 0.165820
H4    H     H_    0.708801 0.592123 0.809004 0.109766
H5    H     H_    0.697964 0.608628 0.627232 0.253705
H6    H     H_    0.627528 0.664753 0.700580 0.201412
H7    H     H_    0.763945 0.735429 0.750797 0.270881
H8    H     H_    0.757474 0.755938 0.646504 0.271543
H9    H     H_    0.834246 0.679512 0.676352 0.255196
H10   H     H_    0.263537 0.383236 0.256458 0.161979
H11   H     H_    0.298977 0.430128 0.163662 0.116283
H12   H     H_    0.943464 0.633282 0.564211 0.169616
H13   H     H_    0.269587 0.521936 0.326955 0.254550
H14   H     H_    0.306866 0.576190 0.235112 0.216344
H15   H     H_    0.166272 0.529483 0.177643 0.242305
H16   H     H_    0.142438 0.586498 0.269557 0.303241
H17   H     H_    0.128547 0.471688 0.268060 0.288565
H18   H     H_    0.004558 0.741538 0.465369 0.141970
H19   H     H_    0.955721 0.677400 0.389512 0.150052
H20   H     H_    0.124865 0.795933 0.361415 0.226771
H21   H     H_    0.073194 0.733249 0.287596 0.224572
H22   H     H_    0.933570 0.813564 0.311163 0.274831
H23   H     H_    0.586673 0.631651 0.992715 0.163631
H24   H     H_    0.029479 0.885328 0.287476 0.270155
H25   H     H_    0.981226 0.874778 0.389147 0.266825
H26   H     H_    0.955663 0.260003 0.628766 0.168298
H27   H     H_    0.042917 0.307792 0.562520 0.135178
H28   H     H_    0.867112 0.216148 0.516618 0.247595
H29   H     H_    0.952625 0.263042 0.446481 0.211747
H30   H     H_    0.064728 0.164435 0.491732 0.268790
H31   H     H_    0.968954 0.107532 0.456687 0.271666
H32   H     H_    0.978233 0.116635 0.562132 0.277197
H33   H     H_    0.595031 0.687437 0.340431 0.119412
H34   H     H_    0.385790 0.584449 0.014500 0.167986
H35   H     H_    0.662023 0.727370 0.252226 0.176216
H36   H     H_    0.734244 0.656397 0.402411 0.236360
H37   H     H_    0.802080 0.690378 0.313523 0.205402
H38   H     H_    0.746136 0.837610 0.330364 0.266642
H39   H     H_    0.796374 0.803483 0.417267 0.267795
H40   H     H_    0.676052 0.803921 0.418803 0.274930
H41   H     H_    0.313228 0.668807 0.635080 0.180212
H42   H     H_    0.424851 0.674338 0.663917 0.097510
H43   H     H_    0.256162 0.734311 0.766321 0.248700
H44   H     H_    0.370300 0.745556 0.791791 0.241572
H45   H     H_    0.414758 0.485923 0.097728 0.162540
H46   H     H_    0.412709 0.837477 0.673800 0.274351
H47   H     H_    0.320480 0.880034 0.736233 0.263344
H48   H     H_    0.299412 0.825435 0.645465 0.291010
H49   H     H_    0.261915 0.506016 0.951787 0.114955
H50   H     H_    0.246316 0.501829 0.846794 0.170583
H51   H     H_    0.148771 0.618057 0.970894 0.224652
H52   H     H_    0.137803 0.618338 0.865587 0.230784
H53   H     H_    0.086187 0.462155 0.874932 0.272260
H54   H     H_    0.013371 0.531847 0.932835 0.268222
H55   H     H_    0.089781 0.468382 0.981695 0.271529
H56   H     H_    0.598540 0.535020 0.897319 0.165491
H57   H     H_    0.761001 0.653481 0.024545 0.162050
H58   H     H_    0.704102 0.552694 0.044758 0.108529
H59   H     H_    0.825733 0.643290 0.160238 0.240619
H60   H     H_    0.779479 0.535076 0.165809 0.231579
H61   H     H_    0.869208 0.500780 0.037823 0.270425
H62   H     H_    0.939730 0.538806 0.112405 0.275360
H63   H     H_    0.916577 0.609058 0.033469 0.269927
H64   H     H_    0.784448 0.046619 0.441370 0.165512
H65   H     H_    0.712041 0.956601 0.469198 0.135908
H66   H     H_    0.804776 0.081479 0.580215 0.234844
H67   H     H_    0.584628 0.954947 0.379147 0.155936
H68   H     H_    0.722352 0.000789 0.615889 0.218019
H69   H     H_    0.815847 0.886997 0.556371 0.265758
H70   H     H_    0.880918 0.954344 0.618207 0.275720
H71   H     H_    0.896605 0.965433 0.511203 0.271263
H72   H     H_    0.260256 0.002225 0.460390 0.145706
H73   H     H_    0.261638 0.007690 0.568051 0.136388
H74   H     H_    0.177982 0.858611 0.477463 0.236376
H75   H     H_    0.175193 0.870212 0.583490 0.217402
H76   H     H_    0.088243 0.002239 0.576763 0.274919
H77   H     H_    0.032926 0.909470 0.537048 0.272183
H78   H     H_    0.408780 0.042932 0.625994 0.157138
H79   H     H_    0.088955 0.988271 0.469886 0.276640
H80   H     H_    0.886799 0.504041 0.253557 0.178296
H81   H     H_    0.834964 0.525826 0.348971 0.145068
H82   H     H_    0.920327 0.356056 0.290910 0.224916
H83   H     H_    0.864079 0.371445 0.388580 0.225943
H84   H     H_    0.721575 0.400049 0.329457 0.293202
H85   H     H_    0.762603 0.296622 0.302165 0.261718
H86   H     H_    0.777114 0.382779 0.231048 0.254338
H87   H     H_    0.020420 0.539858 0.760749 0.164275
H88   H     H_    0.950651 0.578998 0.691777 0.129082
H89   H     H_    0.418736 0.043802 0.388123 0.155500
H90   H     H_    0.153044 0.619393 0.706693 0.254534
H91   H     H_    0.102439 0.650879 0.619853 0.233146
H92   H     H_    0.992701 0.736349 0.702153 0.270824
H93   H     H_    0.106518 0.768901 0.717641 0.271089
H94   H     H_    0.040123 0.704194 0.791485 0.264105
N1    N     N_1   0.731990 0.500000 0.499970 -0.107974
N2    N     N_1   0.268010 0.500000 0.500030 -0.102466
O1    O     O_R   0.425540 0.623220 0.500000 -0.619098
O2    O     O_3   0.394723 0.425626 0.247114 -0.626246
O3    O     O_3   0.082367 0.643555 0.420511 -0.639187
O4    O     O_3   0.916681 0.365589 0.573150 -0.625032
O5    O     O_3   0.665586 0.596570 0.272990 -0.638064
O6    O     O_3   0.331186 0.588005 0.726469 -0.620784
O7    O     O_3   0.308977 0.613988 0.887971 -0.642974
O8    O     O_3   0.664888 0.657259 0.118716 -0.653039
O9    O     O_3   0.661976 0.079876 0.494253 -0.641107
O10   O     O_3   0.335563 0.912394 0.510227 -0.650635
O11   O     O_3   0.973803 0.511059 0.338086 -0.657208
O12   O     O_R   0.574460 0.376780 0.500000 -0.592921
O13   O     O_3   0.045590 0.491157 0.648869 -0.635390
O14   O     O_R   0.574480 0.623220 0.499990 -0.638400
O15   O     O_R   0.425520 0.376780 0.500010 -0.614435
O16   O     O_R   0.416730 0.500010 0.615810 -0.582338
O17   O     O_R   0.583270 0.499990 0.384190 -0.596202
O18   O     O_R   0.565670 0.500010 0.615790 -0.577047
O19   O     O_R   0.434330 0.499990 0.384210 -0.598080
O20   O     O_3   0.635911 0.499357 0.747395 -0.601492
Zn1   Zn    Zn3+2 0.400550 0.500000 0.500010 0.988326
Zn2   Zn    Zn3+2 0.599450 0.500000 0.499990 0.978011

loop_
_geom_bond_atom_site_label_1
_geom_bond_atom_site_label_2
_ccdc_geom_bond_type
C66   C68   S    
C54   H47   S    
C34   C56   S    
C8    C13   S    
C23   C45   S    
C71   H86   S    
C64   H69   S    
C27   C29   A    
C11   H12   S    
C73   C74   S    
C14   C18   S    
C2    C4    S    
C39   H11   S    
C23   C76   S    
C73   H91   S    
C68   H79   S    
C24   O2    S    
C57   H52   S    
C74   H92   S    
C53   H44   S    
C6    C75   T    
C48   H32   S    
C1    O14   A    
C27   C33   S    
C15   C19   S    
C71   H84   S    
C46   H26   S    
C1    O1    A    
C37   C38   S    
C56   C76   S    
C59   O8    S    
C24   C26   A    
C66   H74   S    
C42   O3    S    
N1    Zn2   S    
C38   H7    S    
C11   C14   S    
C76   O10   S    
C61   H62   S    
C48   H31   S    
C58   H53   S    
C10   O13   S    
C70   H83   S    
C9    C13   S    
C74   H93   S    
C33   C35   D    
C23   H89   S    
C44   H22   S    
O17   Zn2   S    
C72   H87   S    
C48   H30   S    
C55   H49   S    
C28   C35   S    
C47   H29   S    
C22   C25   A    
C7    O3    S    
C69   H81   S    
C63   H68   S    
C70   C71   S    
C26   H45   S    
C40   H13   S    
C30   C32   A    
C60   H60   S    
C5    C67   T    
C49   H35   S    
C64   H70   S    
C52   H41   S    
C2    C34   S    
C7    C15   S    
C54   H46   S    
C59   C60   S    
C42   H18   S    
C4    C56   S    
C29   C31   A    
C37   H5    S    
N2    Zn1   S    
C39   O2    S    
C35   H23   S    
C43   H20   S    
C49   O5    S    
C65   O10   S    
C2    C45   S    
C21   C32   A    
C41   H17   S    
C51   H38   S    
C38   H9    S    
C42   H19   S    
C69   H80   S    
C17   O19   A    
C19   N2    T    
C72   C73   S    
C4    C6    S    
C68   H77   S    
C36   H4    S    
C39   C40   S    
C4    C23   S    
C61   H63   S    
C31   O6    S    
C3    C34   S    
C17   O17   A    
C18   N1    T    
C12   O15   A    
C3    C45   S    
C17   C21   S    
C60   C61   S    
C70   H82   S    
C2    O9    S    
C7    C11   S    
C43   C44   S    
O19   Zn1   S    
C62   C63   S    
C68   H76   S    
C47   C48   S    
C55   H50   S    
C58   H55   S    
C16   C20   S    
C50   H36   S    
C50   C51   S    
C72   H88   S    
C9    C14   S    
C65   H72   S    
C3    C76   S    
C60   H59   S    
C16   O18   A    
C69   O11   S    
C56   H78   S    
C9    O11   S    
C41   H15   S    
C20   C22   A    
O16   Zn1   S    
C49   C50   S    
C55   C57   S    
C13   H1    S    
C16   O16   A    
C46   O4    S    
C37   H6    S    
C21   C24   A    
C42   C43   S    
C62   H65   S    
C22   O20   S    
C53   H43   S    
C52   C53   S    
C49   H33   S    
C7    C9    S    
C54   H48   S    
C46   C47   S    
C40   C41   S    
C8    C14   S    
C47   H28   S    
C71   H85   S    
C38   H8    S    
C36   O20   S    
C55   O7    S    
O14   Zn2   S    
C8    C10   S    
C43   H21   S    
C73   H90   S    
C3    C5    S    
C36   H3    S    
C57   H51   S    
C44   H25   S    
C8    O4    S    
C53   C54   S    
C25   C27   A    
C46   H27   S    
C59   H58   S    
C26   C28   A    
C51   H40   S    
C10   C15   S    
C50   H37   S    
C62   H64   S    
C13   C15   S    
C66   H75   S    
C64   H71   S    
C34   H2    S    
C62   O9    S    
O1    Zn1   S    
C44   H24   S    
C61   H61   S    
C57   C58   S    
C12   O12   A    
C58   H54   S    
O12   Zn2   S    
C28   C30   A    
C1    C67   S    
C63   H66   S    
C59   H57   S    
C65   H73   S    
C69   C70   S    
C32   O5    S    
C51   H39   S    
C72   O13   S    
C74   H94   S    
C10   C11   S    
O18   Zn2   S    
C63   C64   S    
C41   H16   S    
C36   C37   S    
C65   C66   S    
C29   O7    S    
C12   C75   S    
C45   H67   S    
C30   O8    S    
C33   H34   S    
C39   H10   S    
C40   H14   S    
C52   O6    S    
C25   H56   S    
O15   Zn1   S    
C20   C31   A    
C52   H42   S    
