data_mof_unit_10912.cif
_audit_creation_date              2012-12-10T18:43:11-0500
_audit_creation_method            fapswitch 2.2
_symmetry_space_group_name_H-M    P1
_symmetry_Int_Tables_number       1
_space_group_crystal_system       triclinic
_cell_length_a                    10.709514
_cell_length_b                    9.838691
_cell_length_c                    10.696349
_cell_angle_alpha                 90.143331
_cell_angle_beta                  89.722283
_cell_angle_gamma                 89.957188
_cell_volume                      1127.03152135

loop_
_atom_site_label
_atom_site_type_symbol
_atom_type_description
_atom_site_fract_x
_atom_site_fract_y
_atom_site_fract_z
_atom_type_partial_charge
C1    C     C_R   0.259901 0.499947 0.499679 0.852760
C2    C     C_R   0.936025 0.380019 0.528305 -0.203255
C3    C     C_R   0.872575 0.499667 0.498623 -0.004078
C4    C     C_R   0.127488 0.499793 0.498904 -0.003647
C5    C     C_R   0.936137 0.619152 0.468312 -0.199730
C6    C     C_R   0.064082 0.619187 0.468386 -0.207625
C7    C     C_R   0.592140 0.071723 0.439940 -0.078931
C8    C     C_R   0.407451 0.072207 0.559446 -0.053168
C9    C     C_R   0.592126 0.927840 0.439914 -0.070153
C10   C     C_R   0.407590 0.928314 0.559654 -0.088592
C11   C     C_3   0.529898 0.171367 0.935910 0.145776
C12   C     C_R   0.740113 0.499883 0.499558 0.851328
C13   C     C_3   0.552083 0.049186 0.851329 -0.828116
C14   C     C_3   0.232903 0.363360 0.142409 0.140310
C15   C     C_3   0.150485 0.262997 0.212382 -0.813956
C16   C     C_R   0.498664 0.499561 0.262438 0.995278
C17   C     C_R   0.491911 0.499898 0.737614 0.995481
C18   C     C_2   0.447404 0.387395 0.935324 0.428351
C19   C     C_2   0.428836 0.402623 0.069676 0.359700
C20   C     C_2   0.463368 0.501252 0.868232 -0.535461
C21   C     C_2   0.496559 0.496650 0.130124 -0.535613
C22   C     C_R   0.063923 0.380153 0.528660 -0.203397
H1    H     H_    0.112670 0.287430 0.553014 0.151435
H2    H     H_    0.621767 0.221937 0.951580 0.112957
H3    H     H_    0.593054 0.082777 0.760996 0.263482
H4    H     H_    0.617888 0.977558 0.896701 0.201613
H5    H     H_    0.462588 0.995664 0.833730 0.253492
H6    H     H_    0.192301 0.380024 0.047919 0.133548
H7    H     H_    0.232686 0.461063 0.195428 0.121938
H8    H     H_    0.190300 0.241904 0.306014 0.267313
H9    H     H_    0.055269 0.306067 0.224331 0.204923
H10   H     H_    0.144128 0.166235 0.159112 0.248688
H11   H     H_    0.453112 0.601205 0.910640 0.129348
H12   H     H_    0.887185 0.287224 0.552458 0.154927
H13   H     H_    0.557175 0.568429 0.082521 0.122791
H14   H     H_    0.887344 0.711867 0.444022 0.148863
H15   H     H_    0.112997 0.711891 0.444094 0.155213
H16   H     H_    0.665766 0.126004 0.391813 0.124582
H17   H     H_    0.333852 0.126868 0.607615 0.143816
H18   H     H_    0.665734 0.873203 0.391740 0.120681
H19   H     H_    0.333983 0.874070 0.607835 0.130005
H20   H     H_    0.492531 0.133671 0.026509 0.186420
N1    N     N_R   0.500000 0.857200 0.500000 -0.075652
N2    N     N_R   0.500000 0.142810 0.500000 -0.078770
O1    O     O_R   0.316770 0.614620 0.499990 -0.636076
O2    O     O_3   0.354771 0.309712 0.133006 -0.585533
O3    O     O_R   0.683230 0.614620 0.500010 -0.630989
O4    O     O_R   0.316800 0.385290 0.500000 -0.631958
O5    O     O_R   0.683200 0.385290 0.500000 -0.641667
O6    O     O_R   0.500000 0.614630 0.319080 -0.627910
O7    O     O_R   0.500000 0.614630 0.680920 -0.626379
O8    O     O_R   0.500030 0.385300 0.319080 -0.565401
O9    O     O_R   0.499970 0.385300 0.680920 -0.554591
O10   O     O_3   0.443255 0.259914 0.878734 -0.574828
Zn1   Zn    Zn3+2 0.500000 0.653120 0.500000 0.937424
Zn2   Zn    Zn3+2 0.500000 0.346880 0.500000 0.973036

loop_
_geom_bond_atom_site_label_1
_geom_bond_atom_site_label_2
_ccdc_geom_bond_type
C2    C22   A    
C8    N2    A    
C1    O4    A    
C15   H9    S    
C16   C21   S    
C21   H13   S    
C8    H17   S    
C17   O7    A    
O5    Zn2   S    
C4    C22   A    
N2    Zn2   S    
O7    Zn1   S    
O6    Zn1   S    
C1    C4    S    
C13   H3    S    
C7    C9    A    
C2    H12   S    
C2    C3    A    
C19   O2    S    
C15   H10   S    
C14   O2    S    
C7    N2    A    
C10   H19   S    
C11   C13   S    
C1    O1    A    
C11   O10   S    
O8    Zn2   S    
C15   H8    S    
C12   O3    A    
C20   H11   S    
C4    C6    A    
C19   C21   D    
C7    H16   S    
C16   O6    A    
C12   O5    A    
C18   C20   D    
C5    C6    A    
C13   H4    S    
C6    H15   S    
C9    N1    A    
C18   O10   S    
C14   H7    S    
C5    H14   S    
C17   O9    A    
C11   H2    S    
C17   C20   S    
O1    Zn1   S    
C11   H20   S    
C8    C10   A    
C18   C19   S    
O9    Zn2   S    
N1    Zn1   S    
O4    Zn2   S    
O3    Zn1   S    
C14   C15   S    
C13   H5    S    
C3    C12   S    
C14   H6    S    
C10   N1    A    
C22   H1    S    
C9    H18   S    
C16   O8    A    
C3    C5    A    
