data_mof_unit_5216.cif
_audit_creation_date              2012-12-10T17:03:41-0500
_audit_creation_method            fapswitch 2.2
_symmetry_space_group_name_H-M    P1
_symmetry_Int_Tables_number       1
_space_group_crystal_system       triclinic
_cell_length_a                    10.059587
_cell_length_b                    10.707008
_cell_length_c                    13.208006
_cell_angle_alpha                 89.903558
_cell_angle_beta                  70.563209
_cell_angle_gamma                 89.075729
_cell_volume                      1341.34849912

loop_
_atom_site_label
_atom_site_type_symbol
_atom_type_description
_atom_site_fract_x
_atom_site_fract_y
_atom_site_fract_z
_atom_type_partial_charge
C1    C     C_R   0.495764 0.736907 0.507099 0.912711
C2    C     C_R   0.447818 0.517570 0.978349 0.035186
C3    C     C_R   0.466345 0.555349 0.872975 -0.030023
C4    C     C_R   0.548413 0.554996 0.025132 -0.000809
C5    C     C_R   0.681537 0.599153 0.961864 -0.047693
C6    C     C_R   0.694662 0.644973 0.858687 0.008639
C7    C     C_R   0.582411 0.631641 0.819617 -0.180939
C8    C     C_R   0.514557 0.560213 0.135291 -0.028150
C9    C     C_R   0.763360 0.555659 0.113654 0.334629
C10   C     C_R   0.372848 0.511539 0.821695 -0.333858
C11   C     C_2   0.574277 0.066140 0.550437 0.402815
C12   C     C_R   0.421607 0.505710 0.703914 0.928994
C13   C     C_2   0.512469 0.129610 0.489158 0.244052
C14   C     C_2   0.588118 0.931240 0.540350 -0.247956
C15   C     C_2   0.480898 0.866781 0.531132 -0.256959
C16   C     C_2   0.089580 0.406951 0.465760 0.457621
C17   C     C_2   0.949434 0.420207 0.445820 -0.112865
C18   C     C_R   0.501963 0.262647 0.498736 0.880838
C19   C     C_R   0.577537 0.509357 0.296154 0.916396
C20   C     C_R   0.791565 0.599614 0.007078 0.456939
C21   C     C_R   0.621158 0.539340 0.180411 -0.288336
C22   C     C_R   0.247774 0.450341 0.882400 0.386342
C23   C     C_R   0.231064 0.410493 0.986224 0.385331
C24   C     C_R   0.337487 0.434331 0.031177 0.234568
H1    H     H_    0.686441 0.886613 0.539197 0.177834
H2    H     H_    0.378837 0.910846 0.542047 0.203019
H3    H     H_    0.865276 0.539971 0.565221 0.159432
H4    H     H_    0.589457 0.677296 0.744771 0.150834
N1    N     N_2   0.148270 0.498670 0.498870 -0.156989
N2    N     N_2   0.852610 0.498640 0.498840 -0.210105
O1    O     O_R   0.386950 0.680940 0.500020 -0.624597
O2    O     O_R   0.613110 0.680900 0.499980 -0.616799
O3    O     O_R   0.330780 0.500000 0.653640 -0.610707
O4    O     O_R   0.556930 0.499960 0.653610 -0.602593
O5    O     O_R   0.386890 0.319100 0.500020 -0.549033
O6    O     O_R   0.613050 0.319060 0.499980 -0.574734
O7    O     O_R   0.443070 0.500040 0.346390 -0.588108
O8    O     O_R   0.669220 0.500000 0.346360 -0.600345
Zn1   Zn    Zn3+2 0.349000 0.500030 0.500020 1.036076
Zn2   Zn    Zn3+2 0.651000 0.499970 0.499980 0.997578
O9    O     O_3   0.874379 0.536697 0.151012 -0.744561
H5    H     H_    0.858531 0.456175 0.189405 0.365655
O10   O     O_3   0.472483 0.070599 0.410633 -0.781018
H6    H     H_    0.436994 0.134245 0.370819 0.363619
O11   O     O_3   0.160341 0.293206 0.447969 -0.710185
H7    H     H_    0.097773 0.228125 0.436872 0.327717
C25   C     C_1   0.104084 0.620729 0.488803 0.251881
N3    N     N_1   0.067971 0.722317 0.480493 -0.189151
C26   C     C_1   0.919378 0.337282 0.370512 0.277089
N4    N     N_1   0.895436 0.269517 0.310849 -0.203510
C27   C     C_1   0.816579 0.711767 0.792896 0.257978
N5    N     N_1   0.914006 0.765425 0.740044 -0.175936
O12   O     O_3   0.925482 0.634619 0.944687 -0.761767
H8    H     H_    0.987667 0.638104 0.989028 0.382986
C28   C     C_1   0.376541 0.612636 0.196048 0.324347
N6    N     N_1   0.266762 0.654917 0.243034 -0.181057
O13   O     O_3   0.144170 0.419788 0.840369 -0.658541
H9    H     H_    0.126128 0.494318 0.802099 0.367732
O14   O     O_3   0.341862 0.371051 0.121488 -0.751813
H10   H     H_    0.294031 0.290046 0.126170 0.354455
O15   O     O_3   0.110731 0.345893 0.040517 -0.685868
H11   H     H_    0.093641 0.352756 0.118565 0.342174
O16   O     O_3   0.624771 0.128073 0.621860 -0.763668
H12   H     H_    0.664615 0.065255 0.659579 0.343209

loop_
_geom_bond_atom_site_label_1
_geom_bond_atom_site_label_2
_ccdc_geom_bond_type
C16   O11   S    
C2    C4    A    
O10   H6    S    
C6    C7    A    
C1    C15   S    
C19   O8    A    
C6    C27   S    
O9    H5    S    
C9    C20   A    
C9    O9    S    
C25   N3    T    
C1    O1    A    
C23   C24   A    
N1    Zn1   S    
C22   O13   S    
O15   H11   S    
C2    C3    A    
C16   N1    D    
N2    Zn2   S    
O14   H10   S    
O7    Zn1   S    
C3    C10   A    
O12   H8    S    
C10   C22   A    
H3    N2    S    
O8    Zn2   S    
C17   N2    D    
C11   C13   D    
C9    C21   A    
O13   H9    S    
O3    Zn1   S    
C10   C12   S    
C13   C18   S    
N1    C25   S    
C24   O14   S    
O4    Zn2   S    
O5    Zn1   S    
C8    C28   S    
C19   C21   S    
O1    Zn1   S    
C8    C21   A    
C3    C7    A    
C11   O16   S    
O2    Zn2   S    
C14   H1    S    
C2    C24   A    
C5    C6    A    
C11   C14   S    
C28   N6    T    
C1    O2    A    
C12   O4    A    
C27   N5    T    
C13   O10   S    
C26   N4    T    
C18   O5    A    
C23   O15   S    
C17   C26   S    
C4    C8    A    
C5    C20   A    
C14   C15   D    
C16   C17   S    
O6    Zn2   S    
C19   O7    A    
C12   O3    A    
O11   H7    S    
C4    C5    A    
C18   O6    A    
C22   C23   A    
C7    H4    S    
O16   H12   S    
C20   O12   S    
C15   H2    S    
