data_mof_unit_25482.cif
_audit_creation_date              2012-12-11T15:08:35-0500
_audit_creation_method            fapswitch 2.2
_symmetry_space_group_name_H-M    P1
_symmetry_Int_Tables_number       1
_space_group_crystal_system       triclinic
_cell_length_a                    19.660291
_cell_length_b                    11.42868
_cell_length_c                    18.649412
_cell_angle_alpha                 90.418004
_cell_angle_beta                  90.977354
_cell_angle_gamma                 90.030737
_cell_volume                      4189.63623841

loop_
_atom_site_label
_atom_site_type_symbol
_atom_type_description
_atom_site_fract_x
_atom_site_fract_y
_atom_site_fract_z
_atom_type_partial_charge
C1    C     C_R   0.272717 0.044369 0.853143 0.536893
C2    C     C_R   0.726433 0.041125 0.145676 0.541187
C3    C     C_R   0.772813 0.544072 0.853264 0.537272
C4    C     C_R   0.226338 0.540809 0.145594 0.546887
C5    C     C_3   0.527824 0.725192 0.971707 -0.131389
C6    C     C_3   0.472091 0.726744 0.027735 -0.125489
C7    C     C_3   0.027985 0.226208 0.971360 -0.130339
C8    C     C_3   0.972882 0.226029 0.028046 -0.131091
C9    C     C_3   0.311047 0.529698 0.045270 -0.217237
C10   C     C_3   0.689690 0.529613 0.953650 -0.229992
C11   C     C_3   0.811004 0.029562 0.045306 -0.226691
C12   C     C_3   0.189192 0.030994 0.953241 -0.229748
C13   C     C_3   0.322109 0.561965 0.966370 -0.240523
C14   C     C_3   0.679490 0.554299 0.033889 -0.245301
C15   C     C_3   0.822425 0.062624 0.966590 -0.241796
C16   C     C_3   0.178589 0.056472 0.033400 -0.244971
C17   C     C_3   0.182030 0.542915 0.023001 -0.256803
C18   C     C_3   0.820079 0.539195 0.973840 -0.248734
C19   C     C_3   0.682294 0.041059 0.022997 -0.252632
C20   C     C_3   0.319641 0.039541 0.973870 -0.248105
C21   C     C_3   0.247452 0.713498 0.068909 0.018506
C22   C     C_3   0.756414 0.714430 0.939082 0.017015
C23   C     C_3   0.745896 0.213964 0.067352 0.021058
C24   C     C_3   0.256734 0.215269 0.939025 0.016924
C25   C     C_3   0.242813 0.580455 0.072738 0.099485
C26   C     C_3   0.758082 0.581391 0.927426 0.088667
C27   C     C_3   0.742876 0.080473 0.072671 0.088680
C28   C     C_3   0.257877 0.082122 0.927234 0.089352
C29   C     C_3   0.261320 0.634904 0.937531 0.035714
C30   C     C_3   0.742487 0.618822 0.065386 0.034098
C31   C     C_3   0.760978 0.133495 0.937156 0.033364
C32   C     C_3   0.242022 0.119441 0.065180 0.037028
C33   C     C_3   0.197470 0.558540 0.943602 -0.261368
C34   C     C_3   0.804583 0.541040 0.053964 -0.280455
C35   C     C_3   0.697958 0.055388 0.943412 -0.262353
C36   C     C_3   0.303212 0.039471 0.053699 -0.283126
C37   C     C_3   0.248376 0.743366 0.987422 -0.217236
C38   C     C_3   0.755812 0.733466 0.022182 -0.192933
C39   C     C_3   0.746572 0.242360 0.985964 -0.209373
C40   C     C_3   0.256093 0.234133 0.022176 -0.191981
C41   C     C_3   0.500867 0.701463 0.459949 -0.278210
C42   C     C_3   0.500684 0.700474 0.540306 -0.276404
C43   C     C_3   0.000865 0.201463 0.459949 -0.278293
C44   C     C_3   0.000683 0.200473 0.540306 -0.276284
C45   C     C_R   0.469971 0.820778 0.854284 0.524163
C46   C     C_R   0.530416 0.820449 0.145602 0.533374
C47   C     C_R   0.969387 0.320792 0.854634 0.525019
C48   C     C_R   0.030675 0.320365 0.145568 0.532975
C49   C     C_3   0.569102 0.892059 0.478978 -0.172879
C50   C     C_3   0.435533 0.895646 0.524901 -0.173011
C51   C     C_3   0.069102 0.392055 0.478979 -0.172825
C52   C     C_3   0.935533 0.395647 0.524903 -0.172964
C53   C     C_3   0.446937 0.893370 0.442565 0.015553
C54   C     C_3   0.557790 0.888921 0.561723 0.004265
C55   C     C_3   0.946938 0.393372 0.442567 0.015584
C56   C     C_3   0.057790 0.388920 0.561724 0.004236
C57   C     C_3   0.513054 0.829125 0.431841 0.070969
C58   C     C_3   0.490326 0.827807 0.570385 0.064457
C59   C     C_3   0.013054 0.329125 0.431841 0.071036
C60   C     C_3   0.990326 0.327806 0.570386 0.064386
C61   C     C_3   0.186357 0.665965 0.454965 -0.242616
C62   C     C_3   0.814665 0.663714 0.545221 -0.241673
C63   C     C_3   0.686359 0.165973 0.454962 -0.242454
C64   C     C_3   0.314665 0.163710 0.545219 -0.241682
C65   C     C_3   0.185238 0.662057 0.535065 -0.253331
C66   C     C_3   0.814831 0.661395 0.464803 -0.257230
C67   C     C_3   0.685240 0.162062 0.535062 -0.253355
C68   C     C_3   0.314832 0.161388 0.464800 -0.257220
C69   C     C_3   0.244028 0.466671 0.470264 -0.222723
C70   C     C_3   0.758319 0.464737 0.526148 -0.231709
C71   C     C_3   0.744030 0.966678 0.470259 -0.222622
C72   C     C_3   0.258320 0.964732 0.526147 -0.231720
C73   C     C_3   0.310788 0.639072 0.442062 -0.258926
C74   C     C_3   0.689863 0.633502 0.558600 -0.256219
C75   C     C_3   0.810790 0.139077 0.442057 -0.259472
C76   C     C_3   0.189864 0.133498 0.558595 -0.256238
C77   C     C_3   0.242791 0.581146 0.427153 0.072467
C78   C     C_3   0.758455 0.577541 0.571934 0.071900
C79   C     C_3   0.742794 0.081154 0.427148 0.072625
C80   C     C_3   0.258456 0.077537 0.571932 0.071914
C81   C     C_3   0.253844 0.613654 0.565592 0.063202
C82   C     C_3   0.745860 0.614763 0.434366 0.059807
C83   C     C_3   0.753845 0.113660 0.565588 0.063190
C84   C     C_3   0.245862 0.114753 0.434362 0.059917
C85   C     C_3   0.256984 0.483188 0.550927 -0.261431
C86   C     C_3   0.742122 0.483905 0.446340 -0.258068
C87   C     C_3   0.756984 0.983194 0.550922 -0.261438
C88   C     C_3   0.242126 0.983895 0.446338 -0.258091
C89   C     C_R   0.270542 0.672104 0.860985 0.543721
C90   C     C_R   0.735684 0.648890 0.143077 0.542474
C91   C     C_R   0.770158 0.170654 0.860806 0.542841
C92   C     C_R   0.235478 0.149437 0.142913 0.536731
C93   C     C_3   0.312548 0.668822 0.523297 -0.226578
C94   C     C_3   0.688575 0.669685 0.478932 -0.234636
C95   C     C_3   0.812549 0.168828 0.523292 -0.226202
C96   C     C_3   0.188575 0.169674 0.478926 -0.234583
C97   C     C_R   0.272649 0.044549 0.646912 0.533045
C98   C     C_R   0.728268 0.047282 0.352013 0.528034
C99   C     C_R   0.772649 0.544550 0.646913 0.533108
C100  C     C_R   0.228265 0.547273 0.352018 0.527789
C101  C     C_R   0.467530 0.822220 0.645586 0.543558
C102  C     C_R   0.534081 0.822767 0.355608 0.541617
C103  C     C_R   0.967530 0.322220 0.645586 0.543743
C104  C     C_R   0.034081 0.322767 0.355608 0.541491
C105  C     C_R   0.261626 0.644077 0.642525 0.539803
C106  C     C_R   0.737819 0.646339 0.357987 0.545081
C107  C     C_R   0.761628 0.144081 0.642523 0.539680
C108  C     C_R   0.237822 0.146328 0.357983 0.544509
C109  C     C_3   0.472640 0.919798 0.027954 -0.123835
C110  C     C_3   0.530233 0.918365 0.972495 -0.117367
C111  C     C_3   0.972089 0.419067 0.028938 -0.117856
C112  C     C_3   0.029103 0.419227 0.972717 -0.119317
C113  C     C_3   0.435093 0.822259 0.984770 -0.128784
C114  C     C_3   0.566334 0.819657 0.015194 -0.123899
C115  C     C_3   0.934626 0.321253 0.986043 -0.123692
C116  C     C_3   0.066316 0.321012 0.014709 -0.124877
C117  C     C_3   0.492243 0.823282 0.930119 0.063552
C118  C     C_3   0.509086 0.823291 0.069718 0.060958
C119  C     C_3   0.991169 0.323699 0.930550 0.062300
C120  C     C_3   0.009598 0.323016 0.069823 0.062348
Cr1   Cr    Cr6+3 0.229620 0.836040 0.749110 0.976954
Cr2   Cr    Cr6+3 0.770380 0.836040 0.250890 0.985326
Cr3   Cr    Cr6+3 0.729620 0.336040 0.749110 0.976786
Cr4   Cr    Cr6+3 0.270380 0.336040 0.250890 0.989260
Cr5   Cr    Cr6+3 0.387630 0.990680 0.750730 0.979146
Cr6   Cr    Cr6+3 0.612370 0.990680 0.249270 0.982762
Cr7   Cr    Cr6+3 0.887630 0.490680 0.750730 0.979080
Cr8   Cr    Cr6+3 0.112370 0.490680 0.249270 0.982485
Cr9   Cr    Cr6+3 0.386020 0.676590 0.749210 0.988369
Cr10  Cr    Cr6+3 0.613980 0.676590 0.250790 0.992226
Cr11  Cr    Cr6+3 0.886020 0.176590 0.749210 0.988571
Cr12  Cr    Cr6+3 0.113980 0.176590 0.250790 0.989634
H1    H     H_    0.384188 0.801463 0.965427 0.088616
H2    H     H_    0.617261 0.799574 0.034802 0.094668
H3    H     H_    0.882888 0.300667 0.969690 0.092002
H4    H     H_    0.117497 0.301574 0.033744 0.094084
H5    H     H_    0.200959 0.754416 0.091765 0.139822
H6    H     H_    0.804017 0.754774 0.918891 0.139745
H7    H     H_    0.698731 0.253388 0.089530 0.142151
H8    H     H_    0.304556 0.255039 0.918980 0.139756
H9    H     H_    0.195843 0.771151 0.974523 0.099276
H10   H     H_    0.808313 0.759687 0.037694 0.105302
H11   H     H_    0.693777 0.268419 0.972477 0.097928
H12   H     H_    0.308705 0.259453 0.037886 0.106203
H13   H     H_    0.635937 0.093115 0.035264 0.128708
H14   H     H_    0.364386 0.097989 0.966518 0.126523
H15   H     H_    0.135877 0.595084 0.035896 0.129470
H16   H     H_    0.864902 0.597057 0.965479 0.127246
H17   H     H_    0.152322 0.598524 0.916742 0.135617
H18   H     H_    0.849468 0.573710 0.085082 0.131006
H19   H     H_    0.652677 0.093315 0.915690 0.134665
H20   H     H_    0.348207 0.068505 0.085990 0.132150
H21   H     H_    0.536760 0.633764 0.442244 0.144017
H22   H     H_    0.463991 0.633881 0.556942 0.143637
H23   H     H_    0.036758 0.133764 0.442243 0.144021
H24   H     H_    0.963991 0.133879 0.556942 0.143624
H25   H     H_    0.451754 0.667658 0.438792 0.110628
H26   H     H_    0.549407 0.664500 0.560867 0.109824
H27   H     H_    0.951753 0.167659 0.438791 0.110115
H28   H     H_    0.049407 0.164499 0.560866 0.109816
H29   H     H_    0.610973 0.837567 0.468463 0.065219
H30   H     H_    0.392590 0.842164 0.534654 0.070759
H31   H     H_    0.110971 0.337557 0.468465 0.065268
H32   H     H_    0.892589 0.342168 0.534656 0.070753
H33   H     H_    0.598934 0.835400 0.586275 0.121641
H34   H     H_    0.405240 0.840007 0.418220 0.100721
H35   H     H_    0.098933 0.335399 0.586277 0.121658
H36   H     H_    0.905239 0.340012 0.418221 0.100476
H37   H     H_    0.450961 0.999344 0.052685 0.103105
H38   H     H_    0.553582 0.996039 0.947823 0.102647
H39   H     H_    0.950506 0.498015 0.054399 0.104897
H40   H     H_    0.051973 0.497491 0.948137 0.103057
H41   H     H_    0.425349 0.984516 0.544906 0.134557
H42   H     H_    0.581909 0.980001 0.460744 0.144255
H43   H     H_    0.925350 0.484517 0.544908 0.134535
H44   H     H_    0.081911 0.479996 0.460744 0.144261
H45   H     H_    0.133914 0.646379 0.436594 0.131183
H46   H     H_    0.867460 0.644005 0.562983 0.139111
H47   H     H_    0.633916 0.146388 0.436591 0.131019
H48   H     H_    0.367460 0.144003 0.562982 0.139117
H49   H     H_    0.196829 0.755826 0.436506 0.117273
H50   H     H_    0.803958 0.753093 0.565284 0.117787
H51   H     H_    0.696831 0.255835 0.436505 0.117336
H52   H     H_    0.303957 0.253089 0.565281 0.117783
H53   H     H_    0.168171 0.747649 0.555438 0.133089
H54   H     H_    0.832150 0.747082 0.445592 0.129176
H55   H     H_    0.668172 0.247653 0.555437 0.133085
H56   H     H_    0.332151 0.247076 0.445590 0.129218
H57   H     H_    0.694101 0.933430 0.461323 0.110849
H58   H     H_    0.309666 0.936947 0.529839 0.113322
H59   H     H_    0.194099 0.433424 0.461331 0.110834
H60   H     H_    0.809666 0.436953 0.529837 0.113313
H61   H     H_    0.352544 0.577822 0.428343 0.119357
H62   H     H_    0.648589 0.569782 0.569376 0.122069
H63   H     H_    0.852545 0.077824 0.428337 0.118522
H64   H     H_    0.148589 0.069780 0.569374 0.122076
H65   H     H_    0.315680 0.719086 0.409185 0.090852
H66   H     H_    0.683919 0.710343 0.594650 0.087328
H67   H     H_    0.815684 0.219088 0.409177 0.090420
H68   H     H_    0.183920 0.210343 0.594642 0.087344
H69   H     H_    0.547830 0.644612 0.946734 0.103552
H70   H     H_    0.450586 0.648328 0.053136 0.112807
H71   H     H_    0.048083 0.146264 0.945748 0.104440
H72   H     H_    0.952625 0.146108 0.053034 0.103068
H73   H     H_    0.303387 0.760289 0.528695 0.110537
H74   H     H_    0.700942 0.760730 0.479363 0.113744
H75   H     H_    0.803387 0.260295 0.528688 0.110538
H76   H     H_    0.200940 0.260719 0.479351 0.113728
H77   H     H_    0.361329 0.644203 0.547271 0.132952
H78   H     H_    0.639278 0.650809 0.453962 0.132621
H79   H     H_    0.861330 0.144212 0.547267 0.132962
H80   H     H_    0.139279 0.150792 0.453956 0.132719
H81   H     H_    0.282067 0.406027 0.449034 0.134073
H82   H     H_    0.723461 0.399953 0.547930 0.132908
H83   H     H_    0.782070 0.906035 0.449030 0.134180
H84   H     H_    0.223460 0.899950 0.547929 0.132913
H85   H     H_    0.308307 0.449782 0.566184 0.118834
H86   H     H_    0.690016 0.451883 0.432701 0.122128
H87   H     H_    0.808307 0.949786 0.566179 0.118829
H88   H     H_    0.190021 0.951872 0.432696 0.122217
H89   H     H_    0.311993 0.435624 0.050856 0.112844
H90   H     H_    0.687356 0.436524 0.942988 0.127418
H91   H     H_    0.810769 0.935452 0.049895 0.120705
H92   H     H_    0.186801 0.937699 0.942909 0.128160
H93   H     H_    0.354320 0.559950 0.079343 0.146851
H94   H     H_    0.646382 0.562620 0.921218 0.115570
H95   H     H_    0.854521 0.056528 0.079983 0.119980
H96   H     H_    0.146189 0.064083 0.920398 0.115004
H97   H     H_    0.668646 0.952799 0.033843 0.119040
H98   H     H_    0.337993 0.957327 0.954192 0.119558
H99   H     H_    0.168540 0.454348 0.033070 0.118441
H100  H     H_    0.837738 0.456243 0.954601 0.120782
H101  H     H_    0.708053 0.971211 0.917820 0.183083
H102  H     H_    0.289685 0.951601 0.070259 0.151081
H103  H     H_    0.206217 0.474523 0.917086 0.182258
H104  H     H_    0.793192 0.453605 0.072502 0.182201
O1    O     O_R   0.214130 0.708570 0.829890 -0.533677
O2    O     O_R   0.785870 0.708570 0.170110 -0.530396
O3    O     O_R   0.714130 0.208570 0.829890 -0.533930
O4    O     O_R   0.285870 0.208570 0.170110 -0.530400
O5    O     O_R   0.446360 0.919990 0.675230 -0.510514
O6    O     O_R   0.553640 0.919990 0.324770 -0.506291
O7    O     O_R   0.946360 0.419990 0.675230 -0.510423
O8    O     O_R   0.053640 0.419990 0.324770 -0.505954
O9    O     O_R   0.457170 0.717300 0.668380 -0.542226
O10   O     O_R   0.542830 0.717300 0.331620 -0.541768
O11   O     O_R   0.957170 0.217300 0.668380 -0.542088
O12   O     O_R   0.042830 0.217300 0.331620 -0.542589
O13   O     O_R   0.320870 0.624890 0.673130 -0.510791
O14   O     O_R   0.679130 0.624890 0.326870 -0.514519
O15   O     O_R   0.820870 0.124890 0.673130 -0.510859
O16   O     O_R   0.179130 0.124890 0.326870 -0.514539
O17   O     O_3   0.334430 0.834430 0.749680 -0.282159
O18   O     O_3   0.665570 0.834430 0.250320 -0.278725
O19   O     O_3   0.834430 0.334430 0.749680 -0.281934
O20   O     O_3   0.165570 0.334430 0.250320 -0.279273
O21   O     O_R   0.236050 0.959150 0.825270 -0.525319
O22   O     O_R   0.763950 0.959150 0.174730 -0.520939
O23   O     O_R   0.736050 0.459150 0.825270 -0.525356
O24   O     O_R   0.263950 0.459150 0.174730 -0.516498
O25   O     O_R   0.332100 0.076650 0.832310 -0.535434
O26   O     O_R   0.667900 0.076650 0.167690 -0.537825
O27   O     O_R   0.832100 0.576650 0.832310 -0.535838
O28   O     O_R   0.167900 0.576650 0.167690 -0.541327
O29   O     O_R   0.446500 0.918620 0.826240 -0.511403
O30   O     O_R   0.553500 0.918620 0.173760 -0.507483
O31   O     O_R   0.946500 0.418620 0.826240 -0.511878
O32   O     O_R   0.053500 0.418620 0.173760 -0.507350
O33   O     O_R   0.457310 0.715830 0.831280 -0.528392
O34   O     O_R   0.542690 0.715830 0.168720 -0.524184
O35   O     O_R   0.957310 0.215830 0.831280 -0.528245
O36   O     O_R   0.042690 0.215830 0.168720 -0.526490
O37   O     O_R   0.321000 0.623520 0.824130 -0.506872
O38   O     O_R   0.679000 0.623520 0.175870 -0.508097
O39   O     O_R   0.821000 0.123520 0.824130 -0.506843
O40   O     O_R   0.179000 0.123520 0.175870 -0.510161
O41   O     O_R   0.213990 0.710040 0.667000 -0.539388
O42   O     O_R   0.786010 0.710040 0.333000 -0.532413
O43   O     O_R   0.713990 0.210040 0.667000 -0.539397
O44   O     O_R   0.286010 0.210040 0.333000 -0.532599
O45   O     O_R   0.235920 0.960520 0.674260 -0.516198
O46   O     O_R   0.764080 0.960520 0.325740 -0.517945
O47   O     O_R   0.735920 0.460520 0.674260 -0.516157
O48   O     O_R   0.264080 0.460520 0.325740 -0.515729
O49   O     O_R   0.331960 0.078120 0.669410 -0.539131
O50   O     O_R   0.668040 0.078120 0.330590 -0.543584
O51   O     O_R   0.831960 0.578120 0.669410 -0.539076
O52   O     O_R   0.168040 0.578120 0.330590 -0.544870
N1    N     N_2   0.307057 0.754209 0.109682 -0.553573
H105  H     H_    0.347077 0.788968 0.082626 0.257370
C121  C     C_3   0.297249 0.797942 0.181937 -0.314969
H106  H     H_    0.347136 0.823369 0.206189 0.140967
H107  H     H_    0.274661 0.729468 0.215948 0.174504
H108  H     H_    0.263386 0.875644 0.181439 0.143766
N2    N     N_2   0.699115 0.769717 0.902380 -0.565861
H109  H     H_    0.651462 0.751297 0.920055 0.262608
C122  C     C_3   0.702650 0.785476 0.825490 -0.316905
H110  H     H_    0.666149 0.854637 0.808813 0.133199
H111  H     H_    0.688191 0.703441 0.796931 0.155700
H112  H     H_    0.754410 0.813316 0.809753 0.162713
N3    N     N_2   0.804123 0.262985 0.106539 -0.566598
H113  H     H_    0.851869 0.246387 0.088032 0.261918
C123  C     C_3   0.799754 0.278399 0.183463 -0.310055
H114  H     H_    0.837174 0.345704 0.201457 0.139897
H115  H     H_    0.812223 0.195334 0.211143 0.159408
H116  H     H_    0.748281 0.308680 0.198751 0.159443
N4    N     N_2   0.199793 0.271560 0.902298 -0.565272
H117  H     H_    0.152010 0.253091 0.919619 0.262264
C124  C     C_3   0.203693 0.287495 0.825447 -0.316538
H118  H     H_    0.167198 0.356564 0.808607 0.133391
H119  H     H_    0.189464 0.205488 0.796733 0.155022
H120  H     H_    0.255507 0.315548 0.810034 0.163034
H121  H     H_    0.280313 0.816359 0.975886 0.094784
H122  H     H_    0.722876 0.803316 0.039116 0.110471
H123  H     H_    0.778189 0.316036 0.974230 0.105851
H124  H     H_    0.223414 0.304625 0.039054 0.110543
N5    N     N_2   0.442959 0.005017 0.404789 -0.541129
H125  H     H_    0.429504 0.998880 0.351156 0.260787
C125  C     C_3   0.482400 0.108386 0.423191 -0.311458
H126  H     H_    0.452997 0.187491 0.408017 0.127524
H127  H     H_    0.529244 0.110705 0.391307 0.171330
H128  H     H_    0.493714 0.114335 0.481120 0.135216
N6    N     N_2   0.558844 0.003347 0.597109 -0.558659
H129  H     H_    0.517616 0.057593 0.590706 0.257985
C126  C     C_3   0.591347 0.011634 0.667638 -0.296545
H130  H     H_    0.590722 0.103957 0.686521 0.163246
H131  H     H_    0.644886 0.982442 0.665661 0.135410
H132  H     H_    0.565138 0.957148 0.707453 0.164884
N7    N     N_2   0.942960 0.505022 0.404793 -0.541099
H133  H     H_    0.929506 0.498888 0.351160 0.260832
C127  C     C_3   0.982403 0.608389 0.423196 -0.311474
H134  H     H_    0.952999 0.687495 0.408025 0.127406
H135  H     H_    0.029245 0.610708 0.391310 0.171391
H136  H     H_    0.993719 0.614334 0.481124 0.135218
N8    N     N_2   0.058843 0.503346 0.597109 -0.558703
H137  H     H_    0.017615 0.557591 0.590708 0.257980
C128  C     C_3   0.091347 0.511634 0.667638 -0.296499
H138  H     H_    0.090722 0.603957 0.686521 0.163249
H139  H     H_    0.144886 0.482444 0.665660 0.135389
H140  H     H_    0.065139 0.457149 0.707453 0.165174
H141  H     H_    0.145534 0.602108 0.549493 0.183167
H142  H     H_    0.852664 0.599356 0.448388 0.187072
H143  H     H_    0.645535 0.102112 0.549490 0.183158
H144  H     H_    0.352666 0.099350 0.448388 0.187059
H145  H     H_    0.718848 0.933758 0.581592 0.101680
H146  H     H_    0.279027 0.936062 0.412283 0.105042
H147  H     H_    0.218848 0.433752 0.581598 0.101688
H148  H     H_    0.779021 0.436070 0.412284 0.105094
H149  H     H_    0.370408 0.609488 0.960473 0.132641
H150  H     H_    0.632868 0.606368 0.041698 0.138347
H151  H     H_    0.870283 0.111357 0.961149 0.131614
H152  H     H_    0.132409 0.109636 0.040899 0.138878
H153  H     H_    0.327180 0.480111 0.934176 0.128836
H154  H     H_    0.671771 0.470233 0.062371 0.119424
H155  H     H_    0.828724 0.981070 0.934361 0.128976
H156  H     H_    0.169857 0.972751 0.061945 0.115869

loop_
_geom_bond_atom_site_label_1
_geom_bond_atom_site_label_2
_ccdc_geom_bond_type
C74   H62   S    
C61   H45   S    
C82   C94   S    
C55   C59   S    
N7    C127  S    
C121  H106  S    
C102  O10   A    
C73   C93   S    
C69   H59   S    
C29   C89   S    
C128  H138  S    
C75   C95   S    
C48   C120  S    
Cr9   O9    S    
N3    H113  S    
C24   H8    S    
C57   C102  S    
Cr7   O31   S    
C59   C104  S    
Cr1   O41   S    
C5    C6    S    
Cr10  O34   S    
Cr11  O19   S    
C96   H76   S    
Cr12  O40   S    
C29   C33   S    
C30   C38   S    
C77   C100  S    
C9    C13   S    
C7    H71   S    
C11   C15   S    
C12   C16   S    
C109  H37   S    
C66   H142  S    
C106  O42   A    
C21   H5    S    
C92   O40   A    
C60   C103  S    
Cr3   O3    S    
C124  H119  S    
C4    O24   A    
C113  H1    S    
C89   O37   A    
C42   C58   S    
C55   H36   S    
C22   N2    S    
C67   H55   S    
C109  C118  S    
C63   C67   S    
C23   C27   S    
Cr9   O13   S    
C50   C53   S    
C63   H51   S    
C90   O2    A    
C70   H60   S    
N6    H129  S    
C55   N7    S    
C7    C119  S    
C8    H72   S    
Cr8   O52   S    
C123  H115  S    
C11   H91   S    
N8    C128  S    
C30   C34   S    
C20   C28   S    
Cr3   O23   S    
C103  O11   A    
C43   C44   S    
C23   N3    S    
C66   C82   S    
C123  H114  S    
C11   C27   S    
C100  O48   A    
C85   H147  S    
C58   C101  S    
C19   H97   S    
C52   H43   S    
Cr10  O18   S    
C66   H54   S    
C15   H151  S    
Cr8   O8    S    
C20   H14   S    
C54   H33   S    
C128  H140  S    
C47   O31   A    
Cr5   O29   S    
C38   H122  S    
C3    C26   S    
C84   C88   S    
Cr12  O36   S    
Cr1   O17   S    
C17   C25   S    
C106  O14   A    
C19   C35   S    
C76   C96   S    
C2    O26   A    
C3    O23   A    
C70   H82   S    
Cr3   O43   S    
C51   H44   S    
C10   H90   S    
C105  O13   A    
N8    H137  S    
C61   C65   S    
C53   H34   S    
C78   C99   S    
C73   C77   S    
C33   H17   S    
C75   C79   S    
C13   H149  S    
C22   C38   S    
C125  H127  S    
C67   C83   S    
C80   C97   S    
C50   H30   S    
C69   C77   S    
C111  C112  S    
C94   H74   S    
C39   H123  S    
C71   C79   S    
C4    C25   S    
Cr4   O44   S    
C7    C8    S    
N2    C122  S    
C32   C92   S    
C108  O16   A    
Cr7   O19   S    
C64   C68   S    
C121  H107  S    
C88   H146  S    
C43   H27   S    
C5    H69   S    
C68   H144  S    
C36   H102  S    
C49   C57   S    
C86   H86   S    
C126  H131  S    
C52   C60   S    
C74   H66   S    
C61   C77   S    
Cr6   O6    S    
C102  O6    A    
C110  C114  S    
C49   H29   S    
C17   H99   S    
C43   C59   S    
C88   H88   S    
C46   O34   A    
C86   H148  S    
C122  H111  S    
Cr1   O45   S    
Cr2   O42   S    
C72   H58   S    
Cr11  O15   S    
C41   H21   S    
Cr4   O48   S    
C81   C105  S    
C62   C66   S    
C44   H24   S    
Cr7   O7    S    
Cr6   O18   S    
C10   C14   S    
Cr12  O20   S    
C36   H20   S    
C14   H150  S    
C116  C120  S    
N6    C126  S    
C7    C116  S    
C97   O45   A    
C127  H135  S    
Cr5   O49   S    
C4    O28   A    
N1    H105  S    
C114  H2    S    
C21   C37   S    
C90   O38   A    
C51   H31   S    
C113  C117  S    
Cr9   O17   S    
C94   H78   S    
C31   C91   S    
Cr6   O50   S    
C74   C78   S    
C112  C116  S    
C69   C85   S    
C45   C117  S    
C21   C25   S    
C92   O4    A    
C62   C78   S    
C24   C28   S    
C15   C31   S    
C75   H67   S    
C16   C32   S    
C100  O52   A    
C115  C119  S    
C95   H79   S    
C24   N4    S    
C72   C80   S    
Cr2   O2    S    
C115  H3    S    
C71   H83   S    
C56   H35   S    
C45   O29   A    
Cr8   O20   S    
C111  H39   S    
C82   C106  S    
C127  H136  S    
C64   H52   S    
C47   O35   A    
C51   C59   S    
C68   H56   S    
C11   H95   S    
Cr5   O25   S    
Cr6   O30   S    
C9    H93   S    
C54   N6    S    
C81   C85   S    
Cr1   O21   S    
C83   C87   S    
C96   H80   S    
C73   H61   S    
C41   C42   S    
C74   C94   S    
Cr9   O37   S    
C18   C26   S    
C30   C90   S    
C101  O9    A    
C34   H18   S    
C9    C25   S    
C8    C120  S    
C37   H9    S    
C12   C28   S    
C50   H41   S    
C13   C29   S    
Cr4   O4    S    
C12   H96   S    
C46   C118  S    
C122  H110  S    
N5    C125  S    
C12   H92   S    
C76   H64   S    
C15   H155  S    
C104  O12   A    
C1    C28   S    
C65   H141  S    
C2    C27   S    
C35   H101  S    
Cr10  O38   S    
Cr3   O19   S    
C33   H103  S    
C52   C55   S    
C93   H73   S    
C64   C80   S    
C42   H26   S    
C17   C33   S    
C43   H23   S    
C110  C117  S    
C49   H42   S    
C128  H139  S    
C123  H116  S    
C1    O21   A    
N3    C123  S    
C95   H75   S    
C20   H98   S    
N4    H117  S    
C68   C84   S    
C89   O1    A    
C69   H81   S    
N2    H109  S    
C53   C57   S    
Cr12  O12   S    
C82   C86   S    
C56   C60   S    
C50   C58   S    
C127  H134  S    
Cr7   O51   S    
C62   H50   S    
C65   C81   S    
C46   O30   A    
C107  O43   A    
Cr8   O32   S    
C71   H57   S    
Cr2   O46   S    
C56   N8    S    
Cr11  O11   S    
C52   H32   S    
C41   H25   S    
C110  H38   S    
C72   H84   S    
C44   H28   S    
C31   C35   S    
C21   N1    S    
C32   C36   S    
C42   H22   S    
C53   N5    S    
C97   O49   A    
Cr2   O18   S    
C112  C119  S    
C98   O46   A    
C116  H4    S    
C99   O51   A    
C22   H6    S    
C61   H49   S    
C107  O15   A    
C91   O39   A    
C41   C57   S    
C109  C110  S    
C112  H40   S    
C44   C60   S    
C84   C108  S    
Cr7   O27   S    
Cr8   O28   S    
C126  H130  S    
C16   H152  S    
C125  H126  S    
C20   C36   S    
C9    H89   S    
Cr11  O35   S    
Cr4   O24   S    
C22   C26   S    
C29   C37   S    
C16   H156  S    
C18   H100  S    
C75   H63   S    
C5    C114  S    
C70   C78   S    
C105  O41   A    
N7    H133  S    
C79   C98   S    
Cr4   O20   S    
C34   H104  S    
Cr10  O10   S    
C63   C79   S    
C124  H118  S    
C45   O33   A    
C19   H13   S    
C23   H7    S    
C17   H15   S    
C6    H70   S    
C18   H16   S    
C87   H145  S    
C64   H48   S    
Cr1   O1    S    
C48   O32   A    
C49   C54   S    
C63   H47   S    
Cr6   O26   S    
C51   C56   S    
C84   C96   S    
C35   H19   S    
C85   H85   S    
C8    C115  S    
C24   C40   S    
Cr2   O22   S    
C83   C107  S    
C73   H65   S    
C103  O7    A    
Cr5   O5    S    
C87   H87   S    
C19   C27   S    
C109  C113  S    
C10   C26   S    
C47   C119  S    
C125  H128  S    
C38   H10   S    
C14   C30   S    
C72   C88   S    
Cr10  O14   S    
C13   H153  S    
C65   H53   S    
C121  H108  S    
C76   H68   S    
C104  O8    A    
C37   H121  S    
C5    C117  S    
C111  C120  S    
N4    C124  S    
C126  H132  S    
C6    C113  S    
Cr11  O39   S    
C40   H124  S    
C81   C93   S    
C83   C95   S    
Cr5   O17   S    
C18   C34   S    
C48   O36   A    
C114  C118  S    
C1    O25   A    
C2    O22   A    
C39   H11   S    
C3    O27   A    
C40   H12   S    
C93   H77   S    
C122  H112  S    
C71   C87   S    
C76   C80   S    
C70   C86   S    
C101  O5    A    
Cr12  O16   S    
C54   C58   S    
C124  H120  S    
C67   H143  S    
C62   H46   S    
Cr3   O47   S    
C23   C39   S    
N1    C121  S    
C31   C39   S    
C14   H154  S    
C32   C40   S    
N5    H125  S    
Cr9   O33   S    
C91   O3    A    
C10   H94   S    
C111  C115  S    
C108  O44   A    
C6    C118  S    
C98   O50   A    
C99   O47   A    
