data_mof_unit_38611.cif
_audit_creation_date              2012-12-11T17:37:50-0500
_audit_creation_method            fapswitch 2.2
_symmetry_space_group_name_H-M    P1
_symmetry_Int_Tables_number       1
_space_group_crystal_system       triclinic
_cell_length_a                    13.013455
_cell_length_b                    13.072972
_cell_length_c                    15.242405
_cell_angle_alpha                 116.250105
_cell_angle_beta                  63.288803
_cell_angle_gamma                 97.409967
_cell_volume                      2069.58770261

loop_
_atom_site_label
_atom_site_type_symbol
_atom_type_description
_atom_site_fract_x
_atom_site_fract_y
_atom_site_fract_z
_atom_type_partial_charge
C1    C     C_R   0.071636 0.816971 0.985244 -0.148814
C2    C     C_R   0.321077 0.524740 0.778018 -0.129619
C3    C     C_R   0.243818 0.480926 0.107661 -0.139103
C4    C     C_R   0.705748 0.400120 0.209937 -0.082067
C5    C     C_R   0.984743 0.301091 0.697337 -0.133843
C6    C     C_R   0.335365 0.543896 0.075829 0.171279
C7    C     C_R   0.929359 0.205100 0.697727 0.072431
C8    C     C_R   0.328522 0.449399 0.674636 0.054225
C9    C     C_R   0.005755 0.154345 0.047308 0.050910
C10   C     C_R   0.349185 0.831873 0.286144 -0.115095
C11   C     C_R   0.231697 0.865107 0.354874 -0.135034
C12   C     C_R   0.712683 0.424110 0.305703 0.032316
C13   C     C_R   0.170521 0.930407 0.338374 0.128997
C14   C     C_R   0.228562 0.960909 0.251443 -0.184512
C15   C     C_R   0.345619 0.926026 0.181880 -0.112636
C16   C     C_R   0.742303 0.580084 0.947993 -0.194650
C17   C     C_R   0.406156 0.862496 0.199834 -0.079878
C18   C     C_R   0.038404 0.072910 0.515091 -0.278005
C19   C     C_R   0.929744 0.113316 0.602682 0.105221
C20   C     C_R   0.829746 0.060934 0.599349 0.132915
C21   C     C_R   0.841118 0.967286 0.503595 -0.172944
C22   C     C_R   0.950622 0.927843 0.415445 0.096717
C23   C     C_R   0.638341 0.554252 0.013863 0.032174
C24   C     C_R   0.050854 0.979096 0.421183 0.039180
C25   C     C_R   0.669749 0.050764 0.764658 -0.238923
C26   C     C_R   0.559720 0.087258 0.852211 -0.048676
C27   C     C_R   0.493592 0.176435 0.869525 -0.067771
C28   C     C_R   0.947730 0.719833 0.316186 -0.106194
C29   C     C_R   0.537879 0.230116 0.800022 -0.166983
C30   C     C_R   0.647835 0.193632 0.711849 0.490663
C31   C     C_R   0.714321 0.102860 0.693293 -0.040036
C32   C     C_R   0.878424 0.556234 0.570073 -0.331962
C33   C     C_R   0.809727 0.474697 0.531270 -0.174589
C34   C     C_R   0.961448 0.828073 0.320771 0.034701
C35   C     C_R   0.715267 0.509483 0.526941 0.111185
C36   C     C_R   0.690485 0.626008 0.561199 -0.260420
C37   C     C_R   0.760611 0.706654 0.597368 -0.276905
C38   C     C_R   0.854327 0.672401 0.602612 0.685029
C39   C     C_R   0.539654 0.417865 0.578812 -0.126452
C40   C     C_R   0.660800 0.470739 0.036948 0.456246
C41   C     C_R   0.434653 0.399141 0.572011 0.021487
C42   C     C_R   0.436573 0.350644 0.467337 0.020621
C43   C     C_R   0.542096 0.328093 0.376809 -0.203491
C44   C     C_R   0.636066 0.386140 0.390264 0.035813
C45   C     C_R   0.320966 0.581544 0.011468 -0.134403
C46   C     C_R   0.636653 0.427230 0.493307 0.068991
C47   C     C_R   0.278267 0.257642 0.415606 -0.173788
C48   C     C_R   0.184513 0.264888 0.396290 -0.107569
C49   C     C_R   0.151602 0.367314 0.404194 -0.128440
C50   C     C_R   0.210772 0.463931 0.433623 -0.076485
C51   C     C_R   0.302404 0.458307 0.455917 -0.103096
C52   C     C_R   0.025218 0.819553 0.217123 -0.110533
C53   C     C_R   0.336132 0.355350 0.447920 0.093693
C54   C     C_2   0.431192 0.567693 0.102331 -0.154817
C55   C     C_2   0.528353 0.590181 0.032933 -0.192338
C56   C     C_R   0.907409 0.198483 0.791575 -0.113517
C57   C     C_2   0.076494 0.900053 0.859999 -0.129570
C58   C     C_2   0.177813 0.945348 0.844396 -0.153403
C59   C     C_R   0.807496 0.485271 0.302346 -0.133409
C60   C     C_R   0.969115 0.734605 0.892314 -0.092323
C61   C     C_R   0.031827 0.827867 0.919150 0.125982
C62   C     C_R   0.216933 0.436229 0.685947 -0.108336
C63   C     C_R   0.052030 0.256592 0.088701 -0.128032
C64   C     C_R   0.950517 0.172830 0.994934 -0.110458
Cl1   Cl    Cl    0.699560 0.262053 0.625420 -0.751571
Cl2   Cl    Cl    0.570785 0.365515 0.064618 -0.765283
H1    H     H_    0.138176 0.863844 0.006431 0.091551
H2    H     H_    0.396326 0.783143 0.300352 0.120257
H3    H     H_    0.189208 0.842640 0.422633 0.162768
H4    H     H_    0.658017 0.335198 0.175142 0.163290
H5    H     H_    0.183852 0.012446 0.237851 0.100468
H6    H     H_    0.389828 0.949856 0.115115 0.114207
H7    H     H_    0.115059 0.111571 0.522122 0.137234
H8    H     H_    0.765682 0.924472 0.497850 0.121632
H9    H     H_    0.720687 0.982785 0.753157 0.184250
H10   H     H_    0.525869 0.046656 0.906898 0.121259
H11   H     H_    0.408482 0.204796 0.937498 0.137598
H12   H     H_    0.859843 0.136468 0.820040 0.133481
H13   H     H_    0.486499 0.299890 0.814586 0.152251
H14   H     H_    0.755657 0.636096 0.909387 0.140976
H15   H     H_    0.949488 0.528876 0.575459 0.175782
H16   H     H_    0.830200 0.385134 0.504588 0.198844
H17   H     H_    0.617170 0.654012 0.559058 0.153098
H18   H     H_    0.741311 0.795783 0.621817 0.160342
H19   H     H_    0.541709 0.448644 0.656544 0.152036
H20   H     H_    0.541048 0.288491 0.298315 0.141135
H21   H     H_    0.304072 0.177379 0.407817 0.132412
H22   H     H_    0.136439 0.191723 0.375760 0.122753
H23   H     H_    0.187490 0.380011 0.627343 0.117656
H24   H     H_    0.080167 0.371705 0.387505 0.108687
H25   H     H_    0.185585 0.543131 0.439203 0.150494
H26   H     H_    0.907737 0.696123 0.383068 0.126055
H27   H     H_    0.347695 0.533820 0.478793 0.119900
H28   H     H_    0.428637 0.546999 0.164686 0.177537
H29   H     H_    0.530558 0.616472 0.973954 0.137982
H30   H     H_    0.028231 0.913528 0.823385 0.214758
H31   H     H_    0.233260 0.933703 0.875787 0.121672
H32   H     H_    0.052851 0.887987 0.192530 0.098845
H33   H     H_    0.854843 0.498811 0.348401 0.116948
H34   H     H_    0.092868 0.276290 0.141745 0.097364
H35   H     H_    0.943115 0.706253 0.827681 0.175651
H36   H     H_    0.364050 0.647677 0.987284 0.093949
H37   H     H_    0.013686 0.924264 0.630681 0.364156
H38   H     H_    0.897001 0.114677 0.961081 0.119257
H39   H     H_    0.390625 0.555041 0.800701 0.097218
H40   H     H_    0.221833 0.450203 0.168708 0.108026
H41   H     H_    0.005966 0.335591 0.639031 0.126210
H42   H     H_    0.497309 0.837387 0.147099 0.116615
N1    N     N_R   0.037320 0.720000 0.995830 -0.044946
N2    N     N_R   0.824900 0.517970 0.936430 -0.061364
N3    N     N_R   0.003190 0.648180 0.211390 -0.047081
N4    N     N_R   0.774330 0.457010 0.995830 -0.079418
N5    N     N_R   0.053760 0.709130 0.151980 -0.039972
N6    N     N_R   0.853840 0.498830 0.211390 -0.049166
N7    N     N_R   0.974250 0.667320 0.936430 -0.055987
N8    N     N_R   0.225670 0.542990 0.004170 -0.046253
N9    N     N_R   0.946240 0.290870 0.848020 -0.043910
N10   N     N_R   0.146160 0.501170 0.788610 -0.042697
N11   N     N_R   0.025750 0.332680 0.063570 -0.042876
N12   N     N_R   0.962680 0.280000 0.004170 -0.044007
N13   N     N_R   0.209230 0.553860 0.848010 -0.041158
N14   N     N_R   0.175100 0.482030 0.063570 -0.047671
N15   N     N_R   0.996810 0.351820 0.788610 -0.049006
N16   N     N_R   0.790770 0.446140 0.151990 -0.049026
Ni1   Ni    Ni4+2 0.130310 0.630310 0.000000 0.210464
Ni2   Ni    Ni4+2 0.869690 0.369690 0.000000 0.248727
Ni3   Ni    Ni4+2 0.985660 0.509480 0.863750 0.229254
Ni4   Ni    Ni4+2 0.014340 0.490520 0.136250 0.204314
O1    O     O_2   0.862786 0.846819 0.774195 -0.380287
O2    O     O_2   0.042551 0.722001 0.638539 -0.358777
O3    O     O_3   0.976380 0.862436 0.591278 -0.581624
S1    S     S_3+6 0.936819 0.776753 0.654725 -0.138942

loop_
_geom_bond_atom_site_label_1
_geom_bond_atom_site_label_2
_ccdc_geom_bond_type
C25   C31   A    
C56   H12   S    
C41   C42   A    
C6    C45   A    
C27   C29   A    
C9    C64   A    
C59   H33   S    
C14   H5    S    
C35   C36   A    
C49   H24   S    
C3    C6    A    
C4    H4    S    
C16   N2    A    
C40   N4    A    
C52   N5    A    
C32   H15   S    
C26   C27   A    
C63   H34   S    
N8    N14   A    
C18   C24   A    
C36   C37   A    
C42   C53   S    
C5    H41   S    
C30   C31   A    
N12   Ni2   S    
N5    Ni1   S    
C36   H17   S    
C23   C40   A    
C62   H23   S    
N7    Ni3   S    
C4    N16   A    
C15   C17   A    
C18   C19   A    
C56   N9    A    
C1    N1    A    
C12   C59   A    
C16   H14   S    
C19   C20   A    
C57   H30   S    
C26   H10   S    
C48   H22   S    
C37   H18   S    
C32   C38   A    
C4    C12   A    
C29   C30   A    
C33   H16   S    
N4    Ni2   S    
C3    N14   A    
N2    Ni3   S    
C47   C53   A    
O1    S1    D    
N6    N16   A    
N11   Ni4   S    
C28   C34   A    
C3    H40   S    
C40   Cl2   S    
C13   C14   A    
C58   H31   S    
C7    C56   A    
C6    C54   S    
C44   C46   A    
C28   N3    A    
C22   C34   S    
C62   N10   A    
C8    C41   S    
C55   H29   S    
C45   H36   S    
C17   H42   S    
C5    C7    A    
C25   C26   A    
C21   H8    S    
C13   C24   S    
C60   C61   A    
C25   H9    S    
N10   N13   A    
C38   S1    S    
O2    S1    D    
C43   C44   A    
N13   Ni1   S    
C37   C38   A    
C15   H6    S    
N6    Ni4   S    
N15   Ni3   S    
C47   C48   A    
C29   H13   S    
C50   C51   A    
N3    N5    A    
C57   C61   S    
C51   H27   S    
C39   C46   A    
N1    Ni1   S    
C48   C49   A    
C49   C50   A    
C18   H7    S    
C7    C19   S    
N8    Ni1   S    
C22   C24   A    
C42   C43   A    
C39   H19   S    
C60   H35   S    
N16   Ni2   S    
N9    Ni2   S    
C2    N13   A    
C64   H38   S    
C54   C55   D    
C9    C63   A    
C43   H20   S    
C2    C8    A    
C27   H11   S    
C1    C61   A    
N11   N12   A    
C11   H3    S    
C23   C55   S    
C1    H1    S    
C10   H2    S    
C16   C23   A    
C5    N15   A    
C2    H39   S    
C34   C52   A    
C64   N12   A    
C32   C33   A    
N9    N15   A    
C12   C44   S    
C11   C13   A    
C45   N8    A    
C57   C58   D    
C59   N6    A    
C52   H32   S    
C33   C35   A    
N14   Ni4   S    
N2    N4    A    
C54   H28   S    
C30   Cl1   S    
C10   C11   A    
N1    N7    A    
C28   H26   S    
C50   H25   S    
C20   C21   A    
C39   C41   A    
C63   N11   A    
N10   Ni3   S    
N3    Ni4   S    
C14   C15   A    
C60   N7    A    
C10   C17   A    
C51   C53   A    
C21   C22   A    
C35   C46   S    
H37   O3    S    
O3    S1    S    
C8    C62   A    
C20   C31   S    
C47   H21   S    
