data_mof_unit_12701.cif
_audit_creation_date              2012-12-11T18:09:17-0500
_audit_creation_method            fapswitch 2.2
_symmetry_space_group_name_H-M    P1
_symmetry_Int_Tables_number       1
_space_group_crystal_system       triclinic
_cell_length_a                    8.364322
_cell_length_b                    12.675695
_cell_length_c                    19.004808
_cell_angle_alpha                 100.317014
_cell_angle_beta                  91.616866
_cell_angle_gamma                 98.335774
_cell_volume                      1958.39661529

loop_
_atom_site_label
_atom_site_type_symbol
_atom_type_description
_atom_site_fract_x
_atom_site_fract_y
_atom_site_fract_z
_atom_type_partial_charge
Ba1   Ba    Ba6+2 0.853180 0.547790 0.465300 1.694300
Ba2   Ba    Ba6+2 0.336650 0.452300 0.534710 1.678058
C1    C     C_3   0.693101 0.830094 0.177419 -0.409740
C2    C     C_R   0.021113 0.542250 0.726404 0.056142
C3    C     C_R   0.851266 0.412739 0.811287 -0.169691
C4    C     C_3   0.190872 0.811399 0.279197 0.304156
C5    C     C_R   0.785722 0.420650 0.744247 -0.000121
C6    C     C_R   0.336463 0.596407 0.193523 -0.171457
C7    C     C_R   0.404006 0.577645 0.257558 -0.012753
C8    C     C_R   0.111625 0.460288 0.202855 -0.136510
C9    C     C_R   0.160095 0.466733 0.275934 0.083348
C10   C     C_R   0.980724 0.491185 0.845828 0.005699
C11   C     C_R   0.879394 0.474859 0.699361 -0.231641
C12   C     C_3   0.691984 0.786298 0.247122 0.341984
C13   C     C_R   0.196115 0.529045 0.159084 -0.004233
C14   C     C_R   0.310868 0.520810 0.300899 -0.218428
C15   C     C_R   0.754561 0.446084 0.962991 -0.075588
C16   C     C_3   0.131912 0.813364 0.203097 -0.335698
C17   C     C_R   0.650805 0.411921 0.012804 -0.091942
C18   C     C_R   0.698236 0.440404 0.084455 -0.087008
C19   C     C_R   0.853153 0.494950 0.105031 -0.070068
C20   C     C_R   0.974700 0.499976 0.055062 0.008113
C21   C     C_R   0.922097 0.481283 0.980239 0.035331
C22   C     C_R   0.142032 0.527328 0.079188 -0.023368
C23   C     C_3   0.381633 0.201822 0.316004 0.464888
C24   C     C_R   0.254032 0.546959 0.024686 0.036273
C25   C     C_R   0.200638 0.528383 0.950023 0.013885
C26   C     C_R   0.034185 0.499169 0.926098 -0.021003
C27   C     C_R   0.421942 0.583395 0.040587 -0.088172
C28   C     C_3   0.318187 0.804219 0.695026 0.720614
C29   C     C_R   0.523720 0.618768 0.990258 -0.089105
C30   C     C_R   0.474571 0.590793 0.918798 -0.071530
C31   C     C_R   0.320280 0.534890 0.899395 -0.078458
C32   C     C_R   0.742599 0.188422 0.545365 -0.243401
C33   C     C_R   0.431682 0.808045 0.472288 -0.270780
C34   C     C_3   0.387527 0.166909 0.234533 0.702751
C35   C     C_R   0.400603 0.985621 0.451512 -0.107013
C36   C     C_R   0.339906 0.876380 0.445401 -0.041495
C37   C     C_R   0.577109 0.849963 0.512269 0.063050
C38   C     C_R   0.636595 0.963096 0.523335 -0.052709
C39   C     C_R   0.547972 0.030912 0.490742 -0.072344
C40   C     C_3   0.363825 0.807767 0.774089 -0.304693
C41   C     C_R   0.606448 0.142845 0.499697 0.084061
C42   C     C_R   0.839835 0.121862 0.571786 -0.050591
C43   C     C_R   0.783595 0.010249 0.563392 -0.089594
C44   C     C_3   0.892606 0.188282 0.304581 1.120200
C45   C     C_3   0.052623 0.218693 0.735345 0.374622
C46   C     C_3   0.905943 0.067762 0.275141 -0.324279
C47   C     C_3   0.731304 0.702827 0.678285 0.300614
C48   C     C_3   0.787790 0.741206 0.756805 -0.424931
C49   C     C_3   0.811586 0.213220 0.188907 0.077719
C50   C     C_3   0.957932 0.173379 0.422501 0.133909
C51   C     C_3   0.299560 0.259292 0.148498 0.055324
C52   C     C_3   0.386921 0.016532 0.143992 0.170557
C53   C     C_3   0.020802 0.071779 0.810702 -0.404306
C54   C     C_3   0.248013 0.919266 0.619629 0.279039
C55   C     C_3   0.091385 0.188989 0.807829 -0.189492
C56   C     C_3   0.529971 0.184167 0.718608 0.368670
C57   C     C_3   0.550061 0.112307 0.773307 -0.365561
C58   C     C_R   0.058353 0.561739 0.801408 -0.154619
H1    H     H_    0.776836 0.841562 0.287909 0.088048
H2    H     H_    0.647716 0.908888 0.185873 0.100606
H3    H     H_    0.911398 0.788483 0.761360 0.132046
H4    H     H_    0.788382 0.670686 0.783834 0.067888
H5    H     H_    0.705490 0.793499 0.784839 0.116186
H6    H     H_    0.568483 0.786485 0.267449 -0.083187
H7    H     H_    0.614364 0.772943 0.135156 0.108389
H8    H     H_    0.273345 0.153313 0.332180 -0.008470
H9    H     H_    0.374277 0.290145 0.328825 -0.095915
H10   H     H_    0.503842 0.208608 0.219581 0.015903
H11   H     H_    0.816939 0.842533 0.158347 0.109766
H12   H     H_    0.391753 0.728134 0.783003 0.060205
H13   H     H_    0.226122 0.793467 0.165299 0.059324
H14   H     H_    0.100730 0.305936 0.737898 0.034413
H15   H     H_    0.919009 0.205468 0.725669 -0.065194
H16   H     H_    0.040769 0.244203 0.850742 0.059067
H17   H     H_    0.224281 0.200735 0.818706 0.144901
H18   H     H_    0.649382 0.201093 0.695281 -0.092044
H19   H     H_    0.443573 0.139220 0.674478 0.093510
H20   H     H_    0.633227 0.157775 0.818722 0.085242
H21   H     H_    0.602176 0.040062 0.747826 0.108648
H22   H     H_    0.196569 0.725711 0.282902 0.010632
H23   H     H_    0.472126 0.869688 0.791839 0.078710
H24   H     H_    0.431221 0.085146 0.793976 0.145915
H25   H     H_    0.151680 0.628414 0.823710 0.054935
H26   H     H_    0.795938 0.347476 0.836224 0.060786
H27   H     H_    0.393942 0.664622 0.172574 0.057291
H28   H     H_    0.009209 0.401297 0.181097 0.049263
H29   H     H_    0.835357 0.470939 0.644730 0.054602
H30   H     H_    0.361137 0.512222 0.352348 0.065425
H31   H     H_    0.695120 0.450073 0.913309 0.080296
H32   H     H_    0.526055 0.377672 0.996750 0.074770
H33   H     H_    0.610097 0.427577 0.123598 0.089934
H34   H     H_    0.262863 0.830286 0.807621 0.080462
H35   H     H_    0.313260 0.860905 0.290582 0.021458
H36   H     H_    0.876830 0.531924 0.160538 0.136844
H37   H     H_    0.485187 0.577496 0.088570 0.079450
H38   H     H_    0.648685 0.653237 0.005662 0.078386
H39   H     H_    0.560444 0.604734 0.878708 0.095241
H40   H     H_    0.295028 0.496985 0.844344 0.126704
H41   H     H_    0.326272 0.034415 0.428123 0.093866
H42   H     H_    0.859314 0.961378 0.585833 0.102804
H43   H     H_    0.785993 0.274469 0.551565 0.051451
H44   H     H_    0.383145 0.722855 0.466716 0.068240
H45   H     H_    0.937593 0.052906 0.218234 0.075300
H46   H     H_    0.023258 0.751235 0.187167 0.134999
H47   H     H_    0.103126 0.894929 0.199140 0.138846
H48   H     H_    0.405618 0.765195 0.660485 -0.003756
H49   H     H_    0.942944 0.223320 0.180012 0.072282
H50   H     H_    0.758639 0.275702 0.165911 0.068594
H51   H     H_    0.753925 0.132723 0.159102 0.025751
H52   H     H_    0.982387 0.242417 0.467711 0.090633
H53   H     H_    0.076935 0.163694 0.401450 0.040419
H54   H     H_    0.912345 0.095457 0.438800 0.044218
H55   H     H_    0.370773 0.338217 0.174222 0.038836
H56   H     H_    0.787862 0.019058 0.281184 0.076924
H57   H     H_    0.190537 0.275016 0.120143 0.076275
H58   H     H_    0.370779 0.216738 0.107224 0.020006
H59   H     H_    0.486431 0.063748 0.119668 -0.005223
H60   H     H_    0.267577 0.018362 0.117001 0.071484
H61   H     H_    0.407697 0.930862 0.133756 0.043004
H62   H     H_    0.056148 0.053142 0.863437 0.108838
H63   H     H_    0.886217 0.060293 0.804411 0.116641
H64   H     H_    0.067575 0.014070 0.767657 0.177235
H65   H     H_    0.315911 0.985849 0.597121 0.051228
H66   H     H_    0.124334 0.938006 0.630077 0.091290
H67   H     H_    0.000776 0.038279 0.304994 0.091454
H68   H     H_    0.238389 0.843881 0.578649 -0.018517
H69   H     H_    0.827025 0.663724 0.649728 0.036536
H70   H     H_    0.619538 0.642823 0.674829 0.071773
O1    O     O_2   0.875110 0.423180 0.326290 -0.406776
O2    O     O_2   0.163982 0.118510 0.544685 -0.503767
O3    O     O_3   0.126372 0.155095 0.681222 -0.595553
O4    O     O_3   0.123410 0.433040 0.414950 -0.495360
O5    O     O_3   0.577950 0.634370 0.536140 -0.501789
O6    O     O_2   0.341900 0.231310 0.465740 -0.507014
O7    O     O_3   0.519011 0.178953 0.351214 -0.614753
O8    O     O_2   0.486145 0.487238 0.754990 -0.507587
O9    O     O_3   0.467730 0.277204 0.751764 -0.595236
O10   O     O_3   0.661010 0.625070 0.369680 -0.463933
O11   O     O_2   0.672086 0.482851 0.252972 -0.486530
O12   O     O_3   0.700038 0.792257 0.649137 -0.645829
O13   O     O_3   0.044166 0.252951 0.305809 -0.692073
O14   O     O_3   0.744341 0.684151 0.234636 -0.599703
O15   O     O_2   0.847800 0.768730 0.534310 -0.450148
O16   O     O_3   0.082250 0.684470 0.405440 -0.475372
O17   O     O_2   0.011063 0.880014 0.460071 -0.476442
O18   O     O_3   0.775849 0.223584 0.262085 -0.620842
O19   O     O_3   0.840564 0.196789 0.375023 -0.677103
O20   O     O_3   0.251028 0.195877 0.200498 -0.684095
O21   O     O_3   0.384554 0.052936 0.218659 -0.659353
O22   O     O_3   0.327967 0.912814 0.684839 -0.704568
O23   O     O_3   0.082211 0.853887 0.327215 -0.598722
O24   O     O_2   0.314600 0.576860 0.673750 -0.496686
O25   O     O_3   0.066300 0.567050 0.585060 -0.472190
O26   O     O_3   0.528700 0.375020 0.630330 -0.467232
O27   O     O_3   0.159181 0.749501 0.677882 -0.670415
O28   O     O_3   0.611760 0.365720 0.463870 -0.446020
O29   O     O_3   0.107460 0.315620 0.594570 -0.476484
P1    P     P_3+3 0.042930 0.392230 0.337410 1.046960
P2    P     P_3+3 0.672230 0.754900 0.555730 0.969756
P3    P     P_3+3 0.130401 0.824645 0.410868 0.960949
P4    P     P_3+3 0.146790 0.607860 0.662600 0.947972
P5    P     P_3+3 0.056244 0.177561 0.598487 0.924578
P6    P     P_3+3 0.620845 0.595173 0.277620 0.956407
P7    P     P_3+3 0.521659 0.228561 0.444223 1.016605
P8    P     P_3+3 0.567873 0.389977 0.721726 0.945490

loop_
_geom_bond_atom_site_label_1
_geom_bond_atom_site_label_2
_ccdc_geom_bond_type
C56   O9    S    
C28   O27   S    
O4    P1    S    
C18   H33   S    
C14   H30   S    
Ba2   O25   S    
C4    H22   S    
C52   H60   S    
C48   H4    S    
Ba1   O15   S    
C17   C18   A    
C15   H31   S    
O12   P2    S    
O2    P5    D    
O13   P1    S    
C50   H53   S    
C25   C31   A    
O16   P3    S    
C8    H28   S    
C24   C25   A    
Ba2   O4    S    
O15   P2    D    
C10   C26   S    
C55   H16   S    
Ba1   O28   S    
C7    C14   A    
C22   C24   A    
C8    C13   A    
C33   C37   A    
C51   H57   S    
C41   P7    S    
C50   H52   S    
Ba1   Ba2   S    
C29   H38   S    
C2    C11   A    
Ba1   O25   S    
C16   H47   S    
C17   H32   S    
C44   O18   S    
C29   C30   A    
C6    C7    A    
C49   H51   S    
C54   H66   S    
C54   O22   S    
O27   P4    S    
C46   H56   S    
C28   H48   S    
C53   H62   S    
Ba1   P2    S    
Ba2   O24   S    
C52   H59   S    
C45   O3    S    
C48   H3    S    
C39   C41   A    
Ba1   O16   S    
C23   H8    S    
O7    P7    S    
C34   H10   S    
C9    P1    S    
C53   H63   S    
C38   C43   A    
C4    C16   S    
C12   O14   S    
C32   C41   A    
C55   H17   S    
O24   P4    D    
C33   C36   A    
C32   C42   A    
C57   H24   S    
C3    C10   A    
C33   H44   S    
C8    C9    A    
C37   C38   A    
C3    C5    A    
C51   H58   S    
Ba2   O29   S    
O26   P8    S    
O25   P4    S    
C56   C57   S    
C54   H65   S    
C12   H1    S    
C47   H69   S    
Ba2   O6    S    
O8    P8    D    
Ba2   P4    S    
C23   O7    S    
C16   H46   S    
C35   C36   A    
C45   C55   S    
C9    C14   A    
C50   O19   S    
C28   O22   S    
C46   H45   S    
O29   P5    S    
C36   P3    S    
Ba2   O28   S    
C47   O12   S    
C2    C58   A    
C40   H12   S    
C12   H6    S    
C2    P4    S    
C15   C21   A    
C21   C26   A    
O9    P8    S    
Ba1   O10   S    
C52   O21   S    
C1    C12   S    
C56   H19   S    
C3    H26   S    
C38   C39   A    
C52   H61   S    
C4    H35   S    
C6    C13   A    
C53   C55   S    
C51   O20   S    
C20   C22   A    
C37   P2    S    
Ba1   O4    S    
O3    P5    S    
C42   C43   A    
O28   P7    S    
C1    H2    S    
O10   P6    S    
C5    P8    S    
C53   H64   S    
C13   C22   S    
Ba2   O26   S    
C11   H29   S    
C40   H34   S    
Ba1   P1    S    
C1    H7    S    
C40   H23   S    
C57   H21   S    
C45   H14   S    
Ba1   O1    S    
O17   P3    D    
C57   H20   S    
C58   H25   S    
C34   O21   S    
C1    H11   S    
C19   H36   S    
C50   H54   S    
C49   H50   S    
C47   H70   S    
O23   P3    S    
O11   P6    D    
Ba2   O5    S    
C30   H39   S    
C27   H37   S    
O14   P6    S    
C31   H40   S    
C16   H13   S    
C6    H27   S    
C7    P6    S    
O5    P2    S    
C45   H15   S    
C27   C29   A    
Ba1   O5    S    
C30   C31   A    
C46   H67   S    
C35   H41   S    
C34   O20   S    
O6    P7    D    
C49   O18   S    
C32   H43   S    
C15   C17   A    
C54   H68   S    
C35   C39   A    
O1    P1    D    
C48   H5    S    
C4    O23   S    
C43   H42   S    
C56   H18   S    
C23   C34   S    
C10   C58   A    
C44   C46   S    
C5    C11   A    
C44   O19   S    
C23   H9    S    
C18   C19   A    
C24   C27   A    
C49   H49   S    
C47   C48   S    
C25   C26   A    
C20   C21   A    
C28   C40   S    
C42   P5    S    
C19   C20   A    
C44   O13   S    
C51   H55   S    
