data_mof_unit_5617.cif
_audit_creation_date              2012-12-10T18:22:15-0500
_audit_creation_method            fapswitch 2.2
_symmetry_space_group_name_H-M    P1
_symmetry_Int_Tables_number       1
_space_group_crystal_system       triclinic
_cell_length_a                    14.897743
_cell_length_b                    14.099507
_cell_length_c                    15.752928
_cell_angle_alpha                 91.921757
_cell_angle_beta                  89.083361
_cell_angle_gamma                 90.841204
_cell_volume                      3306.30007341

loop_
_atom_site_label
_atom_site_type_symbol
_atom_type_description
_atom_site_fract_x
_atom_site_fract_y
_atom_site_fract_z
_atom_type_partial_charge
C1    C     C_R   0.327115 0.499363 0.500143 0.860407
C2    C     C_R   0.904746 0.469386 0.568034 0.139529
C3    C     C_R   0.953540 0.497410 0.495263 -0.001731
C4    C     C_R   0.500738 0.498509 0.338445 0.973644
C5    C     C_R   0.908914 0.525378 0.421557 0.024127
C6    C     C_R   0.949155 0.439075 0.639728 -0.194953
C7    C     C_R   0.042323 0.436491 0.639798 -0.225722
C8    C     C_R   0.091442 0.465645 0.568680 0.128674
C9    C     C_R   0.047096 0.496814 0.496195 0.080782
C10   C     C_R   0.096515 0.527565 0.424784 0.130440
C11   C     C_R   0.052513 0.556042 0.352487 -0.241316
C12   C     C_3   0.591107 0.498685 0.951514 -0.429472
C13   C     C_R   0.959334 0.554124 0.350457 -0.147592
C14   C     C_R   0.184406 0.464876 0.568744 -0.274118
C15   C     C_R   0.231994 0.497771 0.498703 -0.035846
C16   C     C_R   0.672970 0.500372 0.498637 0.992466
C17   C     C_R   0.189401 0.529287 0.427157 -0.263952
C18   C     C_R   0.556163 0.797546 0.445976 0.462176
C19   C     C_R   0.558432 0.200521 0.448317 0.447510
C20   C     C_R   0.439437 0.798462 0.549746 -0.133959
C21   C     C_R   0.442341 0.203841 0.552786 -0.125540
C22   C     C_R   0.435238 0.899612 0.550850 -0.030976
C23   C     C_3   0.588487 0.516160 0.048264 -0.394534
C24   C     C_R   0.437965 0.102801 0.553939 -0.027452
C25   C     C_R   0.496590 0.949557 0.498808 -0.029513
C26   C     C_R   0.498464 0.050715 0.500990 -0.013491
C27   C     C_R   0.553604 0.898271 0.441217 -0.092483
C28   C     C_R   0.563281 0.099989 0.451715 -0.114980
C29   C     C_R   0.371127 0.951451 0.601576 0.150627
C30   C     C_R   0.374859 0.053253 0.605856 0.152367
C31   C     C_R   0.627427 0.046602 0.403943 0.123228
C32   C     C_R   0.607842 0.950644 0.383346 0.188594
C33   C     C_R   0.499942 0.501329 0.661747 0.880950
C34   C     C_1   0.496529 0.501599 0.825927 -0.102443
C35   C     C_3   0.426932 0.573689 0.053954 -0.080163
C36   C     C_3   0.457443 0.395482 0.046857 -0.033758
C37   C     C_3   0.444276 0.404364 0.947745 -0.065836
C38   C     C_3   0.442490 0.586558 0.955571 -0.052582
C39   C     C_1   0.498436 0.503445 0.750673 -0.194512
C40   C     C_3   0.492362 0.494547 0.083553 0.183430
C41   C     C_3   0.493953 0.497457 0.917691 0.184379
C42   C     C_3   0.296003 0.898106 0.647402 -0.413041
C43   C     C_3   0.326318 0.866014 0.733734 -0.903152
C44   C     C_3   0.313302 0.109121 0.667212 -0.434100
C45   C     C_1   0.496056 0.493429 0.174868 -0.025478
C46   C     C_3   0.231171 0.145975 0.622288 -0.866549
C47   C     C_3   0.722181 0.085021 0.386816 -0.371741
C48   C     C_3   0.795005 0.017536 0.414429 -0.876972
C49   C     C_3   0.632719 0.914526 0.293586 -0.348444
C50   C     C_3   0.550750 0.876956 0.244912 -0.846465
C51   C     C_3   0.515451 0.310617 0.077112 -0.353592
C52   C     C_3   0.469376 0.256627 0.148945 -0.852395
C53   C     C_3   0.426998 0.667238 0.110818 -0.361552
C54   C     C_3   0.354125 0.667261 0.180706 -0.901195
C55   C     C_3   0.462511 0.313712 0.890650 -0.357460
C56   C     C_1   0.499191 0.494922 0.249928 -0.131496
C57   C     C_3   0.395354 0.232817 0.907232 -0.919552
C58   C     C_3   0.489598 0.682118 0.930423 -0.341483
C59   C     C_3   0.422547 0.753726 0.899274 -0.935044
C60   C     C_R   0.815073 0.523614 0.421281 0.356799
C61   C     C_R   0.768449 0.500485 0.495896 -0.127327
C62   C     C_R   0.812129 0.472447 0.568024 -0.336724
Cl1   Cl    Cl    0.639152 0.731863 0.391536 -0.573724
Cl2   Cl    Cl    0.614755 0.262595 0.367358 -0.625625
Cl3   Cl    Cl    0.755358 0.542559 0.327025 -0.586611
H1    H     H_    0.374676 0.584551 0.926423 0.142123
H2    H     H_    0.357441 0.543968 0.060070 0.132509
H3    H     H_    0.388486 0.384209 0.073612 0.138791
H4    H     H_    0.607058 0.591456 0.063336 0.185889
H5    H     H_    0.640971 0.473504 0.077744 0.189877
H6    H     H_    0.633653 0.554347 0.921840 0.174281
H7    H     H_    0.623565 0.429591 0.935918 0.182133
H8    H     H_    0.773532 0.452576 0.623893 0.148151
H9    H     H_    0.911809 0.417183 0.695520 0.143555
H10   H     H_    0.387640 0.822754 0.726397 0.264831
H11   H     H_    0.341576 0.927931 0.776675 0.259254
H12   H     H_    0.371401 0.417348 0.938835 0.121899
H13   H     H_    0.272261 0.822702 0.763422 0.257730
H14   H     H_    0.234581 0.940897 0.655725 0.217616
H15   H     H_    0.272322 0.836121 0.608216 0.199641
H16   H     H_    0.251186 0.193044 0.570012 0.265021
H17   H     H_    0.190539 0.085942 0.595367 0.257204
H18   H     H_    0.188761 0.187030 0.668545 0.249082
H19   H     H_    0.290285 0.066823 0.721472 0.218278
H20   H     H_    0.350510 0.168708 0.698993 0.195604
H21   H     H_    0.783354 0.998033 0.481511 0.269680
H22   H     H_    0.796407 0.952179 0.373347 0.267030
H23   H     H_    0.075950 0.412600 0.695554 0.143383
H24   H     H_    0.861786 0.053109 0.409255 0.256272
H25   H     H_    0.731799 0.100443 0.318608 0.229151
H26   H     H_    0.734418 0.151484 0.424772 0.253496
H27   H     H_    0.520880 0.813361 0.274477 0.281856
H28   H     H_    0.499006 0.932766 0.243104 0.250749
H29   H     H_    0.571039 0.856872 0.178661 0.242669
H30   H     H_    0.660777 0.973331 0.255772 0.193886
H31   H     H_    0.686756 0.861696 0.292755 0.253574
H32   H     H_    0.456368 0.304276 0.205050 0.282106
H33   H     H_    0.404693 0.224898 0.127351 0.240190
H34   H     H_    0.219931 0.440843 0.623504 0.133657
H35   H     H_    0.513261 0.198543 0.168676 0.270311
H36   H     H_    0.531523 0.257466 0.026663 0.220832
H37   H     H_    0.581641 0.335083 0.100699 0.223277
H38   H     H_    0.286632 0.668248 0.151796 0.250631
H39   H     H_    0.357573 0.604218 0.220411 0.257693
H40   H     H_    0.361958 0.731778 0.222488 0.258709
H41   H     H_    0.493696 0.680114 0.139873 0.221705
H42   H     H_    0.412746 0.730099 0.073832 0.229653
H43   H     H_    0.394459 0.212300 0.974375 0.276254
H44   H     H_    0.326622 0.254487 0.890548 0.253377
H45   H     H_    0.228775 0.553688 0.373339 0.133534
H46   H     H_    0.413408 0.169653 0.866862 0.249302
H47   H     H_    0.453844 0.329344 0.822787 0.218634
H48   H     H_    0.532798 0.289941 0.895355 0.198302
H49   H     H_    0.389554 0.723536 0.841616 0.267437
H50   H     H_    0.369614 0.770262 0.947464 0.260740
H51   H     H_    0.458280 0.820537 0.883057 0.261957
H52   H     H_    0.530141 0.713999 0.982755 0.200375
H53   H     H_    0.538434 0.670923 0.877259 0.218605
H54   H     H_    0.090192 0.579442 0.297402 0.148693
H55   H     H_    0.927581 0.576647 0.293394 0.200205
H56   H     H_    0.395756 0.756543 0.589304 0.170614
H57   H     H_    0.398334 0.247713 0.591635 0.167007
N1    N     N_R   0.500070 0.750030 0.500040 -0.134499
N2    N     N_R   0.500070 0.249970 0.500040 -0.127575
O1    O     O_R   0.367860 0.580280 0.500020 -0.632164
O2    O     O_R   0.367860 0.419720 0.500020 -0.627456
O3    O     O_R   0.500020 0.580310 0.377140 -0.576911
O4    O     O_R   0.500020 0.419690 0.377140 -0.568384
O5    O     O_R   0.632160 0.580270 0.499980 -0.553923
O6    O     O_R   0.632160 0.419730 0.499980 -0.582733
O7    O     O_R   0.500010 0.580240 0.622850 -0.621272
O8    O     O_R   0.500010 0.419760 0.622850 -0.632989
Zn1   Zn    Zn3+2 0.500020 0.607200 0.499990 1.001416
Zn2   Zn    Zn3+2 0.500020 0.392800 0.499990 0.993993

loop_
_geom_bond_atom_site_label_1
_geom_bond_atom_site_label_2
_ccdc_geom_bond_type
C42   H15   S    
C22   C29   A    
C29   C42   S    
C35   C53   S    
C23   H4    S    
C11   H54   S    
C17   H45   S    
C13   H55   S    
C14   H34   S    
O6    Zn2   S    
C53   C54   S    
C51   H37   S    
C12   C23   S    
C29   C30   A    
N1    Zn1   S    
C54   H39   S    
C36   C37   S    
C1    O1    A    
C55   H47   S    
C18   Cl1   S    
C10   C17   A    
C23   C40   S    
C52   H32   S    
C58   H53   S    
C21   H57   S    
C7    H23   S    
C20   N1    A    
C38   C58   S    
C53   H41   S    
C57   H44   S    
C38   H1    S    
C45   C56   T    
C8    C9    A    
C22   C25   A    
C62   H8    S    
C1    C15   S    
C16   O6    A    
C9    C10   A    
C5    C13   A    
C4    O3    A    
C18   N1    A    
C33   O7    A    
C12   H7    S    
C42   H14   S    
C46   H17   S    
C4    C56   S    
C23   H5    S    
C30   C44   S    
C2    C6    A    
C34   C41   S    
C44   C46   S    
C6    H9    S    
C43   H10   S    
C40   C45   S    
C19   N2    A    
C4    O4    A    
C34   C39   T    
C47   C48   S    
C54   H38   S    
C7    C8    A    
C35   C38   S    
C1    O2    A    
C38   C41   S    
C59   H51   S    
C55   H48   S    
C3    C5    A    
C25   C26   A    
C37   H12   S    
C52   H35   S    
C58   H52   S    
C51   C52   S    
C60   C61   A    
C43   H13   S    
C12   C41   S    
C3    C9    A    
O4    Zn2   S    
C46   H16   S    
C53   H42   S    
C31   C32   A    
C35   H2    S    
C19   Cl2   S    
C48   H22   S    
C33   C39   S    
C49   H30   S    
C16   O5    A    
C20   H56   S    
C36   C51   S    
O5    Zn1   S    
C33   O8    A    
C50   H27   S    
C12   H6    S    
C20   C22   A    
C60   Cl3   S    
C48   H24   S    
C55   C57   S    
C19   C28   A    
C47   H25   S    
C48   H21   S    
C51   H36   S    
C42   C43   S    
C44   H20   S    
C36   C40   S    
O1    Zn1   S    
C43   H11   S    
C15   C17   A    
C8    C14   A    
C5    C60   A    
C27   C32   A    
C47   H26   S    
C28   C31   A    
C50   H29   S    
C18   C27   A    
O3    Zn1   S    
C24   C26   A    
O7    Zn1   S    
C59   H50   S    
C36   H3    S    
C50   H28   S    
C6    C7    A    
N2    Zn2   S    
C25   C27   A    
C26   C28   A    
C44   H19   S    
C21   N2    A    
C2    C3    A    
C58   C59   S    
C11   C13   A    
C57   H46   S    
C54   H40   S    
C59   H49   S    
C52   H33   S    
C35   C40   S    
C49   H31   S    
C37   C41   S    
C61   C62   A    
C24   C30   A    
C32   C49   S    
C10   C11   A    
C46   H18   S    
C37   C55   S    
C57   H43   S    
O2    Zn2   S    
O8    Zn2   S    
C49   C50   S    
C16   C61   S    
C21   C24   A    
C14   C15   A    
C31   C47   S    
C2    C62   A    
