data_mof_unit_24928.cif
_audit_creation_date              2012-12-10T20:41:46-0500
_audit_creation_method            fapswitch 2.2
_symmetry_space_group_name_H-M    P1
_symmetry_Int_Tables_number       1
_space_group_crystal_system       triclinic
_cell_length_a                    15.186921
_cell_length_b                    15.061913
_cell_length_c                    9.850698
_cell_angle_alpha                 90.060753
_cell_angle_beta                  90.933052
_cell_angle_gamma                 90.018492
_cell_volume                      2252.98870791

loop_
_atom_site_label
_atom_site_type_symbol
_atom_type_description
_atom_site_fract_x
_atom_site_fract_y
_atom_site_fract_z
_atom_type_partial_charge
C1    C     C_R   0.379747 0.880031 0.499149 0.933070
C2    C     C_R   0.379873 0.120080 0.499241 0.927349
C3    C     C_R   0.879935 0.379794 0.499294 0.942808
C4    C     C_R   0.881969 0.621738 0.499039 0.894607
C5    C     C_3   0.314268 0.247816 0.745329 0.103858
C6    C     C_3   0.342813 0.718697 0.709783 0.068927
C7    C     C_3   0.829602 0.749377 0.748795 0.100544
C8    C     C_3   0.831990 0.230757 0.727598 0.082939
C9    C     C_R   0.426861 0.026329 0.069354 0.221724
C10   C     C_R   0.927123 0.526968 0.069388 0.227511
C11   C     C_R   0.574523 0.981875 0.073896 -0.035464
C12   C     C_R   0.074748 0.482958 0.073981 -0.006362
C13   C     C_R   0.574506 0.981917 0.929906 0.065432
C14   C     C_R   0.074745 0.483167 0.929959 0.104041
C15   C     C_R   0.426983 0.026460 0.926661 0.207967
C16   C     C_R   0.927285 0.527433 0.926777 0.222379
C17   C     C_3   0.338357 0.984638 0.917485 -0.432239
C18   C     C_3   0.837657 0.487693 0.917687 -0.443395
C19   C     C_3   0.338172 0.983889 0.071562 -0.489086
C20   C     C_3   0.837840 0.485960 0.071738 -0.490505
C21   C     C_R   0.616728 0.123136 0.500949 0.902468
C22   C     C_R   0.618237 0.878360 0.500806 0.935986
C23   C     C_R   0.116673 0.623203 0.501112 0.895202
C24   C     C_R   0.116737 0.376713 0.500610 0.926293
C25   C     C_R   0.273212 0.208414 0.619775 -0.035120
C26   C     C_R   0.287756 0.776467 0.618303 -0.025010
C27   C     C_R   0.818075 0.754927 0.598268 0.045897
C28   C     C_R   0.782226 0.281985 0.620667 -0.025188
C29   C     C_R   0.307055 0.178966 0.497724 -0.062572
C30   C     C_R   0.308064 0.819648 0.498531 -0.044544
C31   C     C_R   0.821512 0.692914 0.493872 -0.084604
C32   C     C_R   0.808078 0.319557 0.498833 -0.050519
C33   C     C_R   0.262616 0.199279 0.375802 -0.170038
C34   C     C_R   0.252215 0.811212 0.384686 -0.171565
C35   C     C_R   0.765134 0.701252 0.380363 -0.159191
C36   C     C_R   0.756760 0.306361 0.381069 -0.172001
C37   C     C_R   0.697355 0.762292 0.383316 -0.131512
C38   C     C_R   0.688841 0.245123 0.383020 -0.118394
C39   C     C_R   0.194662 0.260530 0.377411 -0.125326
C40   C     C_R   0.184532 0.749534 0.387179 -0.126327
C41   C     C_R   0.684886 0.812955 0.500993 -0.006994
C42   C     C_R   0.671467 0.199635 0.503982 -0.099131
C43   C     C_R   0.170646 0.299318 0.501229 -0.099515
C44   C     C_R   0.171730 0.699507 0.505396 -0.100609
C45   C     C_R   0.747065 0.809408 0.606184 -0.032221
C46   C     C_R   0.710379 0.227785 0.626067 0.120217
C47   C     C_R   0.201277 0.262264 0.622935 0.147257
C48   C     C_R   0.215738 0.722541 0.626132 0.126317
C49   C     C_3   0.746060 0.805920 0.758814 0.175459
C50   C     C_3   0.748506 0.175678 0.742732 0.194649
C51   C     C_3   0.229921 0.302402 0.755777 0.185168
C52   C     C_3   0.259543 0.664506 0.731073 0.176958
H1    H     H_    0.283331 0.172520 0.279319 0.181944
H2    H     H_    0.263209 0.848498 0.292799 0.154068
H3    H     H_    0.769993 0.657560 0.293358 0.175565
H4    H     H_    0.771607 0.339274 0.286753 0.160492
H5    H     H_    0.287571 0.028381 0.115264 0.211335
H6    H     H_    0.340400 0.915816 0.114619 0.228164
H7    H     H_    0.788043 0.530938 0.116383 0.218442
H8    H     H_    0.839136 0.417573 0.113562 0.222431
H9    H     H_    0.754987 0.871788 0.807793 0.114542
H10   H     H_    0.755233 0.103433 0.721737 0.124795
H11   H     H_    0.238486 0.375643 0.752232 0.087973
H12   H     H_    0.263185 0.593306 0.701442 0.121100
H13   H     H_    0.325812 0.198544 0.827565 0.166120
H14   H     H_    0.369557 0.753945 0.800576 0.176813
H15   H     H_    0.824590 0.680816 0.789052 0.147165
H16   H     H_    0.851395 0.271050 0.817526 0.156939
H17   H     H_    0.634385 0.965970 0.129644 0.163427
H18   H     H_    0.134775 0.467859 0.129812 0.186009
H19   H     H_    0.634433 0.966759 0.877039 0.138419
H20   H     H_    0.134934 0.469057 0.877116 0.152880
H21   H     H_    0.288507 0.029940 0.871703 0.244154
H22   H     H_    0.340322 0.917277 0.871667 0.247018
H23   H     H_    0.788395 0.534316 0.873587 0.218365
H24   H     H_    0.837733 0.420764 0.870865 0.238936
N1    N     N_R   0.499140 0.000000 0.142800 -0.127229
N2    N     N_R   0.999140 0.500000 0.142800 -0.139304
N3    N     N_R   0.499160 0.000000 0.857150 -0.111296
N4    N     N_R   0.999160 0.500000 0.857150 -0.121871
O1    O     O_R   0.408400 0.908380 0.614690 -0.620232
O2    O     O_R   0.408400 0.091620 0.614690 -0.605248
O3    O     O_R   0.908400 0.408380 0.614690 -0.612951
O4    O     O_R   0.908400 0.591620 0.614690 -0.616990
O5    O     O_R   0.408370 0.908370 0.385350 -0.630010
O6    O     O_R   0.408370 0.091630 0.385350 -0.637021
O7    O     O_R   0.908370 0.408370 0.385350 -0.634116
O8    O     O_R   0.908370 0.591630 0.385350 -0.631614
O9    O     O_R   0.591610 0.091610 0.614650 -0.590927
O10   O     O_R   0.591610 0.908390 0.614650 -0.590318
O11   O     O_R   0.091610 0.591610 0.614650 -0.591356
O12   O     O_R   0.091610 0.408390 0.614650 -0.607325
O13   O     O_R   0.591590 0.091600 0.385310 -0.615056
O14   O     O_R   0.591590 0.908400 0.385310 -0.641719
O15   O     O_R   0.091590 0.591600 0.385310 -0.611123
O16   O     O_R   0.091590 0.408400 0.385310 -0.626514
Zn1   Zn    Zn3+2 0.500010 0.000000 0.653130 1.048284
Zn2   Zn    Zn3+2 0.000010 0.500000 0.653130 1.044785
Zn3   Zn    Zn3+2 0.499980 0.000000 0.346870 0.991158
Zn4   Zn    Zn3+2 0.999980 0.500000 0.346870 0.995280
H25   H     H_    0.652652 0.766767 0.296692 0.195215
H26   H     H_    0.654288 0.229541 0.288871 0.195303
H27   H     H_    0.165621 0.281681 0.281802 0.215758
H28   H     H_    0.146150 0.737491 0.295307 0.187757
S1    S     S_3+6 0.658412 0.740933 0.828029 0.005232
O17   O     O_2   0.681039 0.720447 0.973855 -0.364831
O18   O     O_2   0.572711 0.790466 0.822261 -0.259595
O19   O     O_3   0.648560 0.645603 0.739730 -0.498681
H29   H     H_    0.639045 0.598820 0.808497 0.389866
S2    S     S_3+6 0.692922 0.199579 0.898005 0.021886
O20   O     O_2   0.597039 0.176746 0.883233 -0.242353
O21   O     O_2   0.733659 0.145216 0.010384 -0.332761
O22   O     O_3   0.702220 0.308071 0.936320 -0.553701
H30   H     H_    0.678050 0.313846 0.028703 0.384275
S3    S     S_3+6 0.162160 0.264616 0.891442 -0.005071
O23   O     O_2   0.197150 0.302923 0.022402 -0.366320
O24   O     O_2   0.068762 0.294315 0.868237 -0.287013
O25   O     O_3   0.164253 0.153129 0.900113 -0.550771
H31   H     H_    0.134972 0.138418 0.986348 0.385198
S4    S     S_3+6 0.214591 0.681751 0.896459 0.023651
O26   O     O_2   0.116769 0.668069 0.890911 -0.232081
O27   O     O_2   0.255675 0.616552 0.993913 -0.323144
O28   O     O_3   0.235308 0.785638 0.950868 -0.561049
H32   H     H_    0.209258 0.788853 0.042269 0.385692
S5    S     S_3+6 0.408089 0.317070 0.712906 0.077242
O29   O     O_2   0.485715 0.260721 0.676614 -0.217005
O30   O     O_2   0.388352 0.379853 0.597753 -0.263265
O31   O     O_3   0.433580 0.375643 0.853545 -0.453799
H33   H     H_    0.383995 0.417579 0.864772 0.363400
S6    S     S_3+6 0.423846 0.655296 0.620434 0.089123
O32   O     O_2   0.382579 0.613009 0.496553 -0.248937
O33   O     O_2   0.497734 0.714511 0.577207 -0.234611
O34   O     O_3   0.463541 0.574930 0.722637 -0.438412
H34   H     H_    0.467786 0.602392 0.813914 0.366349
S7    S     S_3+6 0.927811 0.805461 0.804180 0.082501
O35   O     O_2   0.004221 0.770755 0.725124 -0.210651
O36   O     O_2   0.920203 0.903807 0.781126 -0.225300
O37   O     O_3   0.945644 0.785637 0.970257 -0.491795
H35   H     H_    0.889694 0.801694 0.014379 0.348815
S8    S     S_3+6 0.920814 0.165584 0.661919 0.074518
O38   O     O_2   0.888830 0.110743 0.543396 -0.268068
O39   O     O_2   0.993722 0.225097 0.616186 -0.268014
O40   O     O_3   0.959474 0.097571 0.784169 -0.421326
H36   H     H_    0.966574 0.135659 0.865621 0.374801

loop_
_geom_bond_atom_site_label_1
_geom_bond_atom_site_label_2
_ccdc_geom_bond_type
S7    O37   S    
C13   N3    A    
C18   H23   S    
S8    O40   S    
C6    S6    S    
O31   H33   S    
C10   N2    A    
O12   Zn2   S    
O28   H32   S    
C21   O9    A    
C19   H5    S    
S1    O18   D    
C28   C46   A    
C33   C39   A    
C6    H14   S    
O1    Zn1   S    
C2    C29   S    
C36   H4    S    
C32   C36   A    
C35   C37   A    
S8    O39   D    
C38   C42   A    
C48   C52   S    
C24   O16   A    
C22   C41   S    
C1    O1    A    
O40   H36   S    
C29   C33   A    
C50   S2    S    
C7    C27   S    
O19   H29   S    
C25   C29   A    
C15   C17   S    
C42   C46   A    
C3    O3    A    
O25   H31   S    
O22   H30   S    
C11   N1    A    
S2    O20   D    
C9    C19   S    
C15   N3    A    
C3    O7    A    
C10   C20   S    
S3    O24   D    
O3    Zn2   S    
C12   N2    A    
S5    O31   S    
N1    Zn3   S    
C14   N4    A    
C20   H8    S    
O13   Zn3   S    
O10   Zn1   S    
C18   C20   S    
S4    O28   S    
C26   C48   A    
C27   C45   A    
C17   H21   S    
C22   O14   A    
C24   O12   A    
S4    O27   D    
C19   H6    S    
C33   H1    S    
S1    O19   S    
C49   H9    S    
C30   C34   A    
C27   C31   A    
S7    O35   D    
C51   H11   S    
S8    O38   D    
C7    C49   S    
C5    H13   S    
C52   H12   S    
O15   Zn4   S    
C49   S1    S    
C13   H19   S    
C35   H3    S    
C51   S3    S    
C23   C44   S    
O9    Zn1   S    
C16   N4    A    
S6    O33   D    
C7    S7    S    
O5    Zn3   S    
C40   H28   S    
C4    O4    A    
C28   C32   A    
S3    O25   S    
C45   C49   S    
C22   O10   A    
C9    N1    A    
C20   H7    S    
O6    Zn3   S    
S2    O22   S    
O8    Zn4   S    
C5    C25   S    
C52   S4    S    
C12   C14   A    
C8    H16   S    
N2    Zn4   S    
O34   H34   S    
C50   H10   S    
O2    Zn1   S    
C23   O11   A    
C2    O2    A    
C1    O5    A    
C8    C50   S    
S4    O26   D    
O7    Zn4   S    
S7    O36   D    
C12   H18   S    
C25   C47   A    
C18   H24   S    
N4    Zn2   S    
C17   H22   S    
C14   H20   S    
N3    Zn1   S    
C5    C51   S    
C47   C51   S    
C11   H17   S    
C39   H27   S    
C6    C26   S    
C4    O8    A    
S1    O17   D    
C46   C50   S    
C8    S8    S    
O4    Zn2   S    
C36   C38   A    
S6    O32   D    
C9    C15   A    
C38   H26   S    
C10   C16   A    
C37   H25   S    
C11   C13   A    
C34   H2    S    
S5    O29   D    
C21   O13   A    
O14   Zn3   S    
C8    C28   S    
O16   Zn4   S    
C1    C30   S    
C17   C19   S    
C23   O15   A    
C2    O6    A    
C31   C35   A    
O11   Zn2   S    
C37   C41   A    
C3    C32   S    
S2    O21   D    
C4    C31   S    
O37   H35   S    
C7    H15   S    
C21   C42   S    
S6    O34   S    
C44   C48   A    
C40   C44   A    
C39   C43   A    
C16   C18   S    
C5    S5    S    
S5    O30   D    
C24   C43   S    
C41   C45   A    
C34   C40   A    
C6    C52   S    
C43   C47   A    
S3    O23   D    
C26   C30   A    
