data_mof_unit_41125.cif
_audit_creation_date              2012-10-26T20:43:59-0400
_audit_creation_method            fapswitch 2.2
_symmetry_space_group_name_H-M    P1
_symmetry_Int_Tables_number       1
_space_group_crystal_system       triclinic
_cell_length_a                    10.953389
_cell_length_b                    9.47887
_cell_length_c                    19.56012
_cell_angle_alpha                 90.122618
_cell_angle_beta                  90.402254
_cell_angle_gamma                 90.145306
_cell_volume                      2030.78282805

loop_
_atom_site_label
_atom_site_type_symbol
_atom_type_description
_atom_site_fract_x
_atom_site_fract_y
_atom_site_fract_z
_atom_type_partial_charge
C1    C     C_R   0.872070 0.500032 0.500347 0.063175
C2    C     C_R   0.738064 0.500088 0.500361 0.636542
C3    C     C_R   0.498971 0.499667 0.367403 0.628343
C4    C     C_R   0.497408 0.499544 0.632765 0.613553
C5    C     C_R   0.063736 0.378360 0.479852 0.067594
C6    C     C_R   0.936909 0.623776 0.518264 0.104438
C7    C     C_R   0.936103 0.376235 0.482267 0.080805
C8    C     C_R   0.063738 0.622540 0.521138 0.052912
C9    C     C_R   0.424772 0.387532 0.742921 0.219846
C10   C     C_R   0.422966 0.589682 0.252640 0.260932
C11   C     C_R   0.569435 0.394357 0.256524 0.186446
C12   C     C_R   0.128297 0.500666 0.500308 0.046809
C13   C     C_R   0.559004 0.596678 0.749333 0.178480
C14   C     C_R   0.435628 0.373250 0.814612 0.064355
C15   C     C_R   0.427457 0.585338 0.180822 0.083040
C16   C     C_R   0.551965 0.371981 0.185982 0.088743
C17   C     C_R   0.546906 0.595390 0.821187 0.068503
C18   C     C_R   0.491182 0.480289 0.853429 0.022635
C19   C     C_R   0.486226 0.472509 0.147473 -0.045361
C20   C     C_R   0.411751 0.074121 0.465593 0.064088
C21   C     C_R   0.589347 0.926071 0.533472 0.073561
C22   C     C_R   0.588839 0.075026 0.534017 0.080063
C23   C     C_R   0.599944 0.482081 0.966215 -0.078289
C24   C     C_R   0.410914 0.925227 0.466343 0.054899
C25   C     C_R   0.492798 0.495936 0.709144 -0.049158
C26   C     C_R   0.497803 0.496373 0.291363 -0.068435
C27   C     C_R   0.378474 0.451849 0.035001 -0.118350
C28   C     C_R   0.598375 0.482197 0.037392 -0.101022
C29   C     C_R   0.379495 0.457188 0.963868 -0.075776
C30   C     C_R   0.487524 0.467891 0.072112 0.013827
C31   C     C_R   0.490256 0.472421 0.928957 0.099783
C32   C     C_R   0.262068 0.500142 0.500044 0.629058
Cu1   Cu    Cu3+1 0.500000 0.640660 0.500000 1.088853
Cu2   Cu    Cu3+1 0.500000 0.359340 0.500000 1.116184
H1    H     H_    0.342151 0.129909 0.437268 0.145257
H2    H     H_    0.101113 0.235389 0.405051 0.252177
H3    H     H_    0.901501 0.829759 0.498919 0.232977
H4    H     H_    0.899713 0.786304 0.582885 0.299204
H5    H     H_    0.893694 0.216959 0.415699 0.293450
H6    H     H_    0.897117 0.169377 0.499573 0.208129
H7    H     H_    0.168823 0.798232 0.507605 0.238715
H8    H     H_    0.183157 0.719896 0.586914 0.281707
H9    H     H_    0.186031 0.301620 0.618086 0.366655
H10   H     H_    0.191368 0.706379 0.373974 0.349159
H11   H     H_    0.790999 0.496567 0.323358 0.339395
H12   H     H_    0.660796 0.870433 0.560216 0.198403
H13   H     H_    0.778010 0.563208 0.666587 0.332636
H14   H     H_    0.300371 0.250924 0.854495 0.279762
H15   H     H_    0.422032 0.158787 0.822139 0.292226
H16   H     H_    0.302271 0.662993 0.113177 0.248077
H17   H     H_    0.442686 0.740433 0.109541 0.241205
H18   H     H_    0.569599 0.160295 0.180834 0.273730
H19   H     H_    0.572206 0.233857 0.104453 0.233582
H20   H     H_    0.682100 0.708553 0.868168 0.277211
H21   H     H_    0.559850 0.806809 0.840506 0.291722
H22   H     H_    0.659570 0.131612 0.561585 0.128113
H23   H     H_    0.339289 0.868952 0.439704 0.150380
H24   H     H_    0.686499 0.491217 0.940156 0.129629
H25   H     H_    0.292508 0.437804 0.061180 0.130330
H26   H     H_    0.683380 0.493598 0.065531 0.151114
H27   H     H_    0.293830 0.450613 0.936064 0.131537
H28   H     H_    0.107417 0.169886 0.486212 0.225144
N1    N     N_R   0.500000 0.852070 0.500000 -0.243380
N2    N     N_3   0.587306 0.711786 0.862801 -0.600404
N3    N     N_R   0.500000 0.147930 0.500000 -0.219997
N4    N     N_3   0.128026 0.256568 0.455404 -0.616984
N5    N     N_3   0.874238 0.752691 0.533861 -0.564890
N6    N     N_3   0.871444 0.248500 0.465266 -0.544443
N7    N     N_3   0.123382 0.746930 0.547169 -0.622491
N8    N     N_3   0.395088 0.248393 0.849341 -0.600236
N9    N     N_3   0.376132 0.699788 0.142168 -0.522261
N10   N     N_3   0.603351 0.247905 0.154527 -0.529297
O1    O     O_R   0.319640 0.618740 0.500000 -0.531867
O2    O     O_2   0.227867 0.208349 0.742588 -0.287899
O3    O     O_3   0.247622 0.367555 0.637393 -0.533199
O4    O     O_2   0.394796 0.839839 0.313504 -0.273147
O5    O     O_2   0.223014 0.757829 0.243353 -0.238083
O6    O     O_3   0.255585 0.638831 0.360215 -0.544993
O7    O     O_2   0.643375 0.182035 0.338031 -0.224249
O8    O     O_2   0.785445 0.253757 0.248741 -0.233648
O9    O     O_3   0.760784 0.419052 0.352636 -0.530176
O10   O     O_2   0.586674 0.842863 0.685014 -0.245615
O11   O     O_2   0.755746 0.775538 0.759707 -0.282212
O12   O     O_R   0.680360 0.381260 0.500000 -0.471869
O13   O     O_3   0.733088 0.643026 0.645757 -0.526090
O14   O     O_R   0.680360 0.618740 0.500000 -0.472378
O15   O     O_R   0.319640 0.381260 0.500000 -0.463426
O16   O     O_R   0.500020 0.618830 0.400190 -0.448718
O17   O     O_R   0.499980 0.381170 0.599810 -0.462628
O18   O     O_R   0.499980 0.618830 0.599810 -0.439337
O19   O     O_R   0.500020 0.381170 0.400190 -0.453698
O20   O     O_2   0.393303 0.157728 0.663302 -0.246122
S1    S     S_3+6 0.322141 0.273686 0.697028 0.022453
S2    S     S_3+6 0.322291 0.712412 0.291953 0.037886
S3    S     S_3+6 0.691910 0.305790 0.298650 0.039538
S4    S     S_3+6 0.660318 0.720487 0.710946 0.001155

loop_
_geom_bond_atom_site_label_1
_geom_bond_atom_site_label_2
_ccdc_geom_bond_type
C23   H24   S    
C27   C29   A    
H5    N6    S    
C14   C18   A    
C2    O12   A    
C16   N10   S    
H16   N9    S    
C4    C25   S    
C9    C25   A    
C15   C19   A    
C8    N7    S    
Cu2   O12   S    
H13   O13   S    
Cu1   O16   S    
C21   H12   S    
C10   C15   A    
C17   N2    S    
O9    S3    S    
O13   S4    S    
H2    N4    S    
C10   S2    S    
O5    S2    D    
C3    O19   A    
C1    C2    S    
Cu2   O19   S    
O4    S2    D    
C7    N6    S    
C20   H1    S    
C20   C24   A    
C24   H23   S    
Cu1   N1    S    
C10   C26   A    
C21   C22   A    
C12   C32   S    
C27   C30   A    
C14   N8    S    
O2    S1    D    
C13   C25   A    
H17   N9    S    
Cu2   N3    S    
Cu1   Cu2   S    
C4    O18   A    
C28   H26   S    
H9    O3    S    
C29   H27   S    
O10   S4    D    
H28   N4    S    
C13   S4    S    
C1    C6    A    
C20   N3    A    
C5    C12   A    
C32   O1    A    
C5    C7    A    
C22   H22   S    
C11   C26   A    
C32   O15   A    
H8    N7    S    
C23   C31   A    
C9    C14   A    
C22   N3    A    
O7    S3    D    
H18   N10   S    
C11   C16   A    
C8    C12   A    
H21   N2    S    
C17   C18   A    
C23   C28   A    
O8    S3    D    
Cu1   O1    S    
C6    N5    S    
C24   N1    A    
H15   N8    S    
C9    S1    S    
O3    S1    S    
H7    N7    S    
C4    O17   A    
C11   S3    S    
C3    O16   A    
C1    C7    A    
C3    C26   S    
H11   O9    S    
H14   N8    S    
C5    N4    S    
C6    C8    A    
C15   N9    S    
C13   C17   A    
C28   C30   A    
Cu2   O17   S    
C29   C31   A    
C27   H25   S    
Cu1   O18   S    
H19   N10   S    
H20   N2    S    
O6    S2    S    
C16   C19   A    
O11   S4    D    
H3    N5    S    
H10   O6    S    
O20   S1    D    
C2    O14   A    
Cu2   O15   S    
C21   N1    A    
H4    N5    S    
H6    N6    S    
C18   C31   S    
C19   C30   S    
Cu1   O14   S    
