data_mof_unit_21450.cif
_audit_creation_date              2012-12-10T17:02:03-0500
_audit_creation_method            fapswitch 2.2
_symmetry_space_group_name_H-M    P1
_symmetry_Int_Tables_number       1
_space_group_crystal_system       triclinic
_cell_length_a                    10.802973
_cell_length_b                    11.035564
_cell_length_c                    9.912197
_cell_angle_alpha                 111.267237
_cell_angle_beta                  97.729906
_cell_angle_gamma                 92.263418
_cell_volume                      1086.22135456

loop_
_atom_site_label
_atom_site_type_symbol
_atom_type_description
_atom_site_fract_x
_atom_site_fract_y
_atom_site_fract_z
_atom_type_partial_charge
C1    C     C_R   0.493850 0.254290 0.440089 0.889948
C2    C     C_R   0.054248 0.373922 0.506836 -0.028455
C3    C     C_R   0.128082 0.483874 0.504332 -0.123588
C4    C     C_R   0.071666 0.594331 0.499113 -0.246977
C5    C     C_R   0.943944 0.600603 0.497608 0.374311
C6    C     C_R   0.869281 0.492306 0.492337 -0.131369
C7    C     C_2   0.491355 0.114439 0.406118 -0.327819
C8    C     C_2   0.520443 0.071078 0.514380 -0.102177
C9    C     C_2   0.519788 0.887191 0.595569 0.099442
C10   C     C_2   0.507283 0.931996 0.485935 -0.120453
C11   C     C_2   0.511140 0.514274 0.084714 0.458093
C12   C     C_R   0.262378 0.488623 0.499407 0.875348
C13   C     C_2   0.484638 0.498772 0.925153 -0.030641
C14   C     C_R   0.510553 0.746124 0.559916 0.820197
C15   C     C_R   0.736991 0.502570 0.498858 0.866877
C16   C     C_R   0.103351 0.261769 0.526413 0.322609
C17   C     C_R   0.022968 0.150811 0.506490 0.265733
C18   C     C_R   0.893949 0.151304 0.472540 -0.254555
C19   C     C_R   0.843939 0.263515 0.468047 -0.201483
C20   C     C_R   0.921959 0.376506 0.488785 -0.006735
Cu1   Cu    Cu3+1 0.521920 0.521810 0.644910 0.982683
Cu2   Cu    Cu3+1 0.478080 0.478190 0.355090 1.012606
H1    H     H_    0.128214 0.677752 0.498956 0.160182
H2    H     H_    0.462652 0.047035 0.293489 0.152472
H3    H     H_    0.397146 0.444360 0.861504 0.150480
H4    H     H_    0.376146 0.376751 0.064869 0.157979
H5    H     H_    0.831612 0.066031 0.456012 0.193129
H6    H     H_    0.743154 0.260366 0.446499 0.136217
H7    H     H_    0.486290 0.864924 0.372253 0.180341
H8    H     H_    0.550872 0.139433 0.626146 0.220060
N1    N     N_2   0.445130 0.445430 0.137370 -0.330203
N2    N     N_2   0.554930 0.554500 0.862630 -0.084262
O1    O     O_R   0.511700 0.332330 0.577400 -0.550352
O2    O     O_R   0.474680 0.295500 0.332650 -0.590079
O3    O     O_R   0.338160 0.518420 0.622400 -0.548959
O4    O     O_R   0.301140 0.481590 0.377650 -0.578165
O5    O     O_R   0.525320 0.704500 0.667350 -0.591268
O6    O     O_R   0.488300 0.667670 0.422600 -0.537547
O7    O     O_R   0.698860 0.518410 0.622350 -0.610449
O8    O     O_R   0.661840 0.481580 0.377600 -0.511652
Cl1   Cl    Cl    0.627514 0.636733 0.205069 -0.537329
N3    N     N_2   0.678806 0.589379 0.926930 -0.279836
H9    H     H_    0.737585 0.521076 0.877988 0.268048
C21   C     C_3   0.722723 0.721340 0.947529 -0.448165
H10   H     H_    0.816101 0.748505 0.018240 0.200598
H11   H     H_    0.656837 0.790781 0.002458 0.216415
H12   H     H_    0.732278 0.729724 0.841285 0.217602
Cl2   Cl    Cl    0.259619 0.258683 0.597059 -0.695739
N4    N     N_2   0.072340 0.037912 0.521600 -0.389726
H13   H     H_    0.028747 0.951722 0.442702 0.286703
C22   C     C_3   0.080291 0.036140 0.667792 -0.567740
H14   H     H_    0.125959 0.948903 0.672039 0.226154
H15   H     H_    0.984892 0.031699 0.697077 0.238732
H16   H     H_    0.137263 0.124581 0.749616 0.239188
Cl3   Cl    Cl    0.879573 0.746191 0.502870 -0.661979
N5    N     N_2   0.544585 0.974601 0.745397 -0.432725
H17   H     H_    0.604332 0.941704 0.812127 0.265469
C23   C     C_3   0.433243 0.019176 0.807442 -0.685668
H18   H     H_    0.460879 0.091657 0.920984 0.230138
H19   H     H_    0.374425 0.935591 0.810629 0.222784
H20   H     H_    0.377449 0.067040 0.741885 0.275558

loop_
_geom_bond_atom_site_label_1
_geom_bond_atom_site_label_2
_ccdc_geom_bond_type
C22   H15   S    
C9    C14   S    
Cu1   O3    S    
Cu1   O1    S    
C2    C20   A    
C12   O4    A    
C2    C16   A    
C9    C10   D    
C13   N2    D    
C19   C20   A    
Cu1   O7    S    
C21   H12   S    
C22   H16   S    
C8    H8    S    
C16   Cl2   S    
C23   H20   S    
C17   C18   A    
C6    C15   S    
C11   N1    D    
H4    N1    S    
C9    N5    S    
Cu1   Cu2   S    
N5    H17   S    
C14   O5    A    
C19   H6    S    
C11   C13   S    
C10   H7    S    
C15   O7    A    
N3    C21   S    
N5    C23   S    
C1    O2    A    
C11   Cl1   S    
C2    C3    A    
C5    C6    A    
Cu2   O2    S    
Cu1   N2    S    
C15   O8    A    
C14   O6    A    
Cu2   N1    S    
C1    O1    A    
C22   H14   S    
Cu2   O6    S    
C7    C8    D    
C6    C20   A    
C21   H10   S    
C3    C4    A    
Cu1   O5    S    
C8    C10   S    
C18   C19   A    
N3    H9    S    
N4    C22   S    
C17   N4    S    
N4    H13   S    
C4    H1    S    
N2    N3    S    
Cu2   O8    S    
C4    C5    A    
C3    C12   S    
C13   H3    S    
C23   H18   S    
C1    C7    S    
C23   H19   S    
C5    Cl3   S    
Cu2   O4    S    
C18   H5    S    
C7    H2    S    
C21   H11   S    
C16   C17   A    
C12   O3    A    
