data_mof_unit_61704.cif
_audit_creation_date              2013-03-05T16:08:08-0500
_audit_creation_method            fapswitch 2.2
_symmetry_space_group_name_H-M    P1
_symmetry_Int_Tables_number       1
_space_group_crystal_system       triclinic
_cell_length_a                    13.144075
_cell_length_b                    14.430803
_cell_length_c                    17.290717
_cell_angle_alpha                 90.000023
_cell_angle_beta                  85.183727
_cell_angle_gamma                 90.000027
_cell_volume                      3268.11510895

loop_
_atom_site_label
_atom_site_type_symbol
_atom_site_description
_atom_site_fract_x
_atom_site_fract_y
_atom_site_fract_z
_atom_type_partial_charge
O1    O     O_R   0.421720 0.623950 0.500010 -0.556230
O2    O     O_R   0.578280 0.376050 0.499990 -0.554296
O3    O     O_R   0.578280 0.623950 0.499990 -0.556230
O4    O     O_R   0.421720 0.376050 0.500010 -0.554296
C1    C     C_R   0.500000 0.671291 0.500000 0.839494
C2    C     C_R   0.500000 0.328713 0.500000 0.846481
O5    O     O_R   0.412660 0.500000 0.613600 -0.573158
O6    O     O_R   0.587340 0.500000 0.386400 -0.573156
O7    O     O_R   0.569190 0.500000 0.613590 -0.565027
O8    O     O_R   0.430810 0.500000 0.386410 -0.565025
C3    C     C_R   0.486531 0.500760 0.652032 0.820843
C4    C     C_R   0.513469 0.500761 0.347968 0.820840
Cu1   Cu    Cu3+1 0.407320 0.500000 0.500010 0.987421
Cu2   Cu    Cu3+1 0.592680 0.500000 0.499990 0.987420
C5    C     C_R   0.476388 0.490294 0.735795 -0.044385
C6    C     C_R   0.523612 0.490293 0.264205 -0.044379
C7    C     C_R   0.538609 0.541419 0.781626 -0.166418
C8    C     C_R   0.461399 0.541426 0.218373 -0.166419
C9    C     C_R   0.530082 0.529097 0.861656 -0.090658
C10   C     C_R   0.469927 0.529103 0.138343 -0.090657
C11   C     C_R   0.463061 0.461919 0.896034 0.118189
C12   C     C_R   0.536939 0.461917 0.103966 0.118193
C13   C     C_R   0.399826 0.411890 0.849793 -0.054805
C14   C     C_R   0.600166 0.411880 0.150209 -0.054803
C15   C     C_R   0.405586 0.426859 0.770080 -0.194801
C16   C     C_R   0.594406 0.426849 0.229922 -0.194799
C17   C     C_2   0.456972 0.445468 0.980665 0.153049
C18   C     C_2   0.543026 0.445465 0.019336 0.153049
H1    H     H_    0.592550 0.591492 0.755587 0.144824
H2    H     H_    0.407465 0.591505 0.244411 0.144821
H3    H     H_    0.642806 0.386862 0.265165 0.149983
H4    H     H_    0.357178 0.386878 0.734838 0.149987
H5    H     H_    0.347105 0.360438 0.875184 0.173518
H6    H     H_    0.652879 0.360421 0.124819 0.173515
H7    H     H_    0.423364 0.571262 0.103370 0.154550
H8    H     H_    0.576651 0.571251 0.896628 0.154553
C19   C     C_1   0.500000 0.772873 0.500000 -0.201990
C20   C     C_1   0.500000 0.227136 0.500000 -0.199005
C21   C     C_1   0.500000 0.857690 0.500000 0.008584
C22   C     C_1   0.500000 0.142320 0.500000 0.011697
C23   C     C_1   0.500000 0.957598 0.500000 0.020830
C24   C     C_1   0.500000 0.042413 0.500000 0.021972
N1    N     N_1   0.731930 0.500000 0.499980 -0.126202
N2    N     N_1   0.268070 0.500000 0.500020 -0.126202
C25   C     C_1   0.826375 0.499998 0.499986 0.159644
C26   C     C_1   0.173625 0.499998 0.500014 0.159644
C27   C     C_1   0.949319 0.499996 0.499996 -0.044951
C28   C     C_1   0.050681 0.499996 0.500004 -0.044951
N3    N     N_R   0.642492 0.432446 0.978670 0.103010
O9    O     O_R   0.721928 0.473976 0.002625 -0.337779
O10   O     O_R   0.655478 0.372397 0.922527 -0.330358
N4    N     N_R   0.357506 0.432457 0.021331 0.103011
O11   O     O_R   0.278074 0.473994 0.997377 -0.337781
O12   O     O_R   0.344515 0.372409 0.077475 -0.330357

loop_
_geom_bond_atom_site_label_1
_geom_bond_atom_site_label_2
_geom_bond_distance
_ccdc_geom_bond_type
O5    C3    1.221820 A    
O7    Cu2   1.962568 S    
C2    C20   1.465846 S    
C9    C11   1.407566 A    
C8    H2    1.083479 S    
C1    C19   1.465907 S    
N1    C25   1.241394 T    
C23   C24   1.223949 T    
C27   C28   1.332326 T    
O6    C4    1.221820 A    
C17   C18   1.361424 D    
C15   H4    1.083575 S    
C22   C24   1.441740 S    
C11   C17   1.477974 S    
C16   H3    1.083577 S    
C19   C21   1.223979 T    
C12   C18   1.477972 S    
Cu1   Cu2   2.436357 S    
N4    O11   1.301357 A    
C20   C22   1.223959 T    
O7    C3    1.225190 A    
C14   C16   1.390892 A    
O2    C2    1.235022 A    
O3    Cu2   1.798684 S    
O8    C4    1.225192 A    
O1    C1    1.235056 A    
O4    C2    1.235022 A    
C7    C9    1.390322 A    
N4    O12   1.301772 A    
C8    C10   1.390322 A    
C9    H8    1.082831 S    
C11   C13   1.401050 A    
C6    C16   1.401009 A    
O2    Cu2   1.798684 S    
C12   C14   1.401052 A    
C5    C15   1.401007 A    
O1    Cu1   1.798684 S    
C26   C28   1.616004 S    
O5    Cu1   1.971185 S    
C13   C15   1.390891 A    
C7    H1    1.083477 S    
C17   N4    1.443805 S    
C21   C23   1.441753 S    
C6    C8    1.396415 A    
N3    O9    1.301358 A    
C18   N3    1.443803 S    
C25   C27   1.616004 S    
O4    Cu1   1.798684 S    
C5    C7    1.396413 A    
N3    O10   1.301764 A    
O6    Cu2   1.971188 S    
N2    C26   1.241395 T    
O3    C1    1.235054 A    
C10   H7    1.082833 S    
C3    C5    1.451138 S    
Cu1   N2    1.830297 S    
C14   H6    1.083134 S    
C4    C6    1.451134 S    
C10   C12   1.407569 A    
Cu2   N1    1.830299 S    
C13   H5    1.083131 S    
O8    Cu1   1.962568 S    
