data_mof_unit_12814.cif
_audit_creation_date              2012-12-10T17:32:58-0500
_audit_creation_method            fapswitch 2.2
_symmetry_space_group_name_H-M    P1
_symmetry_Int_Tables_number       1
_space_group_crystal_system       triclinic
_cell_length_a                    12.361899
_cell_length_b                    13.225754
_cell_length_c                    14.136118
_cell_angle_alpha                 92.903487
_cell_angle_beta                  107.313953
_cell_angle_gamma                 116.912647
_cell_volume                      1920.29490846

loop_
_atom_site_label
_atom_site_type_symbol
_atom_type_description
_atom_site_fract_x
_atom_site_fract_y
_atom_site_fract_z
_atom_type_partial_charge
C1    C     C_R   0.650504 0.714276 0.508175 0.795499
C2    C     C_R   0.837873 0.483894 0.918259 0.092512
C3    C     C_R   0.779996 0.486004 0.990529 0.148199
C4    C     C_R   0.945778 0.463883 0.944278 0.073772
C5    C     C_R   0.004634 0.461974 0.046606 0.068492
C6    C     C_R   0.943742 0.463997 0.116580 -0.231570
C7    C     C_R   0.832620 0.474538 0.088406 -0.228702
C8    C     C_R   0.993562 0.441197 0.870896 -0.247067
C9    C     C_R   0.099447 0.422342 0.898174 -0.237674
C10   C     C_R   0.164570 0.430188 0.999617 0.167635
C11   C     C_R   0.120312 0.454165 0.075031 0.087039
C12   C     C_R   0.616078 0.514045 0.687044 0.792057
C13   C     C_R   0.273999 0.414718 0.026865 -0.195813
C14   C     C_R   0.342984 0.427536 0.128695 -0.166774
C15   C     C_R   0.195698 0.473412 0.177045 -0.267195
C16   C     C_R   0.148806 0.966755 0.372970 -0.182351
C17   C     C_R   0.254176 0.162604 0.469959 -0.047456
C18   C     C_R   0.731653 0.919910 0.578665 -0.186699
C19   C     C_R   0.826818 0.035590 0.604475 -0.154118
C20   C     C_R   0.930746 0.070375 0.571322 -0.182846
C21   C     C_R   0.937516 0.990302 0.505770 0.067003
C22   C     C_R   0.830504 0.875627 0.468242 0.024080
C23   C     C_R   0.346704 0.285461 0.487080 0.795085
C24   C     C_R   0.045429 0.020823 0.474401 0.070774
C25   C     C_R   0.042801 0.938352 0.404135 0.145761
C26   C     C_R   0.930520 0.831964 0.359057 -0.270815
C27   C     C_R   0.822215 0.803892 0.385287 -0.022632
C28   C     C_R   0.155069 0.131726 0.508835 -0.250001
C29   C     C_R   0.253899 0.078918 0.405189 -0.197795
C30   C     C_R   0.735058 0.838100 0.514120 -0.105572
C31   C     C_R   0.253944 0.681398 0.667968 0.003874
C32   C     C_R   0.656215 0.339621 0.366753 0.028078
C33   C     C_R   0.734478 0.302091 0.339541 0.045355
C34   C     C_R   0.379013 0.479309 0.312729 0.819598
C35   C     C_R   0.869893 0.364790 0.389311 -0.235944
C36   C     C_R   0.928592 0.462584 0.468895 -0.021733
C37   C     C_R   0.843366 0.495008 0.495310 0.283993
C38   C     C_R   0.068001 0.527345 0.524798 -0.050055
C39   C     C_R   0.118440 0.620082 0.608802 0.145423
C40   C     C_R   0.032701 0.650086 0.631814 -0.300925
C41   C     C_R   0.900245 0.590016 0.576704 -0.188809
C42   C     C_R   0.160144 0.503886 0.501381 -0.001322
C43   C     C_R   0.337396 0.652930 0.639020 0.063286
C44   C     C_R   0.672541 0.510824 0.794009 -0.105249
C45   C     C_R   0.305935 0.460129 0.204427 -0.038071
C46   C     C_R   0.668370 0.497597 0.963878 -0.244529
C47   C     C_R   0.612275 0.507141 0.865741 -0.015558
C48   C     C_R   0.786396 0.502796 0.822514 -0.272198
Cu1   Cu    Cu3+1 0.416420 0.526630 0.522910 0.942165
Cu2   Cu    Cu3+1 0.583580 0.473370 0.477090 0.932818
H1    H     H_    0.787865 0.474082 0.143873 0.149596
H2    H     H_    0.306440 0.393108 0.969520 0.148906
H3    H     H_    0.330874 0.101706 0.374994 0.146720
H4    H     H_    0.923885 0.774236 0.297523 0.147658
H5    H     H_    0.147258 0.903980 0.319465 0.136414
H6    H     H_    0.164433 0.197974 0.563099 0.149246
H7    H     H_    0.657924 0.893807 0.612669 0.149974
H8    H     H_    0.002684 0.160939 0.597604 0.129514
H9    H     H_    0.823286 0.097942 0.654443 0.143834
H10   H     H_    0.440750 0.698368 0.682553 0.124635
H11   H     H_    0.172601 0.503037 0.236799 0.154218
H12   H     H_    0.066493 0.721514 0.693357 0.161238
H13   H     H_    0.130190 0.435987 0.438345 0.127198
H14   H     H_    0.551768 0.292011 0.328245 0.120283
H15   H     H_    0.926632 0.333541 0.365678 0.134975
H16   H     H_    0.846008 0.621111 0.602459 0.205125
H17   H     H_    0.426835 0.414710 0.148144 0.156235
H18   H     H_    0.131779 0.403416 0.839572 0.163852
H19   H     H_    0.622946 0.496369 0.019118 0.140205
H20   H     H_    0.834551 0.512695 0.768682 0.157511
H21   H     H_    0.976289 0.452155 0.192795 0.142725
H22   H     H_    0.947793 0.432448 0.790787 0.152870
N1    N     N_R   0.290690 0.566960 0.557640 -0.188027
N2    N     N_R   0.709100 0.433710 0.442970 -0.211814
O1    O     O_R   0.545970 0.684450 0.528810 -0.583403
O2    O     O_R   0.687130 0.639470 0.490120 -0.589442
O3    O     O_R   0.519670 0.535100 0.660030 -0.569087
O4    O     O_R   0.660830 0.490120 0.621340 -0.599340
O5    O     O_R   0.312870 0.360530 0.509880 -0.583208
O6    O     O_R   0.454030 0.315550 0.471190 -0.590102
O7    O     O_R   0.339170 0.509880 0.378660 -0.592167
O8    O     O_R   0.480330 0.464900 0.339970 -0.576466
C49   C     C_1   0.699329 0.717956 0.310765 0.249519
N3    N     N_1   0.601865 0.651117 0.248518 -0.309032
C50   C     C_3   0.313078 0.775448 0.762982 -0.439958
C51   C     C_3   0.281926 0.723017 0.852374 -0.308151
C52   C     C_3   0.339417 0.817325 0.947483 -0.849093
H23   H     H_    0.446849 0.868357 0.970550 0.256214
H24   H     H_    0.297967 0.876529 0.933322 0.250544
H25   H     H_    0.315761 0.776527 0.010592 0.250261
H26   H     H_    0.175285 0.671361 0.833273 0.225209
H27   H     H_    0.323035 0.663955 0.869459 0.247806
H28   H     H_    0.420667 0.825205 0.785407 0.190742
H29   H     H_    0.279493 0.839957 0.747653 0.201728
C53   C     C_3   0.673798 0.193477 0.258831 -0.434672
C54   C     C_3   0.685779 0.095208 0.306053 -0.318503
C55   C     C_3   0.622021 0.983867 0.225650 -0.829474
H30   H     H_    0.516803 0.953719 0.187217 0.252429
H31   H     H_    0.669405 0.998815 0.168289 0.252520
H32   H     H_    0.632592 0.914874 0.262273 0.251059
H33   H     H_    0.789920 0.121266 0.344908 0.224349
H34   H     H_    0.638121 0.077320 0.363368 0.225227
H35   H     H_    0.569200 0.164316 0.217596 0.187446
H36   H     H_    0.722780 0.213015 0.202380 0.206394
C56   C     C_1   0.491001 0.508566 0.840981 0.251119
N4    N     N_1   0.393485 0.509101 0.821017 -0.336588

loop_
_geom_bond_atom_site_label_1
_geom_bond_atom_site_label_2
_ccdc_geom_bond_type
C43   N1    A    
C37   N2    A    
C31   C50   S    
C54   H34   S    
C17   C29   A    
C53   C54   S    
C4    C8    A    
C55   H30   S    
C28   H6    S    
C50   C51   S    
C33   C53   S    
C26   C27   A    
C17   C23   S    
C31   C43   A    
C36   C37   A    
C38   C42   A    
C3    C7    A    
C51   H26   S    
Cu2   N2    S    
C32   N2    A    
C5    C6    A    
C35   H15   S    
Cu2   O4    S    
C40   H12   S    
C18   C19   A    
Cu1   O7    S    
C46   H19   S    
C50   H28   S    
C19   C20   A    
Cu1   O3    S    
C8    C9    A    
C47   C56   S    
C12   O4    A    
C14   H17   S    
Cu1   O1    S    
C18   C30   A    
C34   O7    A    
C13   C14   A    
C23   O6    A    
C9    C10   A    
C44   C47   A    
C54   H33   S    
C54   C55   S    
C17   C28   A    
C11   C15   A    
C26   H4    S    
C55   H31   S    
C53   H35   S    
C14   C45   A    
C6    H21   S    
C8    H22   S    
C1    O1    A    
C24   C25   A    
C32   H14   S    
C39   C40   A    
C51   C52   S    
C19   H9    S    
C16   C29   A    
Cu1   O5    S    
C35   C36   A    
C2    C4    A    
Cu2   O2    S    
C13   H2    S    
C50   H29   S    
C18   H7    S    
C49   N3    T    
C12   O3    A    
C15   H11   S    
C34   C45   S    
C6    C7    A    
C43   H10   S    
C40   C41   A    
C22   C27   A    
C52   H24   S    
Cu1   N1    S    
C52   H25   S    
C15   C45   A    
C20   H8    S    
C55   H32   S    
C53   H36   S    
Cu2   O8    S    
C16   C25   A    
C46   C47   A    
C42   N1    A    
C22   C30   A    
C1    O2    A    
C24   C28   A    
C48   H20   S    
C4    C5    A    
C10   C13   A    
Cu2   O6    S    
C5    C11   A    
C41   H16   S    
C56   N4    T    
C3    C46   A    
C2    C48   A    
C32   C33   A    
C36   C38   A    
C2    C3    A    
C25   C26   A    
C16   H5    S    
C7    H1    S    
C12   C44   S    
C51   H27   S    
C38   C39   A    
C29   H3    S    
C27   C49   S    
C1    C30   S    
C33   C35   A    
C31   C39   A    
C37   C41   A    
C9    H18   S    
C10   C11   A    
C20   C21   A    
C52   H23   S    
Cu1   Cu2   S    
C21   C24   A    
C34   O8    A    
C23   O5    A    
C21   C22   A    
C42   H13   S    
C44   C48   A    
