data_mof_unit_33331.cif
_audit_creation_date              2012-12-10T19:48:44-0500
_audit_creation_method            fapswitch 2.2
_symmetry_space_group_name_H-M    P1
_symmetry_Int_Tables_number       1
_space_group_crystal_system       triclinic
_cell_length_a                    13.066381
_cell_length_b                    14.154423
_cell_length_c                    14.992099
_cell_angle_alpha                 91.069967
_cell_angle_beta                  89.803406
_cell_angle_gamma                 69.884121
_cell_volume                      2603.00735521

loop_
_atom_site_label
_atom_site_type_symbol
_atom_type_description
_atom_site_fract_x
_atom_site_fract_y
_atom_site_fract_z
_atom_type_partial_charge
C1    C     C_R   0.498408 0.501418 0.671723 0.914006
C2    C     C_R   0.823163 0.406174 0.490517 -0.171039
C3    C     C_R   0.578311 0.435744 0.903660 -0.165251
C4    C     C_R   0.704614 0.444015 0.496069 0.942705
C5    C     C_R   0.578816 0.433689 0.811742 -0.248315
C6    C     C_R   0.495191 0.504895 0.766619 -0.109400
C7    C     C_R   0.410260 0.578805 0.812469 0.359062
C8    C     C_R   0.408686 0.579062 0.904722 -0.212006
C9    C     C_R   0.492301 0.507306 0.950213 0.063766
C10   C     C_R   0.463630 0.594626 0.096318 -0.184173
C11   C     C_R   0.465177 0.591444 0.188185 -0.253370
C12   C     C_R   0.985410 0.450828 0.484638 -0.021746
C13   C     C_R   0.494556 0.498645 0.230885 -0.130344
C14   C     C_R   0.519151 0.408228 0.180140 0.370973
C15   C     C_R   0.514227 0.412800 0.088283 -0.217805
C16   C     C_R   0.499212 0.499174 0.327359 0.906338
C17   C     C_R   0.488993 0.505219 0.046416 0.075483
C18   C     C_R   0.586270 0.870439 0.534659 0.220364
C19   C     C_R   0.582147 0.771884 0.540330 0.548891
C20   C     C_R   0.416690 0.820525 0.460337 -0.088603
C21   C     C_R   0.413869 0.920909 0.459008 -0.341834
C22   C     C_R   0.499756 0.947173 0.495316 -0.016136
C23   C     C_R   0.879023 0.466390 0.455064 -0.031663
C24   C     C_R   0.414849 0.131821 0.538551 -0.271653
C25   C     C_R   0.417814 0.230368 0.541239 0.032539
C26   C     C_R   0.580074 0.178852 0.454820 0.060746
C27   C     C_R   0.580347 0.079332 0.450834 -0.165141
C28   C     C_R   0.295365 0.555818 0.500469 0.921424
C29   C     C_R   0.497540 0.054190 0.493793 0.184078
C30   C     C_R   0.028594 0.678892 0.392214 0.553852
C31   C     C_R   0.178902 0.589815 0.486705 -0.109936
C32   C     C_R   0.880606 0.316559 0.533372 -0.339620
C33   C     C_R   0.992950 0.289222 0.545838 0.537765
C34   C     C_R   0.030356 0.526879 0.469757 0.046307
C35   C     C_R   0.043411 0.358797 0.526367 -0.229368
C36   C     C_3   0.646246 0.707658 0.675635 0.113254
C37   C     C_3   0.723137 0.613688 0.719936 -0.296809
C38   C     C_3   0.708652 0.620461 0.821216 -0.951774
C39   C     C_3   0.013712 0.719732 0.244404 0.051733
C40   C     C_3   0.118822 0.736959 0.216121 -0.368775
C41   C     C_3   0.144741 0.711041 0.117425 -0.900911
C42   C     C_3   0.050510 0.117195 0.536149 0.057943
C43   C     C_3   0.129178 0.021168 0.576158 -0.305372
C44   C     C_3   0.128720 0.927534 0.524106 -0.901412
C45   C     C_R   0.978204 0.607703 0.412245 -0.031449
C46   C     C_3   0.776702 0.476656 0.267469 0.049791
C47   C     C_3   0.766137 0.537785 0.182691 -0.341441
C48   C     C_3   0.789280 0.470227 0.099143 -0.920213
C49   C     C_R   0.879652 0.613265 0.373038 -0.267114
C50   C     C_R   0.831630 0.541921 0.391644 0.510918
C51   C     C_R   0.126198 0.524423 0.511163 -0.201660
C52   C     C_R   0.128259 0.670270 0.431212 -0.287880
Cl1   Cl    Cl    0.302547 0.668396 0.756638 -0.636057
Cl2   Cl    Cl    0.562258 0.286804 0.225658 -0.647123
Cl3   Cl    Cl    0.700101 0.895959 0.577554 -0.618626
H1    H     H_    0.169669 0.721542 0.412667 0.157060
H2    H     H_    0.349555 0.116011 0.572654 0.154125
H3    H     H_    0.354084 0.289236 0.576453 0.130114
H4    H     H_    0.644040 0.197331 0.421415 0.152774
H5    H     H_    0.645113 0.022202 0.414742 0.177163
H6    H     H_    0.165234 0.468498 0.559842 0.152305
H7    H     H_    0.837665 0.270057 0.560275 0.170563
H8    H     H_    0.129129 0.336833 0.541085 0.144928
H9    H     H_    0.644709 0.381469 0.938396 0.152082
H10   H     H_    0.560530 0.716221 0.693292 0.152015
H11   H     H_    0.663245 0.774225 0.702882 0.183315
H12   H     H_    0.645014 0.377809 0.775740 0.161865
H13   H     H_    0.707063 0.546098 0.694120 0.215124
H14   H     H_    0.808900 0.604784 0.702971 0.242700
H15   H     H_    0.730676 0.684185 0.848862 0.272732
H16   H     H_    0.762494 0.549650 0.851018 0.269074
H17   H     H_    0.622919 0.631591 0.839879 0.275417
H18   H     H_    0.946911 0.763302 0.200007 0.180135
H19   H     H_    0.022689 0.638944 0.233725 0.116466
H20   H     H_    0.109880 0.817038 0.228833 0.237233
H21   H     H_    0.188447 0.688865 0.255500 0.207273
H22   H     H_    0.156927 0.630461 0.103777 0.267967
H23   H     H_    0.341437 0.633628 0.940721 0.169431
H24   H     H_    0.220716 0.724843 0.099092 0.261805
H25   H     H_    0.077450 0.758669 0.075543 0.270137
H26   H     H_    0.076672 0.122205 0.465983 0.135373
H27   H     H_    0.967476 0.111924 0.536481 0.158504
H28   H     H_    0.213023 0.024175 0.575400 0.219776
H29   H     H_    0.105245 0.015797 0.646592 0.249630
H30   H     H_    0.046246 0.921394 0.526146 0.290732
H31   H     H_    0.187306 0.859350 0.554346 0.286418
H32   H     H_    0.153204 0.930776 0.453522 0.242452
H33   H     H_    0.722710 0.431116 0.262472 0.177902
H34   H     H_    0.444731 0.666542 0.064315 0.147162
H35   H     H_    0.861528 0.421386 0.272010 0.120975
H36   H     H_    0.682449 0.593779 0.178974 0.247763
H37   H     H_    0.824600 0.579133 0.184908 0.202222
H38   H     H_    0.874401 0.416531 0.099651 0.265093
H39   H     H_    0.778188 0.517091 0.038924 0.265194
H40   H     H_    0.732393 0.427408 0.095550 0.272243
H41   H     H_    0.445078 0.661771 0.225663 0.177306
H42   H     H_    0.532244 0.343652 0.049261 0.176808
H43   H     H_    0.351603 0.801006 0.429724 0.151243
H44   H     H_    0.839939 0.671931 0.326525 0.186095
H45   H     H_    0.345863 0.977495 0.428104 0.177952
N1    N     N_R   0.500000 0.747530 0.500020 -0.135605
N2    N     N_R   0.499940 0.252470 0.500020 -0.096359
O1    O     O_R   0.499990 0.420530 0.630930 -0.619537
O2    O     O_3   0.982912 0.755569 0.332965 -0.638285
O3    O     O_3   0.052239 0.201178 0.587914 -0.643792
O4    O     O_3   0.742007 0.542634 0.342543 -0.635345
O5    O     O_R   0.499990 0.579480 0.630940 -0.598417
O6    O     O_R   0.653620 0.381060 0.499970 -0.642169
O7    O     O_R   0.653620 0.540010 0.499980 -0.525321
O8    O     O_R   0.500010 0.420520 0.369060 -0.565550
O9    O     O_R   0.500010 0.579470 0.369070 -0.605357
O10   O     O_R   0.346380 0.459990 0.500020 -0.629475
O11   O     O_R   0.346380 0.618940 0.500030 -0.615076
O12   O     O_3   0.664823 0.698139 0.582376 -0.598526
Zn1   Zn    Zn3+2 0.500000 0.393860 0.499990 0.977151
Zn2   Zn    Zn3+2 0.500000 0.606140 0.500010 1.009098

loop_
_geom_bond_atom_site_label_1
_geom_bond_atom_site_label_2
_ccdc_geom_bond_type
C11   H41   S    
C4    O7    A    
C38   H15   S    
C19   N1    A    
C48   H40   S    
C37   H14   S    
C27   C29   A    
C43   H28   S    
C47   H37   S    
C30   C45   A    
O1    Zn1   S    
C42   H27   S    
C31   C52   A    
C5    H12   S    
C36   O12   S    
C41   H25   S    
C16   O8    A    
C7    C8    A    
C3    H9    S    
C28   O10   A    
C4    O6    A    
C12   C23   A    
C34   C51   A    
C48   H39   S    
O6    Zn1   S    
C36   C37   S    
C22   C29   S    
C27   H5    S    
C41   H22   S    
C5    C6    A    
C36   H11   S    
C25   N2    A    
C10   C17   A    
C37   H13   S    
C2    C32   A    
C18   C19   A    
C39   H19   S    
C24   C29   A    
N2    Zn1   S    
O7    Zn2   S    
C46   C47   S    
C10   H34   S    
C24   H2    S    
C51   H6    S    
O9    Zn2   S    
C44   H32   S    
C26   H4    S    
C1    O1    A    
O11   Zn2   S    
C21   C22   A    
C8    H23   S    
C43   H29   S    
C42   H26   S    
C15   H42   S    
C44   H31   S    
C46   H33   S    
C38   H17   S    
C48   H38   S    
C1    C6    S    
C39   O2    S    
C33   O3    S    
C24   C25   A    
C28   O11   A    
C39   C40   S    
C21   H45   S    
C36   H10   S    
C8    C9    A    
C23   C50   A    
C20   N1    A    
C19   O12   S    
C40   H21   S    
C2    C4    S    
C43   C44   S    
C37   C38   S    
C3    C9    A    
C49   H44   S    
C47   C48   S    
C45   C49   A    
C26   C27   A    
C34   C45   A    
C12   C35   A    
C18   Cl3   S    
C1    O5    A    
C9    C17   S    
C40   C41   S    
C14   Cl2   S    
C42   C43   S    
C7    Cl1   S    
C12   C34   A    
C44   H30   S    
C15   C17   A    
C30   C52   A    
C38   H16   S    
C18   C22   A    
C47   H36   S    
C28   C31   S    
C31   C51   A    
C3    C5    A    
C41   H24   S    
C6    C7    A    
C46   H35   S    
C40   H20   S    
C32   C33   A    
C32   H7    S    
C26   N2    A    
C11   C13   A    
C46   O4    S    
C33   C35   A    
C39   H18   S    
C42   O3    S    
O5    Zn2   S    
C10   C11   A    
C20   H43   S    
C20   C21   A    
C49   C50   A    
C25   H3    S    
C13   C16   S    
C30   O2    S    
C2    C23   A    
C50   O4    S    
N1    Zn2   S    
C14   C15   A    
C35   H8    S    
C13   C14   A    
O8    Zn1   S    
O10   Zn1   S    
C52   H1    S    
C16   O9    A    
