data_mof_unit_36348.cif
_audit_creation_date              2012-12-11T15:57:31-0500
_audit_creation_method            fapswitch 2.2
_symmetry_space_group_name_H-M    P1
_symmetry_Int_Tables_number       1
_space_group_crystal_system       triclinic
_cell_length_a                    10.763291
_cell_length_b                    10.686493
_cell_length_c                    16.938529
_cell_angle_alpha                 99.445348
_cell_angle_beta                  99.508447
_cell_angle_gamma                 61.207627
_cell_volume                      1675.9006695

loop_
_atom_site_label
_atom_site_type_symbol
_atom_type_description
_atom_site_fract_x
_atom_site_fract_y
_atom_site_fract_z
_atom_type_partial_charge
C1    C     C_R   0.355187 0.774802 0.401302 0.565387
C2    C     C_2   0.349251 0.361376 0.841730 -0.119866
C3    C     C_2   0.478193 0.297774 0.812116 -0.028480
C4    C     C_R   0.369127 0.345812 0.357351 0.561473
C5    C     C_2   0.489303 0.339056 0.736233 -0.181846
C6    C     C_1   0.848038 0.327601 0.704650 -0.049061
C7    C     C_1   0.895447 0.292611 0.771302 -0.043128
C8    C     C_1   0.358887 0.762933 0.713669 -0.036713
C9    C     C_1   0.326034 0.810277 0.780656 -0.034754
C10   C     C_R   0.956164 0.283053 0.098924 0.585538
C11   C     C_R   0.319091 0.300545 0.119554 0.538250
C12   C     C_2   0.914619 0.296663 0.178303 -0.057017
C13   C     C_R   0.293964 0.891317 0.084002 0.555191
C14   C     C_R   0.944829 0.272652 0.853797 0.568258
C15   C     C_R   0.310665 0.296809 0.896930 0.539085
C16   C     C_R   0.781504 0.374275 0.407646 0.561331
C17   C     C_R   0.280469 0.880686 0.857366 0.543571
C18   C     C_R   0.381453 0.713821 0.631321 0.536467
C19   C     C_R   0.409543 0.379163 0.598003 0.550896
C20   C     C_R   0.778272 0.378164 0.628719 0.533342
C21   C     C_1   0.342631 0.336113 0.273923 -0.041856
C22   C     C_1   0.331273 0.327066 0.202917 -0.041006
C23   C     C_2   0.923523 0.185833 0.211918 0.054601
C24   C     C_2   0.875736 0.316642 0.344879 -0.126831
C25   C     C_R   0.606699 0.171711 0.844716 0.071212
C26   C     C_R   0.678576 0.047186 0.793069 -0.085428
C27   C     C_R   0.793000 0.924942 0.823684 -0.104921
C28   C     C_R   0.835554 0.924914 0.906119 -0.077119
C29   C     C_R   0.765740 0.048180 0.957734 -0.057940
C30   C     C_R   0.655135 0.172773 0.927097 -0.024182
C31   C     C_2   0.874361 0.210676 0.291195 -0.158244
C32   C     C_2   0.332745 0.847566 0.331371 -0.106364
C33   C     C_2   0.343890 0.824844 0.158683 -0.110615
C34   C     C_2   0.428791 0.860083 0.214544 -0.161527
C35   C     C_2   0.444781 0.831059 0.297663 -0.156899
C36   C     C_2   0.383359 0.370798 0.677059 -0.122272
Cr1   Cr    Cr6+3 0.608020 0.610770 0.522990 1.026247
Cr2   Cr    Cr6+3 0.289390 0.599570 0.488050 1.027607
Cr3   Cr    Cr6+3 0.602610 0.289690 0.489020 1.019370
Cr4   Cr    Cr6+3 0.053780 0.052210 0.965970 1.014967
Cr5   Cr    Cr6+3 0.060060 0.372530 0.992430 1.011587
Cr6   Cr    Cr6+3 0.372600 0.061970 0.991430 1.014047
H1    H     H_    0.592916 0.321250 0.724181 0.134623
H2    H     H_    0.226547 0.894937 0.300241 0.100228
H3    H     H_    0.876802 0.026537 0.162388 0.214347
H4    H     H_    0.045958 0.970941 0.202559 0.220900
H5    H     H_    0.644061 0.043457 0.729322 0.128284
H6    H     H_    0.847005 0.829364 0.783653 0.119932
H7    H     H_    0.922348 0.829346 0.930045 0.106744
H8    H     H_    0.796977 0.046931 0.021613 0.127514
H9    H     H_    0.602815 0.267738 0.967947 0.109946
H10   H     H_    0.263549 0.458681 0.818212 0.095152
H11   H     H_    0.279777 0.383568 0.685342 0.118209
H12   H     H_    0.823245 0.149338 0.301648 0.154297
H13   H     H_    0.873578 0.403604 0.209866 0.078144
H14   H     H_    0.932613 0.373823 0.337049 0.103034
H15   H     H_    0.482946 0.915897 0.200431 0.163067
H16   H     H_    0.551190 0.788140 0.329222 0.161283
H17   H     H_    0.293046 0.766075 0.173298 0.105537
N1    N     N_3   0.963418 0.047439 0.168040 -0.578208
O1    O     O_R   0.749250 0.499990 0.439200 -0.512016
O2    O     O_R   0.411120 0.181190 0.091480 -0.520724
O3    O     O_R   0.364220 0.944920 0.062310 -0.497827
O4    O     O_R   0.477870 0.725740 0.440280 -0.488155
O5    O     O_R   0.158740 0.906940 0.874970 -0.518407
O6    O     O_R   0.930920 0.176940 0.885610 -0.483338
O7    O     O_R   0.910730 0.394510 0.895320 -0.501123
O8    O     O_R   0.185840 0.361180 0.920280 -0.514375
O9    O     O_R   0.399210 0.173040 0.915160 -0.501395
O10   O     O_R   0.353170 0.937370 0.898860 -0.488023
O11   O     O_3   0.162150 0.162240 0.983280 -0.286177
O12   O     O_R   0.299400 0.468710 0.556310 -0.502312
O13   O     O_R   0.260770 0.742210 0.412610 -0.507340
O14   O     O_R   0.297990 0.466320 0.394220 -0.491818
O15   O     O_R   0.487720 0.253870 0.385870 -0.506762
O16   O     O_R   0.721940 0.304340 0.422320 -0.495491
O17   O     O_R   0.750770 0.502570 0.614050 -0.508832
O18   O     O_R   0.479280 0.728140 0.602370 -0.484206
O19   O     O_R   0.262290 0.744790 0.587460 -0.504586
O20   O     O_R   0.489240 0.256450 0.560730 -0.493493
O21   O     O_R   0.723350 0.306730 0.584410 -0.519037
O22   O     O_3   0.500010 0.500010 0.500020 -0.292275
O23   O     O_R   0.170650 0.915100 0.051290 -0.502675
O24   O     O_R   0.941960 0.184500 0.049060 -0.464627
O25   O     O_R   0.922640 0.402670 0.071640 -0.517284
O26   O     O_R   0.196880 0.368740 0.083740 -0.513091

loop_
_geom_bond_atom_site_label_1
_geom_bond_atom_site_label_2
_ccdc_geom_bond_type
C27   H6    S    
C30   H9    S    
H3    N1    S    
Cr4   O11   S    
Cr4   O24   S    
C11   O2    A    
Cr5   O7    S    
Cr5   O26   S    
C12   C23   D    
C26   C27   A    
C20   O17   A    
C35   H16   S    
C10   O25   A    
C28   C29   A    
C19   C36   S    
Cr2   O19   S    
C11   O26   A    
C5    C36   D    
Cr6   O10   S    
C34   C35   S    
C4    O15   A    
C36   H11   S    
C7    C14   S    
C8    C9    T    
C34   H15   S    
C14   O7    A    
Cr3   O15   S    
Cr6   O2    S    
C4    O14   A    
Cr5   O11   S    
C5    H1    S    
C17   O10   A    
C33   H17   S    
Cr4   O6    S    
C21   C22   T    
Cr2   O22   S    
Cr4   O23   S    
C19   O12   A    
C10   C12   S    
Cr5   O8    S    
C29   H8    S    
C14   O6    A    
C23   N1    S    
C15   O9    A    
Cr2   O12   S    
C32   C35   D    
C3    C25   S    
Cr3   O21   S    
C18   O19   A    
C25   C26   A    
Cr1   O17   S    
C1    C32   S    
C8    C18   S    
C23   C31   S    
C13   C33   S    
C29   C30   A    
C28   H7    S    
C13   O3    A    
C18   O18   A    
C33   C34   D    
C32   H2    S    
Cr3   O16   S    
C2    C15   S    
C2    H10   S    
C26   H5    S    
C9    C17   S    
Cr4   O5    S    
Cr1   O22   S    
C16   O1    A    
C1    O4    A    
Cr1   O4    S    
Cr5   O25   S    
Cr2   O14   S    
C25   C30   A    
H4    N1    S    
C16   O16   A    
Cr3   O22   S    
C3    C5    S    
Cr1   O1    S    
C6    C7    T    
C24   H14   S    
C6    C20   S    
Cr1   O18   S    
C13   O23   A    
C11   C22   S    
C17   O5    A    
C1    O13   A    
Cr3   O20   S    
C2    C3    D    
C24   C31   D    
C4    C21   S    
C15   O8    A    
C10   O24   A    
Cr6   O11   S    
Cr6   O9    S    
C31   H12   S    
C19   O20   A    
C12   H13   S    
C16   C24   S    
C27   C28   A    
C20   O21   A    
Cr6   O3    S    
Cr2   O13   S    
