data_mof_unit_23222.cif
_audit_creation_date              2012-12-11T15:14:52-0500
_audit_creation_method            fapswitch 2.2
_symmetry_space_group_name_H-M    P1
_symmetry_Int_Tables_number       1
_space_group_crystal_system       triclinic
_cell_length_a                    11.174563
_cell_length_b                    11.139831
_cell_length_c                    18.526487
_cell_angle_alpha                 89.804294
_cell_angle_beta                  89.777726
_cell_angle_gamma                 119.80926
_cell_volume                      2001.02664563

loop_
_atom_site_label
_atom_site_type_symbol
_atom_type_description
_atom_site_fract_x
_atom_site_fract_y
_atom_site_fract_z
_atom_type_partial_charge
C1    C     C_R   0.519593 0.455014 0.645144 0.569607
C2    C     C_R   0.428417 0.541074 0.362315 0.546899
C3    C     C_R   0.477789 0.934509 0.144793 0.576563
C4    C     C_R   0.066078 0.544495 0.355798 0.563987
C5    C     C_3   0.380754 0.986986 0.481012 0.189242
C6    C     C_3   0.609741 0.611500 0.019255 0.278593
C7    C     C_3   0.998774 0.395133 0.481399 0.189048
C8    C     C_3   0.396094 0.011224 0.021069 0.264272
C9    C     C_3   0.598460 0.608944 0.478769 0.197002
C10   C     C_3   0.023694 0.402295 0.017285 0.251387
C11   C     C_3   0.103505 0.514687 0.960939 0.232406
C12   C     C_R   0.930137 0.478365 0.856451 0.548661
C13   C     C_3   0.515825 0.617732 0.542419 0.196050
C14   C     C_3   0.395060 0.913771 0.963355 0.209969
C15   C     C_3   0.072248 0.502063 0.540172 0.218385
C16   C     C_3   0.508178 0.602876 0.962081 0.249105
C17   C     C_3   0.403179 0.900340 0.537760 0.195092
C18   C     C_3   0.502808 0.120488 0.510378 -0.118041
C19   C     C_3   0.608804 0.483380 0.987686 -0.120191
C20   C     C_3   0.858599 0.375972 0.506366 -0.120053
C21   C     C_3   0.529328 0.131365 0.988641 -0.081715
C22   C     C_3   0.582564 0.472622 0.508883 -0.083924
C23   C     C_R   0.548808 0.070557 0.642939 0.570503
C24   C     C_3   0.886067 0.379671 0.987152 -0.083210
C25   C     C_3   0.112448 0.627677 0.013169 -0.133460
C26   C     C_3   0.379421 0.537108 0.499549 -0.059720
C27   C     C_3   0.479714 0.870773 0.012355 -0.078930
C28   C     C_3   0.092829 0.620607 0.488506 -0.070455
C29   C     C_3   0.384370 0.510303 0.012397 -0.064213
C30   C     C_3   0.500966 0.880953 0.485934 -0.045188
C31   C     C_3   0.524929 0.030118 0.567285 -0.027876
C32   C     C_3   0.503804 0.475589 0.931167 -0.051076
C33   C     C_3   0.934948 0.484938 0.564481 -0.056232
C34   C     C_R   0.520743 0.452449 0.856063 0.555383
C35   C     C_3   0.526395 0.029376 0.931489 -0.034147
C36   C     C_3   0.497444 0.483206 0.571953 -0.022251
C37   C     C_3   0.969152 0.495047 0.931539 -0.040008
C38   C     C_3   0.028694 0.512662 0.069268 -0.036552
C39   C     C_3   0.463936 0.526407 0.436005 -0.022588
C40   C     C_3   0.484080 0.973283 0.069828 -0.031073
C41   C     C_3   0.015345 0.510607 0.429510 0.010632
C42   C     C_3   0.488083 0.516597 0.069276 -0.073641
C43   C     C_3   0.480572 0.971050 0.429702 0.034316
C44   C     C_3   0.623341 0.013147 0.514859 0.205786
C45   C     C_R   0.884022 0.459765 0.638008 0.526628
C46   C     C_3   0.382602 0.381887 0.981471 0.295502
C47   C     C_3   0.953155 0.601629 0.513069 0.216967
C48   C     C_3   0.613220 0.990336 0.980340 0.240330
C49   C     C_3   0.363678 0.400730 0.529032 0.229704
C50   C     C_3   0.974710 0.605366 0.983716 0.214562
C51   C     C_3   0.894485 0.492289 0.039368 0.242283
C52   C     C_3   0.446781 0.391614 0.466398 0.221071
C53   C     C_3   0.614962 0.088961 0.037407 0.175563
C54   C     C_3   0.878864 0.494771 0.454660 0.240332
C55   C     C_3   0.484725 0.390094 0.037875 0.189283
C56   C     C_R   0.547872 0.068612 0.856213 0.555451
C57   C     C_3   0.600583 0.099682 0.458415 0.208758
C58   C     C_R   0.455870 0.522912 0.144359 0.554503
C59   C     C_R   0.476356 0.932617 0.355305 0.584875
C60   C     C_R   0.067763 0.544733 0.144154 0.559683
Cr1   Cr    Cr6+3 0.769930 0.543130 0.750000 1.081467
Cr2   Cr    Cr6+3 0.773200 0.230070 0.750000 1.069801
Cr3   Cr    Cr6+3 0.456870 0.226800 0.750000 1.062752
Cr4   Cr    Cr6+3 0.543130 0.769930 0.250000 1.059583
Cr5   Cr    Cr6+3 0.230070 0.773200 0.250000 1.082544
Cr6   Cr    Cr6+3 0.226800 0.456870 0.250000 1.097913
H1    H     H_    0.800344 0.104755 0.561031 0.335393
H2    H     H_    0.825027 0.581015 0.381585 0.377263
H3    H     H_    0.542884 0.324258 0.119363 0.382623
H4    H     H_    0.756799 0.159195 0.394985 0.368528
H5    H     H_    0.502118 0.213048 0.529601 0.132196
H6    H     H_    0.693900 0.470598 0.966668 0.167491
H7    H     H_    0.767805 0.288351 0.530194 0.104892
H8    H     H_    0.554144 0.233948 0.968886 0.120629
H9    H     H_    0.659272 0.442034 0.522104 0.122117
H10   H     H_    0.799667 0.285513 0.964813 0.128825
H11   H     H_    0.199105 0.723525 0.034269 0.175025
H12   H     H_    0.293627 0.196465 0.945181 0.369739
H13   H     H_    0.306172 0.571932 0.485550 0.147780
H14   H     H_    0.453237 0.767323 0.031794 0.134229
H15   H     H_    0.186063 0.716095 0.471930 0.178491
H16   H     H_    0.300999 0.526201 0.033155 0.162974
H17   H     H_    0.499087 0.789868 0.463389 0.097293
H18   H     H_    0.211714 0.982558 0.504994 0.341496
H19   H     H_    0.751365 0.719365 0.087773 0.331832
H20   H     H_    0.009948 0.233679 0.504999 0.368733
H21   H     H_    0.281802 0.028386 0.093956 0.375144
H22   H     H_    0.701326 0.792019 0.437902 0.364319
H23   H     H_    0.848513 0.673939 0.559684 0.350475
H24   H     H_    0.007767 0.260168 0.082265 0.343823
H25   H     H_    0.201932 0.565521 0.869739 0.329847
H26   H     H_    0.650495 0.764193 0.600885 0.363929
H27   H     H_    0.323458 0.801808 0.878705 0.334898
H28   H     H_    0.121960 0.412845 0.613625 0.369765
H29   H     H_    0.458095 0.668432 0.877328 0.337642
H30   H     H_    0.253707 0.841596 0.605424 0.343017
H31   H     H_    0.802262 0.074488 0.948874 0.351980
H32   H     H_    0.258562 0.210823 0.559525 0.335475
H33   H     H_    0.023563 0.775864 0.934643 0.393946
H34   H     H_    0.829890 0.566668 0.113435 0.342124
H35   H     H_    0.309838 0.228390 0.418427 0.377231
H36   H     H_    0.768689 0.120733 0.096327 0.351917
O1    O     O_R   0.913270 0.574260 0.668550 -0.474400
O2    O     O_R   0.574260 0.913270 0.331450 -0.530123
O3    O     O_R   0.086730 0.660990 0.168550 -0.511140
O4    O     O_R   0.339010 0.425740 0.331450 -0.455431
O5    O     O_R   0.640160 0.530400 0.673300 -0.536451
O6    O     O_R   0.890240 0.359840 0.826700 -0.492561
O7    O     O_R   0.469600 0.109760 0.673300 -0.522881
O8    O     O_R   0.640160 0.530400 0.826700 -0.468409
O9    O     O_R   0.890240 0.359840 0.673300 -0.509444
O10   O     O_R   0.469600 0.109760 0.826700 -0.490469
O11   O     O_R   0.530400 0.640160 0.173300 -0.513946
O12   O     O_R   0.660990 0.086730 0.831450 -0.483726
O13   O     O_R   0.359840 0.890240 0.326700 -0.463434
O14   O     O_R   0.109760 0.469600 0.173300 -0.507150
O15   O     O_R   0.530400 0.640160 0.326700 -0.483481
O16   O     O_R   0.359840 0.890240 0.173300 -0.519702
O17   O     O_R   0.109760 0.469600 0.326700 -0.475057
O18   O     O_3   0.666667 0.333333 0.750000 -0.340527
O19   O     O_3   0.333333 0.666667 0.250000 -0.344849
O20   O     O_3   0.749120 0.021083 0.531266 -0.658192
O21   O     O_3   0.262853 0.261734 0.960879 -0.528622
O22   O     O_3   0.934183 0.713104 0.530458 -0.610126
O23   O     O_R   0.425740 0.339010 0.668550 -0.489028
O24   O     O_3   0.727125 0.978832 0.958567 -0.539787
O25   O     O_3   0.241709 0.290007 0.556310 -0.671479
O26   O     O_3   0.946253 0.710711 0.966026 -0.589012
O27   O     O_3   0.790634 0.478671 0.086484 -0.679854
O28   O     O_3   0.411461 0.275789 0.423473 -0.603124
O29   O     O_3   0.723701 0.174837 0.082693 -0.659975
O30   O     O_3   0.781380 0.489191 0.405610 -0.587126
O31   O     O_3   0.467768 0.282678 0.083530 -0.651644
O32   O     O_3   0.694124 0.194655 0.408413 -0.605848
O33   O     O_3   0.253832 0.971588 0.460146 -0.636653
O34   O     O_R   0.913270 0.574260 0.831450 -0.479406
O35   O     O_3   0.726561 0.735284 0.038868 -0.542704
O36   O     O_3   0.024888 0.289741 0.460905 -0.637195
O37   O     O_3   0.277114 0.015097 0.041039 -0.604236
O38   O     O_3   0.721447 0.717717 0.451012 -0.621555
O39   O     O_3   0.051838 0.296643 0.034714 -0.591292
O40   O     O_3   0.205146 0.519340 0.914838 -0.669301
O41   O     O_3   0.552821 0.730259 0.588120 -0.604838
O42   O     O_3   0.284542 0.832060 0.918112 -0.691106
O43   O     O_3   0.165782 0.506278 0.591456 -0.588638
O44   O     O_3   0.526721 0.710913 0.916324 -0.611221
O45   O     O_R   0.660990 0.086730 0.668550 -0.496376
O46   O     O_3   0.306582 0.800145 0.584550 -0.604577
O47   O     O_R   0.425740 0.339010 0.831450 -0.492814
O48   O     O_R   0.574260 0.913270 0.168550 -0.489722
O49   O     O_R   0.086730 0.660990 0.331450 -0.504995
O50   O     O_R   0.339010 0.425740 0.168550 -0.457354

loop_
_geom_bond_atom_site_label_1
_geom_bond_atom_site_label_2
_ccdc_geom_bond_type
C27   C48   S    
C28   C47   S    
Cr5   O49   S    
C37   C50   S    
C29   C42   S    
C33   C45   S    
C47   O22   S    
C60   O3    A    
C42   C58   S    
C51   O27   S    
H18   O33   S    
C6    C19   S    
Cr6   O14   S    
C8    O37   S    
C25   H11   S    
C59   O2    A    
C22   C52   S    
Cr1   O1    S    
C1    O23   A    
Cr2   O12   S    
C25   C38   S    
C9    O38   S    
C9    C22   S    
Cr2   O6    S    
C4    C41   S    
C35   C48   S    
Cr4   O19   S    
C28   C41   S    
C9    C39   S    
C16   O44   S    
C30   H17   S    
C11   C37   S    
H26   O41   S    
C9    C13   S    
C25   C50   S    
Cr3   O47   S    
C45   O1    A    
C32   C34   S    
C2    C39   S    
C34   O47   A    
H22   O38   S    
Cr2   O9    S    
C46   C55   S    
C58   O11   A    
C8    C14   S    
Cr5   O16   S    
C4    O17   A    
C53   O29   S    
C13   O41   S    
Cr5   O19   S    
C14   C27   S    
C44   C57   S    
Cr2   O18   S    
C43   C59   S    
C46   O21   S    
H25   O40   S    
C30   C43   S    
H35   O28   S    
C24   C51   S    
C7    C15   S    
C39   C52   S    
C5    C43   S    
Cr1   O18   S    
C17   C30   S    
Cr5   O13   S    
C30   C44   S    
C19   H6    S    
H29   O44   S    
C22   H9    S    
Cr6   O4    S    
C23   O7    A    
Cr1   O8    S    
Cr5   O3    S    
C2    O15   A    
C58   O50   A    
C50   C51   S    
C48   C53   S    
C49   O25   S    
C14   O42   S    
C31   C44   S    
C17   O46   S    
H36   O29   S    
C13   C36   S    
C20   C54   S    
C27   H14   S    
C26   C49   S    
C14   C35   S    
C15   O43   S    
C43   C57   S    
H34   O27   S    
C24   H10   S    
C38   C51   S    
C10   C24   S    
C16   C29   S    
C55   O31   S    
C23   O45   A    
C21   H8    S    
C2    O4    A    
Cr4   O15   S    
H30   O46   S    
Cr4   O48   S    
C10   O39   S    
H2    O30   S    
Cr3   O7    S    
Cr6   O50   S    
C3    O16   A    
C42   C55   S    
C26   C39   S    
C18   C57   S    
C27   C40   S    
C49   C52   S    
C19   C32   S    
C24   C37   S    
Cr6   O19   S    
H12   O21   S    
Cr3   O23   S    
H27   O42   S    
C1    O5    A    
C47   C54   S    
C38   C60   S    
C20   C33   S    
H32   O25   S    
C3    C40   S    
C40   C53   S    
Cr2   O45   S    
C12   O34   A    
C33   C47   S    
C57   O32   S    
C60   O14   A    
C50   O26   S    
H1    O20   S    
H19   O35   S    
C54   O30   S    
C12   O6    A    
C19   C55   S    
C18   H5    S    
C5    O33   S    
C4    O49   A    
C3    O48   A    
H3    O31   S    
Cr4   O11   S    
C35   C56   S    
Cr3   O10   S    
C32   C46   S    
Cr4   O2    S    
H21   O37   S    
H31   O24   S    
C8    C21   S    
C7    O36   S    
C45   O9    A    
H33   O26   S    
C5    C18   S    
H23   O22   S    
Cr6   O17   S    
C16   C32   S    
C22   C36   S    
C26   H13   S    
C29   C46   S    
C10   C38   S    
C52   O28   S    
C6    O35   S    
C21   C35   S    
C28   H15   S    
C29   H16   S    
C12   C37   S    
C21   C53   S    
Cr3   O18   S    
C48   O24   S    
C15   C28   S    
H28   O43   S    
C17   C31   S    
C44   O20   S    
C15   C33   S    
C20   H7    S    
C7    C41   S    
C13   C26   S    
C11   O40   S    
C41   C54   S    
H24   O39   S    
C10   C11   S    
H20   O36   S    
C6    C16   S    
C56   O12   A    
C5    C17   S    
C1    C36   S    
C59   O13   A    
C7    C20   S    
C6    C42   S    
Cr1   O5    S    
H4    O32   S    
C11   C25   S    
C18   C31   S    
C8    C40   S    
C34   O8    A    
C56   O10   A    
C36   C49   S    
Cr1   O34   S    
C23   C31   S    
