data_mof_unit_18518.cif
_audit_creation_date              2012-12-10T18:22:22-0500
_audit_creation_method            fapswitch 2.2
_symmetry_space_group_name_H-M    P1
_symmetry_Int_Tables_number       1
_space_group_crystal_system       triclinic
_cell_length_a                    14.92048
_cell_length_b                    14.18895
_cell_length_c                    15.720511
_cell_angle_alpha                 90.162033
_cell_angle_beta                  88.10693
_cell_angle_gamma                 90.658314
_cell_volume                      3326.0796641

loop_
_atom_site_label
_atom_site_type_symbol
_atom_type_description
_atom_site_fract_x
_atom_site_fract_y
_atom_site_fract_z
_atom_type_partial_charge
C1    C     C_R   0.327527 0.499577 0.499316 0.867103
C2    C     C_R   0.905433 0.531771 0.572367 0.068464
C3    C     C_R   0.954207 0.513400 0.495353 0.010946
C4    C     C_R   0.499870 0.499900 0.338565 0.867586
C5    C     C_R   0.909283 0.494826 0.419170 0.073776
C6    C     C_R   0.951557 0.549333 0.647304 -0.196504
C7    C     C_R   0.044726 0.551659 0.647525 0.142473
C8    C     C_R   0.093336 0.531977 0.570929 0.113112
C9    C     C_R   0.048167 0.512653 0.494531 -0.021178
C10   C     C_R   0.097100 0.491770 0.417388 0.108031
C11   C     C_R   0.052046 0.494009 0.339042 0.183191
C12   C     C_3   0.584563 0.517814 0.947496 -0.460064
C13   C     C_R   0.958647 0.492249 0.341760 -0.194828
C14   C     C_R   0.186229 0.530517 0.568593 -0.224445
C15   C     C_R   0.232457 0.499790 0.496371 -0.130289
C16   C     C_R   0.672612 0.500617 0.499648 0.821025
C17   C     C_R   0.189292 0.473620 0.422266 -0.075195
C18   C     C_R   0.551541 0.799492 0.441088 0.057040
C19   C     C_R   0.563286 0.201278 0.452861 0.014386
C20   C     C_R   0.445728 0.797383 0.557663 0.049479
C21   C     C_R   0.436499 0.201618 0.548899 0.057083
C22   C     C_R   0.436103 0.897764 0.553026 0.006504
C23   C     C_3   0.585832 0.518691 0.045309 -0.383920
C24   C     C_R   0.437468 0.100503 0.555279 -0.059515
C25   C     C_R   0.496650 0.949342 0.499891 0.036111
C26   C     C_R   0.498086 0.050332 0.501644 0.065172
C27   C     C_R   0.555097 0.899850 0.443600 0.020309
C28   C     C_R   0.560907 0.100936 0.449686 0.019901
C29   C     C_R   0.369975 0.948302 0.601309 -0.021892
C30   C     C_R   0.377198 0.047440 0.609824 -0.121950
C31   C     C_R   0.618954 0.049934 0.394591 -0.167523
C32   C     C_R   0.616096 0.951874 0.391608 -0.158570
C33   C     C_R   0.499241 0.500133 0.661491 0.899900
C34   C     C_1   0.491552 0.500570 0.825634 0.023634
C35   C     C_3   0.424788 0.578475 0.053138 -0.132227
C36   C     C_3   0.454251 0.401773 0.051122 -0.095499
C37   C     C_3   0.456230 0.401556 0.951663 -0.204614
C38   C     C_3   0.428289 0.582124 0.953600 -0.161485
C39   C     C_1   0.495432 0.500448 0.750314 -0.062092
C40   C     C_3   0.490143 0.499837 0.083308 0.228522
C41   C     C_3   0.487666 0.500209 0.917431 0.114854
C42   C     C_2   0.335273 0.584874 0.917892 0.371031
C43   C     C_2   0.367320 0.368531 0.917930 0.426864
C44   C     C_3   0.089035 0.573263 0.731229 -0.446015
C45   C     C_1   0.493306 0.499748 0.174883 -0.100605
C46   C     C_3   0.122773 0.675256 0.734223 -0.718335
C47   C     C_2   0.239767 0.418840 0.356413 0.394869
C48   C     C_3   0.098537 0.510556 0.252254 -0.402589
C49   C     C_3   0.151261 0.603606 0.249443 -0.873390
C50   C     C_2   0.602564 0.747569 0.374247 0.431325
C51   C     C_2   0.633955 0.254203 0.404964 0.471684
C52   C     C_2   0.406073 0.744339 0.630495 0.545713
C53   C     C_2   0.359371 0.254179 0.584357 0.549531
C54   C     C_2   0.287332 0.900697 0.636401 0.382231
C55   C     C_2   0.325682 0.091793 0.681297 0.395632
C56   C     C_1   0.496620 0.499708 0.249995 -0.169309
C57   C     C_3   0.505360 0.315662 0.086125 -0.403962
C58   C     C_3   0.457167 0.222190 0.068732 -0.809241
C59   C     C_3   0.443306 0.677653 0.092120 -0.367221
C60   C     C_3   0.368408 0.747190 0.075171 -0.836678
C61   C     C_2   0.765050 0.457542 0.344581 0.412464
C62   C     C_2   0.756024 0.554775 0.650510 0.412654
C63   C     C_R   0.815555 0.485231 0.421459 -0.040251
C64   C     C_R   0.768470 0.503193 0.498465 -0.184748
C65   C     C_R   0.811393 0.530107 0.572992 -0.055803
H1    H     H_    0.224415 0.548748 0.623704 0.158856
H2    H     H_    0.633246 0.464726 0.067279 0.184304
H3    H     H_    0.611404 0.586302 0.922590 0.203011
H4    H     H_    0.630238 0.461984 0.922364 0.188812
H5    H     H_    0.915624 0.560381 0.707203 0.187070
H6    H     H_    0.277852 0.555459 0.953087 0.048308
H7    H     H_    0.304769 0.395764 0.944208 0.036181
H8    H     H_    0.173936 0.689435 0.682959 0.277650
H9    H     H_    0.066005 0.724270 0.727057 0.261329
H10   H     H_    0.153440 0.689238 0.796462 0.267742
H11   H     H_    0.040653 0.562826 0.785812 0.208206
H12   H     H_    0.924583 0.493026 0.282160 0.178418
H13   H     H_    0.144331 0.523589 0.742485 0.225376
H14   H     H_    0.305834 0.442220 0.333964 0.054171
H15   H     H_    0.106388 0.663052 0.266829 0.276059
H16   H     H_    0.207748 0.602753 0.293511 0.256720
H17   H     H_    0.179371 0.615456 0.184005 0.244853
H18   H     H_    0.141876 0.451531 0.232121 0.243517
H19   H     H_    0.048480 0.514421 0.201562 0.203706
H20   H     H_    0.648644 0.692965 0.390447 0.093302
H21   H     H_    0.616848 0.307318 0.359436 0.091798
H22   H     H_    0.363274 0.683651 0.620731 0.104203
H23   H     H_    0.666667 0.085124 0.351891 0.183006
H24   H     H_    0.294232 0.244884 0.556561 0.011812
H25   H     H_    0.261115 0.917330 0.699787 0.087014
H26   H     H_    0.253098 0.085807 0.685265 0.047219
H27   H     H_    0.387595 0.223349 0.096090 0.263509
H28   H     H_    0.455260 0.207910 0.999387 0.285620
H29   H     H_    0.493525 0.163814 0.098793 0.253603
H30   H     H_    0.574409 0.312674 0.057664 0.220275
H31   H     H_    0.511280 0.321260 0.156146 0.227183
H32   H     H_    0.364619 0.761985 0.006124 0.274867
H33   H     H_    0.302814 0.718719 0.099412 0.249684
H34   H     H_    0.663610 0.917425 0.348768 0.179620
H35   H     H_    0.382117 0.814717 0.108441 0.267887
H36   H     H_    0.448282 0.672904 0.162254 0.250234
H37   H     H_    0.507764 0.707463 0.066378 0.225973
H38   H     H_    0.701238 0.489880 0.332282 0.024163
H39   H     H_    0.699420 0.510310 0.670034 0.041750
H40   H     H_    0.356266 0.557061 0.076646 0.133736
H41   H     H_    0.383648 0.394729 0.076077 0.140334
H42   H     H_    0.507268 0.350271 0.927610 0.195492
H43   H     H_    0.462055 0.649044 0.932673 0.199326
H44   H     H_    0.612214 0.587730 0.067609 0.188263
N1    N     N_R   0.500070 0.750030 0.500040 -0.184371
N2    N     N_R   0.500070 0.249970 0.500040 -0.168476
O1    O     O_R   0.367860 0.580280 0.500020 -0.640549
O2    O     O_2   0.364999 0.309086 0.861731 -0.477760
O3    O     O_2   0.209627 0.344113 0.330499 -0.562081
O4    O     O_2   0.592535 0.765337 0.299224 -0.599301
O5    O     O_2   0.712933 0.239028 0.416927 -0.534424
O6    O     O_2   0.421230 0.768786 0.703214 -0.562251
O7    O     O_2   0.366348 0.303972 0.647165 -0.487546
O8    O     O_2   0.245972 0.844766 0.592912 -0.591787
O9    O     O_2   0.364919 0.132157 0.738034 -0.456212
O10   O     O_2   0.792078 0.395296 0.296809 -0.547616
O11   O     O_2   0.770075 0.627465 0.689883 -0.559580
O12   O     O_R   0.367860 0.419720 0.500020 -0.619260
O13   O     O_R   0.500020 0.580310 0.377140 -0.609615
O14   O     O_R   0.500020 0.419690 0.377140 -0.658937
O15   O     O_R   0.632160 0.580270 0.499980 -0.642105
O16   O     O_R   0.632160 0.419730 0.499980 -0.608388
O17   O     O_R   0.500010 0.580240 0.622850 -0.630668
O18   O     O_R   0.500010 0.419760 0.622850 -0.555370
O19   O     O_2   0.323780 0.620322 0.848473 -0.551540
Zn1   Zn    Zn3+2 0.500020 0.607200 0.499990 0.957707
Zn2   Zn    Zn3+2 0.500020 0.392800 0.499990 0.983304

loop_
_geom_bond_atom_site_label_1
_geom_bond_atom_site_label_2
_ccdc_geom_bond_type
C47   O3    D    
C12   H4    S    
C43   H7    S    
C22   C29   A    
O12   Zn2   S    
C47   H14   S    
C2    C65   A    
C7    C8    A    
C12   H3    S    
C12   C23   S    
C4    O13   A    
C12   C41   S    
C4    O14   A    
C3    C9    A    
C61   O10   D    
C36   C37   S    
C61   H38   S    
C58   H28   S    
C24   C26   A    
C37   H42   S    
C60   H33   S    
C1    O1    A    
C29   C54   S    
C10   C17   A    
C49   H16   S    
C23   C40   S    
C5    C63   A    
C35   C59   S    
C50   O4    D    
C23   H2    S    
C61   C63   S    
O16   Zn2   S    
C55   H26   S    
C50   H20   S    
C45   C56   T    
C8    C9    A    
C57   H31   S    
C1    C15   S    
C9    C10   A    
C5    C13   A    
O18   Zn2   S    
C52   O6    D    
C59   C60   S    
C54   O8    D    
C4    C56   S    
C38   H43   S    
C11   C48   S    
C2    C6    A    
C34   C41   S    
C51   H21   S    
C46   H10   S    
C21   N2    A    
C44   C46   S    
C62   H39   S    
C55   O9    D    
C28   C31   A    
C40   C45   S    
C23   H44   S    
C13   H12   S    
C36   H41   S    
C34   C39   T    
C59   H36   S    
C17   C47   S    
C36   C40   S    
C35   C38   S    
C38   C41   S    
C60   H32   S    
C53   O7    D    
C3    C5    A    
C25   C26   A    
C22   C25   A    
C33   O17   A    
C48   H19   S    
O13   Zn1   S    
C49   H17   S    
C37   C43   S    
C1    O12   A    
C29   C30   A    
C35   H40   S    
C31   C32   A    
C14   H1    S    
N1    Zn1   S    
C42   O19   D    
C33   C39   S    
C7    C44   S    
C19   C28   A    
C46   H9    S    
C20   N1    A    
C48   C49   S    
C20   C22   A    
C36   C57   S    
C53   H24   S    
O17   Zn1   S    
C62   O11   D    
C18   C50   S    
C33   O18   A    
C6    H5    S    
C8    C14   A    
C31   H23   S    
C62   C65   S    
C27   C32   A    
C59   H37   S    
C52   H22   S    
C18   C27   A    
C18   N1    A    
C60   H35   S    
C32   H34   S    
C54   H25   S    
C6    C7    A    
C19   N2    A    
C25   C27   A    
C30   C55   S    
C26   C28   A    
C51   O5    D    
C48   H18   S    
C64   C65   A    
C44   H13   S    
C35   C40   S    
C58   H29   S    
C20   C52   S    
C43   O2    D    
C21   C53   S    
C11   C13   A    
O14   Zn2   S    
C57   C58   S    
C58   H27   S    
O15   Zn1   S    
C42   H6    S    
C2    C3    A    
O1    Zn1   S    
C37   C41   S    
C16   O16   A    
C24   C30   A    
C10   C11   A    
C63   C64   A    
C38   C42   S    
C19   C51   S    
N2    Zn2   S    
C57   H30   S    
C21   C24   A    
C49   H15   S    
C14   C15   A    
C16   C64   S    
C44   H11   S    
C15   C17   A    
C16   O15   A    
C46   H8    S    
