data_mof_unit_36904.cif
_audit_creation_date              2013-03-05T16:06:20-0500
_audit_creation_method            fapswitch 2.2
_symmetry_space_group_name_H-M    P1
_symmetry_Int_Tables_number       1
_space_group_crystal_system       triclinic
_cell_length_a                    11.079831
_cell_length_b                    9.527531
_cell_length_c                    27.761496
_cell_angle_alpha                 91.129639
_cell_angle_beta                  90.113835
_cell_angle_gamma                 90.4161
_cell_volume                      2929.94534748

loop_
_atom_site_label
_atom_site_type_symbol
_atom_site_description
_atom_site_fract_x
_atom_site_fract_y
_atom_site_fract_z
_atom_type_partial_charge
O1    O     O_R   0.319640 0.618740 0.500000 -0.573949
O2    O     O_R   0.680360 0.381260 0.500000 -0.575035
O3    O     O_R   0.680360 0.618740 0.500000 -0.562769
O4    O     O_R   0.319640 0.381260 0.500000 -0.562528
C1    C     C_R   0.262075 0.499834 0.499751 0.864429
C2    C     C_R   0.737983 0.500461 0.500694 0.862224
O5    O     O_R   0.500020 0.618770 0.430260 -0.570635
O6    O     O_R   0.499980 0.381230 0.569740 -0.578815
O7    O     O_R   0.499980 0.618770 0.569740 -0.578766
O8    O     O_R   0.500020 0.381230 0.430260 -0.582107
C3    C     C_R   0.501019 0.498626 0.407465 0.904070
C4    C     C_R   0.497675 0.501031 0.592879 0.872632
Cu1   Cu    Cu3+1 0.500000 0.640660 0.500000 1.042488
Cu2   Cu    Cu3+1 0.500000 0.359340 0.500000 1.038225
C5    C     C_R   0.410245 0.423533 0.179123 0.569493
C6    C     C_R   0.558025 0.558925 0.823451 0.579251
O9    O     O_2   0.325318 0.362102 0.206444 -0.497661
O10   O     O_2   0.663133 0.552990 0.799019 -0.498252
N1    N     N_R   0.514501 0.469539 0.200820 -0.445616
N2    N     N_R   0.451760 0.534084 0.799616 -0.445941
C7    C     C_R   0.611586 0.508534 0.173936 0.628952
C8    C     C_R   0.344556 0.527992 0.823954 0.616742
C9    C     C_R   0.597448 0.398832 0.279964 0.212912
C10   C     C_R   0.422313 0.399171 0.722837 0.212648
C11   C     C_R   0.592499 0.406386 0.330867 -0.111019
C12   C     C_R   0.435135 0.390099 0.672019 -0.097264
C13   C     C_R   0.427801 0.575805 0.326411 -0.062127
C14   C     C_R   0.526019 0.625236 0.673258 -0.043588
C15   C     C_R   0.437084 0.570746 0.276164 -0.176099
C16   C     C_R   0.501589 0.636763 0.722377 -0.173848
C17   C     C_R   0.518650 0.481250 0.252726 0.287095
C18   C     C_R   0.453962 0.524269 0.747666 0.284473
C19   C     C_R   0.493505 0.479378 0.100834 -0.059391
C20   C     C_R   0.453487 0.552885 0.899702 -0.060320
C21   C     C_R   0.393131 0.438835 0.128781 -0.080732
C22   C     C_R   0.558929 0.583980 0.873369 -0.068172
C23   C     C_R   0.282678 0.408307 0.104954 -0.019846
C24   C     C_R   0.661400 0.637389 0.898118 -0.045346
C25   C     C_R   0.606572 0.498459 0.123284 -0.124135
C26   C     C_R   0.342629 0.533894 0.875235 -0.135607
C27   C     C_R   0.506921 0.494152 0.354259 -0.201056
C28   C     C_R   0.487390 0.504406 0.646600 -0.208783
H1    H     H_    0.375949 0.631842 0.254552 0.193521
H2    H     H_    0.529973 0.730180 0.742429 0.199282
C29   C     C_R   0.355409 0.510622 0.977471 0.015621
C30   C     C_R   0.586322 0.527725 0.022912 0.010906
C31   C     C_R   0.572759 0.560622 0.973733 0.049653
C32   C     C_R   0.368350 0.480445 0.027585 0.051085
C33   C     C_R   0.460187 0.540886 0.950431 0.020201
C34   C     C_R   0.482370 0.497096 0.050381 0.024740
C35   C     C_R   0.241449 0.522351 0.953917 0.166240
C36   C     C_R   0.701772 0.509830 0.044408 0.153204
C37   C     C_R   0.235024 0.527011 0.902903 -0.078962
C38   C     C_R   0.711434 0.499419 0.094785 -0.036266
O11   O     O_2   0.241500 0.514815 0.798439 -0.506957
O12   O     O_2   0.711100 0.561266 0.195918 -0.510754
C39   C     C_R   0.273366 0.423879 0.055061 -0.193599
C40   C     C_R   0.666667 0.624717 0.947984 -0.194043
H3    H     H_    0.190744 0.387644 0.038200 0.192587
H4    H     H_    0.742569 0.671840 0.966974 0.195679
C41   C     C_R   0.062022 0.373205 0.495205 -0.050305
C42   C     C_R   0.938027 0.629253 0.502395 -0.050974
C43   C     C_R   0.936437 0.372697 0.500383 -0.085127
C44   C     C_R   0.064192 0.628415 0.505160 -0.098491
C45   C     C_R   0.872187 0.501011 0.501351 -0.172208
C46   C     C_R   0.128009 0.500452 0.499804 -0.177310
C47   C     C_R   0.449735 0.071871 0.462763 0.003904
C48   C     C_R   0.552288 0.928303 0.536715 0.013280
C49   C     C_R   0.552213 0.076814 0.536799 0.025231
C50   C     C_R   0.449667 0.923243 0.462768 0.003128
H5    H     H_    0.409739 0.125598 0.432841 0.152029
H6    H     H_    0.595153 0.874861 0.565859 0.159736
H7    H     H_    0.594797 0.134250 0.566264 0.182413
H8    H     H_    0.408275 0.865817 0.433031 0.159777
N3    N     N_R   0.500000 0.852070 0.500000 -0.174154
N4    N     N_R   0.500000 0.147930 0.500000 -0.181391
C51   C     C_2   0.328428 0.659073 0.348202 0.878810
O13   O     O_2   0.298779 0.770147 0.330426 -0.559974
O14   O     O_R   0.264909 0.607652 0.387648 -0.757032
H9    H     H_    0.195872 0.670765 0.397745 0.366152
C52   C     C_2   0.606318 0.733526 0.652942 0.883487
O15   O     O_2   0.591747 0.857491 0.663545 -0.555588
O16   O     O_R   0.704039 0.692574 0.624352 -0.747877
H10   H     H_    0.758505 0.774564 0.616416 0.366290
C53   C     C_2   0.173089 0.364203 0.130791 0.950167
O17   O     O_2   0.123221 0.253415 0.119637 -0.602679
O18   O     O_R   0.126921 0.450120 0.167719 -0.673401
H11   H     H_    0.058378 0.404445 0.185846 0.341421
C54   C     C_2   0.757081 0.721530 0.874377 0.921648
O19   O     O_2   0.858983 0.725968 0.891318 -0.577690
O20   O     O_R   0.729135 0.802888 0.834518 -0.719637
H12   H     H_    0.801493 0.857019 0.822188 0.359664
C55   C     C_2   0.391796 0.261607 0.646285 0.875431
O21   O     O_2   0.438362 0.148429 0.654253 -0.561771
O22   O     O_R   0.296955 0.270309 0.613217 -0.730784
H13   H     H_    0.275793 0.175902 0.597840 0.371254
C56   C     C_2   0.682527 0.329960 0.359464 0.879192
O23   O     O_2   0.684949 0.201671 0.358004 -0.552831
O24   O     O_R   0.766504 0.406394 0.387108 -0.758940
H14   H     H_    0.829741 0.344543 0.401979 0.364822
N5    N     N_2   0.383795 0.281126 0.749733 -0.435540
H15   H     H_    0.443144 0.198263 0.749116 0.287558
C57   C     C_3   0.258099 0.239640 0.744969 -0.497179
H16   H     H_    0.220450 0.220681 0.781293 0.247801
H17   H     H_    0.250170 0.140911 0.723197 0.226967
H18   H     H_    0.203487 0.322057 0.727542 0.254237
N6    N     N_2   0.678590 0.306063 0.255741 -0.416100
H19   H     H_    0.657307 0.201207 0.259143 0.284920
C58   C     C_3   0.806325 0.337356 0.261157 -0.481300
H20   H     H_    0.851854 0.320918 0.226150 0.243048
H21   H     H_    0.848022 0.265729 0.287407 0.225242
H22   H     H_    0.822340 0.447887 0.273311 0.250527
C59   C     C_2   0.114830 0.537645 0.879897 0.960510
O25   O     O_2   0.087512 0.644890 0.859140 -0.502384
O26   O     O_R   0.033108 0.425543 0.882259 -0.768906
H23   H     H_    0.953907 0.445731 0.865498 0.358629
C60   C     C_2   0.825104 0.449268 0.115683 0.911905
O27   O     O_2   0.914377 0.525202 0.117384 -0.565733
O28   O     O_R   0.828252 0.312408 0.132757 -0.752980
H24   H     H_    0.910280 0.284546 0.144944 0.349662
N7    N     N_2   0.135749 0.551885 0.981544 -0.464248
H25   H     H_    0.056319 0.509032 0.968563 0.277818
C61   C     C_3   0.124259 0.697083 0.996920 -0.589023
H26   H     H_    0.044396 0.708644 0.020712 0.239441
H27   H     H_    0.112307 0.764836 0.965157 0.245706
H28   H     H_    0.205458 0.731998 0.017565 0.241607
N8    N     N_2   0.804650 0.480740 0.014969 -0.454561
H29   H     H_    0.886069 0.517677 0.028095 0.274403
C62   C     C_3   0.810297 0.338414 0.996000 -0.605635
H30   H     H_    0.888198 0.328359 0.971125 0.243246
H31   H     H_    0.726844 0.311277 0.975504 0.241020
H32   H     H_    0.821867 0.263570 0.025818 0.243575
C63   C     C_2   0.121160 0.239217 0.482372 0.913174
O29   O     O_2   0.135139 0.150450 0.513007 -0.574236
O30   O     O_R   0.158608 0.215265 0.434903 -0.721502
H33   H     H_    0.192697 0.118079 0.429374 0.331287
C64   C     C_2   0.877797 0.767224 0.501201 0.899773
O31   O     O_2   0.835470 0.808788 0.463407 -0.545407
O32   O     O_R   0.871796 0.849400 0.543244 -0.738788
H34   H     H_    0.820552 0.935617 0.539230 0.340024
C65   C     C_2   0.874429 0.235535 0.504959 0.899224
O33   O     O_2   0.841980 0.197312 0.544680 -0.578401
O34   O     O_R   0.850123 0.153453 0.463806 -0.724796
H35   H     H_    0.794427 0.071642 0.470567 0.357106
C66   C     C_2   0.127316 0.764889 0.511518 0.948147
O35   O     O_2   0.155900 0.807206 0.551849 -0.521449
O36   O     O_R   0.155358 0.842773 0.471016 -0.757448
H36   H     H_    0.207908 0.926693 0.479427 0.341019

loop_
_geom_bond_atom_site_label_1
_geom_bond_atom_site_label_2
_geom_bond_distance
_ccdc_geom_bond_type
O18   H11   1.012279 S    
C43   C45   1.418957 A    
N5    H15   1.031035 S    
C44   C66   1.479272 S    
C13   C15   1.398828 A    
O22   H13   1.013727 S    
O3    C2    1.299684 A    
N1    C17   1.443724 S    
N8    C62   1.446798 S    
C52   O15   1.223486 D    
C41   C63   1.476833 S    
C32   C39   1.411018 A    
C31   C33   1.413547 A    
C51   O13   1.223262 D    
C48   N3    1.365440 A    
C5    N1    1.367038 A    
C64   O32   1.394541 S    
C24   C54   1.487343 S    
C19   C25   1.407124 A    
O1    C1    1.295940 A    
C23   C53   1.474235 S    
N1    C7    1.363986 A    
C10   C12   1.419209 A    
C62   H30   1.109960 S    
C58   H21   1.110422 S    
C66   O35   1.222859 D    
C61   H27   1.111305 S    
C25   C38   1.407022 A    
C29   C35   1.426892 A    
C40   H4    1.081757 S    
O34   H35   1.011349 S    
C30   C36   1.423235 A    
C49   N4    1.366769 A    
C62   H31   1.110941 S    
C10   N5    1.425470 S    
C14   C28   1.419208 A    
C41   C43   1.399144 A    
O7    Cu1   1.951371 S    
C4    C28   1.495680 S    
O36   H36   1.009033 S    
C66   O36   1.393697 S    
C24   C40   1.393104 A    
C41   C46   1.414668 A    
C2    C45   1.487007 S    
Cu1   N3    2.014215 S    
C37   C59   1.480819 S    
C48   C49   1.414909 A    
C50   H8    1.080861 S    
C42   C44   1.399927 A    
N6    H19   1.030996 S    
C49   H7    1.080853 S    
C54   O20   1.398977 S    
C47   H5    1.080286 S    
O3    Cu1   2.010749 S    
C6    N2    1.366312 A    
C62   H32   1.111021 S    
C12   C55   1.481654 S    
O30   H33   1.011576 S    
C8    C26   1.423848 A    
N5    C57   1.450004 S    
Cu1   Cu2   2.680285 S    
C15   H1    1.084217 S    
N6    C58   1.451128 S    
C16   H2    1.084727 S    
O2    C2    1.298591 A    
C5    C21   1.420478 A    
C52   O16   1.397075 S    
C36   N8    1.429467 S    
C36   C38   1.407933 A    
C56   O23   1.222639 D    
C53   O18   1.399221 S    
O32   H34   1.009796 S    
C61   H26   1.110068 S    
O8    Cu2   1.951371 S    
C58   H22   1.112377 S    
C11   C27   1.418654 A    
O20   H12   1.013871 S    
O4    C1    1.301486 A    
C61   H28   1.111137 S    
O6    Cu2   1.943196 S    
C9    C17   1.407617 A    
C19   C34   1.419332 A    
C53   O17   1.222003 D    
C48   H6    1.075933 S    
C35   C37   1.419440 A    
C65   O34   1.396354 S    
Cu2   N4    2.014216 S    
O5    C3    1.297127 A    
C10   C18   1.406845 A    
C13   C27   1.415023 A    
O16   H10   1.011637 S    
C7    C25   1.408536 A    
C29   C33   1.414761 A    
O6    C4    1.299113 A    
C9    N6    1.425559 S    
C43   C65   1.479787 S    
C51   O14   1.397750 S    
C57   H17   1.110866 S    
C55   O21   1.222661 D    
N7    H25   1.028984 S    
C11   C56   1.478402 S    
N2    C8    1.369117 A    
C63   O29   1.221594 D    
C35   N7    1.427872 S    
C20   C26   1.411179 A    
O1    Cu1   2.007733 S    
N8    H29   1.029305 S    
C50   N3    1.367487 A    
C12   C28   1.428987 A    
C59   O25   1.222593 D    
N2    C18   1.443663 S    
C29   C32   1.433309 A    
C5    O9    1.347445 S    
C30   C31   1.414762 A    
C20   C33   1.417013 A    
C56   O24   1.396541 S    
C42   C45   1.418256 A    
C21   C23   1.415578 A    
C14   C52   1.478431 S    
C1    C46   1.485480 S    
C13   C51   1.484606 S    
C7    O12   1.348241 S    
O28   H24   1.008353 S    
C8    O11   1.346299 S    
C64   O31   1.222574 D    
C30   C34   1.414445 A    
O24   H14   1.011457 S    
C47   C50   1.416058 A    
C60   O28   1.396824 S    
C14   C16   1.393110 A    
C15   C17   1.399588 A    
C65   O33   1.222046 D    
C6    C22   1.401565 A    
C22   C24   1.412365 A    
C16   C18   1.393922 A    
C55   O22   1.397950 S    
C32   C34   1.418310 A    
C19   C21   1.413143 A    
C3    C27   1.478429 S    
C57   H18   1.112421 S    
C20   C22   1.412080 A    
C9    C11   1.414733 A    
C42   C64   1.479457 S    
O4    Cu2   2.010749 S    
O2    Cu2   2.007733 S    
O7    C4    1.303727 A    
N7    C61   1.446251 S    
C39   H3    1.078724 S    
O8    C3    1.295907 A    
O14   H9    1.012984 S    
O5    Cu1   1.943196 S    
C6    O10   1.349845 S    
C26   C37   1.421354 A    
C38   C60   1.472371 S    
C58   H20   1.104782 S    
C57   H16   1.109641 S    
C63   O30   1.397352 S    
C47   N4    1.366099 A    
C59   O26   1.397804 S    
C54   O19   1.222348 D    
C60   O27   1.221504 D    
C23   C39   1.399612 A    
O26   H23   1.013868 S    
C44   C46   1.419246 A    
C31   C40   1.406220 A    
