data_mof_unit_47085.cif
_audit_creation_date              2012-12-10T18:22:12-0500
_audit_creation_method            fapswitch 2.2
_symmetry_space_group_name_H-M    P1
_symmetry_Int_Tables_number       1
_space_group_crystal_system       triclinic
_cell_length_a                    14.941783
_cell_length_b                    14.102546
_cell_length_c                    15.765658
_cell_angle_alpha                 90.170411
_cell_angle_beta                  89.594729
_cell_angle_gamma                 89.343037
_cell_volume                      3321.77804018

loop_
_atom_site_label
_atom_site_type_symbol
_atom_type_description
_atom_site_fract_x
_atom_site_fract_y
_atom_site_fract_z
_atom_type_partial_charge
C1    C     C_R   0.327334 0.500576 0.498257 0.916799
C2    C     C_R   0.906322 0.448761 0.556091 -0.000424
C3    C     C_R   0.953541 0.488482 0.486819 0.039679
C4    C     C_R   0.500959 0.499846 0.338534 0.928622
C5    C     C_R   0.906620 0.527412 0.416521 -0.032946
C6    C     C_R   0.952124 0.407562 0.624968 0.395954
C7    C     C_R   0.045731 0.406132 0.625391 -0.093870
C8    C     C_R   0.093141 0.454135 0.560363 -0.055497
C9    C     C_R   0.047219 0.489248 0.487999 -0.043806
C10   C     C_R   0.094895 0.527130 0.417791 -0.095432
C11   C     C_R   0.047259 0.563922 0.347213 0.405919
C12   C     C_3   0.598725 0.478130 0.946667 0.652105
C13   C     C_R   0.954649 0.552763 0.342382 -0.070292
C14   C     C_R   0.184585 0.472940 0.567673 0.338453
C15   C     C_R   0.231877 0.502053 0.495421 -0.175188
C16   C     C_R   0.672886 0.499400 0.497746 0.845265
C17   C     C_R   0.188961 0.523023 0.418685 -0.090481
C18   C     C_R   0.550218 0.797289 0.441298 0.067546
C19   C     C_R   0.549417 0.201068 0.440709 0.030498
C20   C     C_R   0.450939 0.799215 0.559778 0.036827
C21   C     C_R   0.451526 0.202287 0.560235 0.033462
C22   C     C_R   0.450018 0.899914 0.560492 0.041437
C23   C     C_3   0.599859 0.466601 0.048074 -0.201706
C24   C     C_R   0.450650 0.101623 0.560948 0.040523
C25   C     C_R   0.501400 0.949452 0.499964 -0.010145
C26   C     C_R   0.501845 0.050445 0.500290 -0.003540
C27   C     C_R   0.552253 0.897962 0.439575 -0.066939
C28   C     C_R   0.552003 0.100307 0.439381 -0.063168
C29   C     C_R   0.397605 0.952303 0.618970 -0.145498
C30   C     C_R   0.397977 0.050918 0.619246 -0.154576
C31   C     C_R   0.601868 0.049079 0.377580 0.329395
C32   C     C_R   0.604687 0.947500 0.379711 0.347660
C33   C     C_R   0.499458 0.500130 0.661558 0.879240
C34   C     C_1   0.498287 0.500079 0.825235 0.137238
C35   C     C_3   0.484118 0.603372 0.048936 -0.304842
C36   C     C_3   0.430523 0.428313 0.051128 -0.297669
C37   C     C_3   0.438585 0.418059 0.952464 -0.309434
C38   C     C_3   0.467313 0.598994 0.951473 -0.350553
C39   C     C_1   0.498545 0.500343 0.750134 -0.049544
C40   C     C_3   0.503743 0.500250 0.083292 0.027989
C41   C     C_3   0.499286 0.499301 0.916986 0.052801
C42   C     C_2   0.372366 0.624849 0.926320 0.439062
C43   C     C_2   0.351074 0.403860 0.905462 0.574739
C44   C     C_2   0.093044 0.348297 0.690611 0.648740
C45   C     C_1   0.503256 0.499799 0.175093 0.089873
C46   C     C_2   0.241749 0.529490 0.338310 0.386426
C47   C     C_2   0.910296 0.557439 0.257833 0.599635
C48   C     C_2   0.400015 0.746500 0.624346 0.465361
C49   C     C_2   0.400504 0.256389 0.624964 0.460388
C50   C     C_2   0.415858 0.662012 0.099303 0.492729
C51   C     C_2   0.336826 0.447774 0.085783 0.380829
C52   C     C_2   0.679096 0.521295 0.084804 0.470818
C53   C     C_2   0.616646 0.363145 0.074286 0.343165
C54   C     C_2   0.762285 0.607697 0.368437 0.423316
C55   C     C_1   0.502227 0.499603 0.250115 -0.068703
C56   C     C_R   0.813128 0.541394 0.424186 -0.103807
C57   C     C_R   0.768321 0.496814 0.491192 -0.099443
C58   C     C_R   0.813679 0.447311 0.553451 -0.195448
H1    H     H_    0.588725 0.755980 0.395709 0.203106
H2    H     H_    0.315638 0.597277 0.960986 0.053699
H3    H     H_    0.297947 0.456349 0.906910 0.082622
H4    H     H_    0.155359 0.312023 0.674491 0.063817
H5    H     H_    0.281833 0.501093 0.647059 0.327431
H6    H     H_    0.219660 0.491591 0.282354 0.119512
H7    H     H_    0.128474 0.660864 0.311743 0.356248
H8    H     H_    0.848978 0.518805 0.247185 0.025722
H9    H     H_    0.346478 0.699995 0.606112 0.082221
H10   H     H_    0.345627 0.302463 0.606999 0.094295
H11   H     H_    0.649440 0.060318 0.263120 0.365383
H12   H     H_    0.587155 0.241129 0.394542 0.203000
H13   H     H_    0.711644 0.933565 0.309868 0.367704
H14   H     H_    0.344775 0.649760 0.094560 0.056992
H15   H     H_    0.324604 0.502636 0.132518 0.076611
H16   H     H_    0.746002 0.505614 0.060881 0.116758
H17   H     H_    0.596498 0.304969 0.033819 0.137358
H18   H     H_    0.645548 0.609747 0.950566 0.321317
H19   H     H_    0.694135 0.387566 0.917582 0.364419
H20   H     H_    0.696220 0.589278 0.345989 0.080808
H21   H     H_    0.860386 0.411418 0.711466 0.347220
H22   H     H_    0.354725 0.917900 0.664744 0.187012
H23   H     H_    0.355323 0.086708 0.665194 0.184149
H24   H     H_    0.446500 0.357365 0.078188 0.181321
H25   H     H_    0.546637 0.644168 0.056317 0.227985
H26   H     H_    0.475762 0.350265 0.941129 0.224320
H27   H     H_    0.509296 0.654445 0.921292 0.218470
H28   H     H_    0.775003 0.411468 0.601821 0.174284
N1    N     N_R   0.500070 0.750030 0.500040 -0.161158
N2    N     N_R   0.500070 0.249970 0.500040 -0.159874
O1    O     O_R   0.367860 0.580280 0.500020 -0.611484
O2    O     O_2   0.338912 0.331133 0.865130 -0.482540
O3    O     O_2   0.063479 0.340706 0.762648 -0.470268
O4    O     O_3   0.225504 0.464873 0.646068 -0.788967
O5    O     O_2   0.307049 0.580283 0.332815 -0.558930
O6    O     O_3   0.088794 0.614540 0.283761 -0.696151
O7    O     O_2   0.941547 0.602866 0.199079 -0.451321
O8    O     O_2   0.417826 0.755198 0.699395 -0.512247
O9    O     O_2   0.419377 0.248839 0.699879 -0.507653
O10   O     O_3   0.645462 0.099702 0.315132 -0.746935
O11   O     O_3   0.658871 0.895247 0.325227 -0.715803
O12   O     O_R   0.367860 0.419720 0.500020 -0.656393
O13   O     O_2   0.440631 0.725789 0.145844 -0.493846
O14   O     O_2   0.275168 0.395152 0.068609 -0.516392
O15   O     O_2   0.670307 0.580762 0.140813 -0.557580
O16   O     O_2   0.647880 0.343475 0.143618 -0.536873
O17   O     O_3   0.655722 0.551086 0.917268 -0.754101
O18   O     O_3   0.628896 0.393726 0.906820 -0.759934
O19   O     O_2   0.792708 0.684977 0.349869 -0.493401
O20   O     O_3   0.906796 0.365714 0.691383 -0.692932
O21   O     O_R   0.500020 0.580310 0.377140 -0.582819
O22   O     O_R   0.500020 0.419690 0.377140 -0.629271
O23   O     O_R   0.632160 0.580270 0.499980 -0.622777
O24   O     O_R   0.632160 0.419730 0.499980 -0.609343
O25   O     O_R   0.500010 0.580240 0.622850 -0.610527
O26   O     O_R   0.500010 0.419760 0.622850 -0.600094
O27   O     O_2   0.358572 0.679163 0.867584 -0.484555
Zn1   Zn    Zn3+2 0.500020 0.607200 0.499990 1.005158
Zn2   Zn    Zn3+2 0.500020 0.392800 0.499990 0.975689

loop_
_geom_bond_atom_site_label_1
_geom_bond_atom_site_label_2
_ccdc_geom_bond_type
C4    O21   A    
C52   O15   D    
H18   O17   S    
C22   C29   A    
C5    C56   A    
C21   C49   S    
C23   C52   S    
C7    C8    A    
C53   H17   S    
C51   O14   D    
C46   O5    D    
C12   C23   S    
C43   H3    S    
C33   O26   A    
C12   C41   S    
C54   O19   D    
C36   C37   S    
C49   H10   S    
C24   C26   A    
C38   C42   S    
C52   H16   S    
O24   Zn2   S    
C10   C17   A    
C23   C40   S    
C20   N1    A    
C47   O7    D    
C56   C57   A    
O22   Zn2   S    
C31   O10   S    
C50   H14   S    
O21   Zn1   S    
C36   H24   S    
C8    C9    A    
C22   C25   A    
H5    O4    S    
C8    C14   A    
C37   H26   S    
O23   Zn1   S    
C1    C15   S    
C9    C10   A    
C47   H8    S    
C5    C13   A    
O25   Zn1   S    
H11   O10   S    
O1    Zn1   S    
C2    C6    A    
C34   C41   S    
C58   H28   S    
C1    O12   A    
C23   C53   S    
C40   C45   S    
C54   C56   S    
C43   O2    D    
C38   H27   S    
C34   C39   T    
C36   C40   S    
C35   C38   S    
C17   C46   S    
C38   C41   S    
C19   N2    A    
C42   H2    S    
C13   C47   S    
C35   H25   S    
C44   H4    S    
C25   C26   A    
H13   O11   S    
C46   H6    S    
C37   C43   S    
C29   C30   A    
C3    C9    A    
C18   H1    S    
C31   C32   A    
C35   C50   S    
C33   C39   S    
C7    C44   S    
C19   C28   A    
C36   C51   S    
C14   O4    S    
N1    Zn1   S    
C20   C48   S    
C44   O3    D    
C11   O6    S    
H7    O6    S    
C20   C22   A    
C4    C55   S    
C16   O24   A    
C15   C17   A    
C4    O22   A    
H19   O18   S    
C1    O1    A    
C48   O8    D    
C27   C32   A    
C33   O25   A    
C28   C31   A    
C18   C27   A    
C51   H15   S    
C3    C5    A    
C2    C58   A    
C6    C7    A    
C25   C27   A    
C26   C28   A    
C18   N1    A    
C32   O11   S    
C30   H23   S    
C2    C3    A    
C12   O18   S    
C11   C13   A    
C57   C58   A    
C12   O17   S    
C29   H22   S    
H21   O20   S    
C35   C40   S    
C16   C57   S    
C48   H9    S    
C37   C41   S    
C24   C30   A    
C21   N2    A    
O26   Zn2   S    
C10   C11   A    
C49   O9    D    
C42   O27   D    
C45   C55   T    
C50   O13   D    
C21   C24   A    
C6    O20   S    
C14   C15   A    
C19   H12   S    
O12   Zn2   S    
C53   O16   D    
N2    Zn2   S    
C16   O23   A    
C54   H20   S    
