data_mof_unit_29228.cif
_audit_creation_date              2012-12-11T15:22:20-0500
_audit_creation_method            fapswitch 2.2
_symmetry_space_group_name_H-M    P1
_symmetry_Int_Tables_number       1
_space_group_crystal_system       triclinic
_cell_length_a                    22.281649
_cell_length_b                    12.964484
_cell_length_c                    26.886339
_cell_angle_alpha                 89.737494
_cell_angle_beta                  89.803214
_cell_angle_gamma                 90.208822
_cell_volume                      7766.47959666

loop_
_atom_site_label
_atom_site_type_symbol
_atom_type_description
_atom_site_fract_x
_atom_site_fract_y
_atom_site_fract_z
_atom_type_partial_charge
C1    C     C_R   0.721515 0.346419 0.178374 0.536440
C2    C     C_R   0.480317 0.255242 0.896731 -0.141924
C3    C     C_R   0.032277 0.579647 0.564715 -0.132683
C4    C     C_R   0.590570 0.238182 0.408609 -0.168938
C5    C     C_R   0.508009 0.078892 0.612344 -0.145172
C6    C     C_R   0.090967 0.737712 0.408680 -0.163292
C7    C     C_R   0.007827 0.578727 0.612274 -0.145118
C8    C     C_R   0.735521 0.966375 0.374536 0.038195
C9    C     C_R   0.264022 0.966989 0.625904 0.039040
C10   C     C_R   0.235512 0.466459 0.374555 0.037528
C11   C     C_R   0.764218 0.467207 0.625880 0.039083
C12   C     C_R   0.682792 0.976495 0.402947 -0.157533
C13   C     C_R   0.020546 0.755818 0.102882 -0.143825
C14   C     C_R   0.315756 0.982216 0.596613 -0.154462
C15   C     C_R   0.182773 0.476563 0.402954 -0.157475
C16   C     C_R   0.815894 0.483330 0.596617 -0.154647
C17   C     C_R   0.684624 0.972725 0.454011 -0.092589
C18   C     C_R   0.313207 0.973993 0.545708 -0.096332
C19   C     C_R   0.184597 0.472896 0.454021 -0.092580
C20   C     C_R   0.813482 0.474830 0.545721 -0.096276
C21   C     C_R   0.738657 0.952849 0.477836 0.045100
C22   C     C_R   0.259310 0.947722 0.523085 0.048747
C23   C     C_R   0.238633 0.453129 0.477864 0.044977
C24   C     C_R   0.980317 0.755243 0.896731 -0.141915
C25   C     C_R   0.759790 0.447437 0.523090 0.049832
C26   C     C_R   0.791412 0.937810 0.450193 -0.153206
C27   C     C_R   0.207489 0.929795 0.551608 -0.148912
C28   C     C_R   0.291403 0.438134 0.450235 -0.153380
C29   C     C_R   0.708048 0.428604 0.551605 -0.149250
C30   C     C_R   0.790605 0.944169 0.398238 -0.001954
C31   C     C_R   0.209150 0.938410 0.603404 -0.000720
C32   C     C_R   0.290603 0.444391 0.398278 -0.001700
C33   C     C_R   0.709562 0.437530 0.603385 -0.000956
C34   C     C_R   0.781004 0.998076 0.559084 -0.137439
C35   C     C_R   0.508614 0.257249 0.051756 0.009438
C36   C     C_R   0.216832 0.992173 0.441803 -0.146221
C37   C     C_R   0.280929 0.498310 0.559140 -0.137409
C38   C     C_R   0.716372 0.490925 0.442119 -0.161460
C39   C     C_R   0.721890 0.348914 0.321347 0.554647
C40   C     C_R   0.277975 0.349596 0.678820 0.557829
C41   C     C_R   0.221923 0.848930 0.321337 0.543174
C42   C     C_R   0.777973 0.849602 0.678823 0.557883
C43   C     C_R   0.789338 0.977429 0.609504 0.070488
C44   C     C_R   0.209710 0.973741 0.391150 0.066312
C45   C     C_R   0.289278 0.477558 0.609549 0.070515
C46   C     C_R   0.492119 0.256885 0.947873 0.010919
C47   C     C_R   0.708803 0.471888 0.391707 0.061864
C48   C     C_R   0.706979 0.851756 0.606114 0.069488
C49   C     C_R   0.291063 0.847083 0.395341 0.065910
C50   C     C_R   0.207006 0.351725 0.606089 0.069444
C51   C     C_R   0.791748 0.348576 0.394953 0.064066
C52   C     C_R   0.700245 0.872014 0.555461 0.141123
C53   C     C_R   0.296944 0.865993 0.446120 0.138677
C54   C     C_R   0.200254 0.372099 0.555449 0.141072
C55   C     C_R   0.797979 0.367554 0.445741 0.138913
C56   C     C_R   0.739309 0.941734 0.531730 0.020366
C57   C     C_R   0.008614 0.757249 0.051755 0.009431
C58   C     C_R   0.257900 0.935223 0.469430 0.017123
C59   C     C_R   0.239268 0.441957 0.531756 0.020325
C60   C     C_R   0.758362 0.435385 0.469418 0.020555
C61   C     C_R   0.755898 0.896843 0.632337 0.029794
C62   C     C_R   0.243291 0.893980 0.368421 0.025632
C63   C     C_R   0.255890 0.396858 0.632340 0.029730
C64   C     C_R   0.743136 0.393928 0.368454 0.042842
C65   C     C_R   0.578330 0.155268 0.327133 0.560739
C66   C     C_R   0.447288 0.159413 0.678803 0.537168
C67   C     C_R   0.078380 0.655266 0.327128 0.561166
C68   C     C_R   0.992120 0.756885 0.947873 0.010925
C69   C     C_R   0.947292 0.659403 0.678802 0.536971
C70   C     C_R   0.731410 0.001741 0.323178 0.594466
C71   C     C_R   0.268477 0.002058 0.676998 0.603034
C72   C     C_R   0.231407 0.501756 0.323185 0.593192
C73   C     C_R   0.768502 0.502082 0.676997 0.603584
C74   C     C_R   0.505554 0.069198 0.104539 0.105505
C75   C     C_R   0.492311 0.068118 0.896485 0.105656
C76   C     C_R   0.005555 0.569198 0.104539 0.105585
C77   C     C_R   0.992312 0.568118 0.896485 0.105648
C78   C     C_R   0.501024 0.069042 0.052701 0.049833
C79   C     C_R   0.502217 0.163153 0.026236 0.023660
C80   C     C_R   0.496759 0.068481 0.948328 0.049555
C81   C     C_R   0.001025 0.569042 0.052700 0.049829
C82   C     C_R   0.996760 0.568481 0.948328 0.049558
C83   C     C_R   0.498240 0.975363 0.975097 -0.054963
C84   C     C_R   0.498157 0.975671 0.026627 -0.057339
C85   C     C_R   0.998241 0.475363 0.975096 -0.054951
C86   C     C_R   0.998159 0.475671 0.026627 -0.057321
C87   C     C_2   0.847373 0.924983 0.370859 0.236487
C88   C     C_2   0.153465 0.915232 0.631836 0.228481
C89   C     C_2   0.347388 0.425237 0.370918 0.234632
C90   C     C_R   0.496994 0.162921 0.974092 0.023028
C91   C     C_2   0.653967 0.413574 0.631795 0.228195
C92   C     C_2   0.782018 0.856689 0.137736 0.262855
C93   C     C_2   0.214480 0.860400 0.863825 0.257651
C94   C     C_2   0.281997 0.356666 0.137741 0.261443
C95   C     C_2   0.714490 0.360387 0.863820 0.257673
C96   C     C_2   0.644499 0.823585 0.968923 0.239108
C97   C     C_2   0.353865 0.822531 0.030635 0.236257
C98   C     C_2   0.144496 0.323588 0.968921 0.239093
C99   C     C_2   0.853871 0.322532 0.030638 0.236327
C100  C     C_2   0.807402 0.099849 0.957585 0.238757
C101  C     C_R   0.002218 0.663153 0.026236 0.023651
C102  C     C_2   0.196606 0.105850 0.043346 0.240031
C103  C     C_2   0.307414 0.599829 0.957591 0.238750
C104  C     C_2   0.696594 0.605824 0.043336 0.240106
C105  C     C_R   0.278521 0.346161 0.821679 0.533621
C106  C     C_R   0.996995 0.662921 0.974091 0.023039
C107  C     C_R   0.505920 0.350579 0.025181 -0.115347
C108  C     C_R   0.496279 0.350423 0.973761 -0.113613
C109  C     C_R   0.005920 0.850579 0.025181 -0.115317
C110  C     C_R   0.996279 0.850423 0.973761 -0.113603
C111  C     C_R   0.722600 0.019618 0.121259 -0.009013
C112  C     C_R   0.277784 0.020151 0.878690 -0.007928
C113  C     C_R   0.222601 0.519615 0.121260 -0.008936
C114  C     C_R   0.777784 0.520147 0.878689 -0.007930
C115  C     C_R   0.752258 0.930618 0.103452 0.028526
C116  C     C_R   0.221516 0.846422 0.178375 0.533892
C117  C     C_R   0.246114 0.933277 0.897345 0.027849
C118  C     C_R   0.252248 0.430604 0.103455 0.028894
C119  C     C_R   0.746119 0.433266 0.897342 0.027845
C120  C     C_R   0.752711 0.911818 0.052018 -0.042808
C121  C     C_R   0.245607 0.915383 0.948903 -0.045523
C122  C     C_R   0.252702 0.411802 0.052021 -0.042736
C123  C     C_R   0.745613 0.415368 0.948900 -0.045554
C124  C     C_R   0.723745 0.978898 0.018941 0.028069
C125  C     C_R   0.276509 0.981175 0.981239 0.027350
C126  C     C_R   0.223746 0.478891 0.018943 0.028010
C127  C     C_R   0.778521 0.846161 0.821679 0.533623
C128  C     C_R   0.776511 0.481163 0.981237 0.027366
C129  C     C_R   0.693267 0.065082 0.037027 -0.098762
C130  C     C_R   0.308896 0.065228 0.962343 -0.098657
C131  C     C_R   0.193276 0.565086 0.037026 -0.098839
C132  C     C_R   0.808893 0.565223 0.962342 -0.098615
C133  C     C_R   0.552681 0.157005 0.177916 0.546781
C134  C     C_R   0.447198 0.156837 0.822167 0.536953
C135  C     C_R   0.052681 0.657005 0.177915 0.547252
C136  C     C_R   0.947198 0.656837 0.822167 0.536952
C137  C     C_R   0.692828 0.085279 0.087888 -0.149684
C138  C     C_R   0.477174 0.160957 0.871111 0.007979
C139  C     C_R   0.309371 0.084605 0.911340 -0.147559
C140  C     C_R   0.192838 0.585286 0.087887 -0.149707
C141  C     C_R   0.809367 0.584604 0.911340 -0.147581
C142  C     C_R   0.694339 0.878594 0.942987 0.012490
C143  C     C_R   0.305356 0.879170 0.056946 0.012763
C144  C     C_R   0.194339 0.378593 0.942987 0.012494
C145  C     C_R   0.805358 0.379166 0.056946 0.012805
C146  C     C_R   0.709055 0.846052 0.894826 -0.167200
C147  C     C_R   0.290482 0.846155 0.105118 -0.166225
C148  C     C_R   0.209054 0.346053 0.894826 -0.167197
C149  C     C_R   0.522331 0.161735 0.129156 0.008349
C150  C     C_R   0.790483 0.346154 0.105118 -0.166335
C151  C     C_R   0.785512 0.978230 0.888402 -0.080820
C152  C     C_R   0.216263 0.980930 0.112100 -0.078336
C153  C     C_R   0.285516 0.478223 0.888405 -0.080839
C154  C     C_R   0.716256 0.480916 0.112094 -0.077237
C155  C     C_R   0.772351 0.012341 0.936616 0.001946
C156  C     C_R   0.229852 0.015949 0.063936 0.004297
C157  C     C_R   0.272358 0.512330 0.936619 0.001946
C158  C     C_R   0.729846 0.515933 0.063930 0.004039
C159  C     C_R   0.728082 0.959503 0.965012 -0.000683
C160  C     C_R   0.977174 0.660957 0.871111 0.007973
C161  C     C_R   0.272835 0.961843 0.035225 -0.000973
C162  C     C_R   0.228085 0.459496 0.965014 -0.000675
C163  C     C_R   0.772834 0.461831 0.035222 -0.001029
C164  C     C_R   0.755955 0.892776 0.868114 -0.018045
C165  C     C_R   0.244440 0.893764 0.132029 -0.018395
C166  C     C_R   0.255956 0.392775 0.868115 -0.018051
C167  C     C_R   0.744439 0.393758 0.132027 -0.018037
C168  C     C_R   0.561423 0.163185 0.379855 0.053645
C169  C     C_R   0.484463 0.169507 0.633272 0.027234
C170  C     C_R   0.061506 0.663191 0.379856 0.052380
C171  C     C_R   0.022332 0.661735 0.129156 0.008581
C172  C     C_R   0.984465 0.669427 0.633263 0.027133
C173  C     C_R   0.522339 0.091638 0.403272 0.092813
C174  C     C_R   0.492285 0.264507 0.607198 0.083142
C175  C     C_R   0.022101 0.592075 0.403198 0.092825
C176  C     C_R   0.992466 0.764443 0.607242 0.083278
C177  C     C_R   0.514909 0.094652 0.454792 -0.120751
C178  C     C_R   0.517332 0.264185 0.559539 -0.073029
C179  C     C_R   0.014636 0.595034 0.454717 -0.120721
C180  C     C_R   0.017525 0.764097 0.559583 -0.072460
C181  C     C_R   0.719401 0.045830 0.174173 0.533537
C182  C     C_R   0.520546 0.255818 0.102883 -0.143999
C183  C     C_R   0.280750 0.045828 0.825648 0.533961
C184  C     C_R   0.219401 0.545830 0.174173 0.533852
C185  C     C_R   0.780750 0.545827 0.825648 0.533972
C186  C     C_R   0.545427 0.167990 0.483388 0.004304
C187  C     C_R   0.534299 0.171503 0.537199 0.002630
C188  C     C_R   0.045439 0.667904 0.483380 0.002902
C189  C     C_R   0.034302 0.671366 0.537188 0.002471
C190  C     C_R   0.582584 0.240783 0.459962 -0.134273
C191  C     C_R   0.532475 0.079842 0.564789 -0.132740
C192  C     C_R   0.082948 0.740260 0.460033 -0.131791
Cr1   Cr    Cr6+3 0.756570 0.170940 0.251190 1.025015
Cr2   Cr    Cr6+3 0.374010 0.036240 0.749520 1.027384
Cr3   Cr    Cr6+3 0.125990 0.536240 0.250480 1.036585
Cr4   Cr    Cr6+3 0.874010 0.536240 0.749520 1.027512
Cr5   Cr    Cr6+3 0.243430 0.170940 0.748810 1.027832
Cr6   Cr    Cr6+3 0.256570 0.670940 0.251190 1.023856
Cr7   Cr    Cr6+3 0.743430 0.670940 0.748810 1.027696
Cr8   Cr    Cr6+3 0.623740 0.299110 0.249580 1.046325
Cr9   Cr    Cr6+3 0.376260 0.299110 0.750420 1.029389
Cr10  Cr    Cr6+3 0.123740 0.799110 0.249580 1.047301
Cr11  Cr    Cr6+3 0.876260 0.799110 0.750420 1.029449
Cr12  Cr    Cr6+3 0.625990 0.036240 0.250480 1.038039
H1    H     H_    0.820982 0.015654 0.867284 0.182849
H2    H     H_    0.334247 0.150595 0.897225 0.103133
H3    H     H_    0.850445 0.313145 0.339211 0.254178
H4    H     H_    0.889702 0.925431 0.390744 0.103012
H5    H     H_    0.110907 0.909974 0.612457 0.112755
H6    H     H_    0.389714 0.425830 0.390805 0.100865
H7    H     H_    0.611496 0.407195 0.612361 0.112466
H8    H     H_    0.780538 0.868000 0.177637 0.159600
H9    H     H_    0.216674 0.870044 0.823796 0.158848
H10   H     H_    0.280517 0.367981 0.177641 0.158393
H11   H     H_    0.716681 0.370038 0.823792 0.158929
H12   H     H_    0.624592 0.755702 0.952070 0.102248
H13   H     H_    0.169381 0.652827 0.101329 0.102009
H14   H     H_    0.373220 0.754276 0.047652 0.102401
H15   H     H_    0.124587 0.255708 0.952067 0.102267
H16   H     H_    0.873229 0.254281 0.047657 0.102400
H17   H     H_    0.800134 0.125227 0.995448 0.099453
H18   H     H_    0.204504 0.132409 0.005620 0.097609
H19   H     H_    0.300150 0.625200 0.995456 0.099480
H20   H     H_    0.704491 0.632379 0.005610 0.097530
H21   H     H_    0.834239 0.650599 0.897226 0.103128
H22   H     H_    0.546927 0.007814 0.548420 0.112270
H23   H     H_    0.606028 0.298543 0.481427 0.108885
H24   H     H_    0.046566 0.507574 0.548295 0.112455
H25   H     H_    0.106643 0.797609 0.481565 0.111785
H26   H     H_    0.504475 0.005477 0.631539 0.140792
H27   H     H_    0.621044 0.293005 0.391458 0.132392
H28   H     H_    0.004150 0.505277 0.631420 0.140984
H29   H     H_    0.181598 0.019103 0.133472 0.183090
H30   H     H_    0.121701 0.792188 0.391585 0.143178
H31   H     H_    0.484335 0.040328 0.472401 0.105206
H32   H     H_    0.519312 0.335732 0.538571 0.123624
H33   H     H_    0.983821 0.541046 0.472276 0.105639
H34   H     H_    0.019667 0.835681 0.538654 0.124941
H35   H     H_    0.640144 0.993926 0.385881 0.136832
H36   H     H_    0.357928 0.006762 0.612766 0.139387
H37   H     H_    0.140117 0.493889 0.385876 0.136625
H38   H     H_    0.857879 0.508758 0.612787 0.139340
H39   H     H_    0.808597 0.055665 0.540518 0.117004
H40   H     H_    0.320988 0.515643 0.867288 0.182839
H41   H     H_    0.189254 0.049323 0.460199 0.116978
H42   H     H_    0.308490 0.555983 0.540603 0.116773
H43   H     H_    0.688002 0.547090 0.460417 0.118563
H44   H     H_    0.497272 0.901443 0.956520 0.186425
H45   H     H_    0.498093 0.901977 0.045752 0.182640
H46   H     H_    0.997274 0.401443 0.956520 0.186423
H47   H     H_    0.998095 0.401977 0.045751 0.182611
H48   H     H_    0.643781 0.986024 0.474997 0.140956
H49   H     H_    0.353197 0.989593 0.523819 0.130659
H50   H     H_    0.143741 0.486148 0.474997 0.140919
H51   H     H_    0.681587 0.519085 0.133464 0.184264
H52   H     H_    0.853377 0.491272 0.523853 0.131501
H53   H     H_    0.832899 0.919685 0.469259 0.099275
H54   H     H_    0.166100 0.907936 0.533389 0.084449
H55   H     H_    0.332894 0.420090 0.469314 0.098769
H56   H     H_    0.666810 0.405935 0.533382 0.083155
H57   H     H_    0.470896 0.326943 0.877425 0.139169
H58   H     H_    0.531237 0.327389 0.121632 0.139645
H59   H     H_    0.970896 0.826944 0.877425 0.139178
H60   H     H_    0.031237 0.827389 0.121632 0.139686
H61   H     H_    0.492741 0.423366 0.954176 0.130523
H62   H     H_    0.670652 0.117150 0.011703 0.136477
H63   H     H_    0.510650 0.423619 0.044225 0.130071
H64   H     H_    0.992741 0.923366 0.954176 0.130522
H65   H     H_    0.010649 0.923619 0.044224 0.130057
H66   H     H_    0.685415 0.780900 0.878920 0.122463
H67   H     H_    0.313115 0.779707 0.120798 0.123417
H68   H     H_    0.185412 0.280906 0.878918 0.122471
H69   H     H_    0.813121 0.279712 0.120801 0.123386
H70   H     H_    0.775784 0.845008 0.037319 0.150159
H71   H     H_    0.221175 0.850074 0.964266 0.150172
H72   H     H_    0.275768 0.344983 0.037324 0.150219
H73   H     H_    0.333077 0.116152 0.987120 0.134475
H74   H     H_    0.721184 0.350054 0.964261 0.150139
H75   H     H_    0.461129 0.937766 0.862541 0.276168
H76   H     H_    0.527496 0.985962 0.838523 0.255599
H77   H     H_    0.534587 0.937854 0.139095 0.274893
H78   H     H_    0.469757 0.989512 0.163543 0.259792
H79   H     H_    0.961130 0.437766 0.862540 0.276174
H80   H     H_    0.027497 0.485963 0.838523 0.255606
H81   H     H_    0.034588 0.437854 0.139094 0.274658
H82   H     H_    0.969758 0.489511 0.163542 0.260300
H83   H     H_    0.443788 0.027489 0.381930 0.234822
H84   H     H_    0.170669 0.617161 0.011701 0.136506
H85   H     H_    0.501074 0.943402 0.388387 0.225185
H86   H     H_    0.425956 0.360771 0.629660 0.280427
H87   H     H_    0.492379 0.373569 0.661134 0.262342
H88   H     H_    0.943299 0.529013 0.381755 0.236261
H89   H     H_    0.000203 0.444174 0.388185 0.225453
H90   H     H_    0.926320 0.861017 0.629758 0.280445
H91   H     H_    0.992747 0.873322 0.661261 0.262385
H92   H     H_    0.855484 0.088264 0.613989 0.229831
H93   H     H_    0.809695 0.078981 0.663414 0.241981
H94   H     H_    0.144514 0.085421 0.386129 0.226484
H95   H     H_    0.833071 0.616149 0.987121 0.134525
H96   H     H_    0.191478 0.077774 0.337466 0.243432
H97   H     H_    0.355355 0.588502 0.614092 0.229799
H98   H     H_    0.309575 0.579018 0.663514 0.241968
H99   H     H_    0.623068 0.518106 0.381960 0.229553
H100  H     H_    0.675592 0.608070 0.367687 0.239863
H101  H     H_    0.665512 0.736748 0.530830 0.245584
H102  H     H_    0.614072 0.830136 0.542003 0.242513
H103  H     H_    0.331128 0.730673 0.471191 0.243932
H104  H     H_    0.382836 0.824724 0.460534 0.243022
H105  H     H_    0.165620 0.236819 0.530739 0.245496
H106  H     H_    0.669364 0.152811 0.101331 0.101799
H107  H     H_    0.114111 0.330067 0.541969 0.242828
H108  H     H_    0.834007 0.233385 0.470422 0.244243
H109  H     H_    0.884488 0.329226 0.459452 0.243303
H110  H     H_    0.684932 0.710434 0.634551 0.272646
H111  H     H_    0.649078 0.813206 0.662259 0.248107
H112  H     H_    0.312226 0.706455 0.366724 0.271890
H113  H     H_    0.350066 0.809392 0.340156 0.253651
H114  H     H_    0.185099 0.210286 0.634462 0.272573
H115  H     H_    0.149102 0.312894 0.662188 0.248216
H116  H     H_    0.814174 0.208839 0.365965 0.271105
N1    N     N_3   0.502264 0.972552 0.870789 -0.630501
N2    N     N_3   0.167142 0.033447 0.363161 -0.584140
N3    N     N_3   0.332952 0.535679 0.637141 -0.591505
N4    N     N_3   0.664752 0.529783 0.364794 -0.583759
N5    N     N_3   0.656626 0.815572 0.527161 -0.632725
N6    N     N_3   0.340043 0.809513 0.474940 -0.629427
N7    N     N_3   0.156675 0.315632 0.527118 -0.632631
N8    N     N_3   0.842042 0.312496 0.474180 -0.629889
N9    N     N_3   0.664744 0.782047 0.628872 -0.641091
N10   N     N_3   0.333115 0.777336 0.373097 -0.641198
N11   N     N_3   0.164833 0.281838 0.628800 -0.640971
N12   N     N_3   0.494040 0.974463 0.131043 -0.629691
N13   N     N_3   0.834330 0.280380 0.372276 -0.641190
N14   N     N_3   0.002265 0.472553 0.870788 -0.630494
N15   N     N_3   0.994041 0.474462 0.131043 -0.629545
N16   N     N_3   0.489580 0.016674 0.375158 -0.583604
N17   N     N_3   0.472684 0.361645 0.626393 -0.630231
N18   N     N_3   0.989045 0.517632 0.375003 -0.582443
N19   N     N_3   0.973050 0.861635 0.626501 -0.630219
N20   N     N_3   0.833046 0.035536 0.637065 -0.591493
O1    O     O_R   0.769900 0.064540 0.196060 -0.511074
O2    O     O_R   0.433710 0.069580 0.694600 -0.525149
O3    O     O_R   0.066290 0.569580 0.305400 -0.470271
O4    O     O_R   0.933710 0.569580 0.694600 -0.525174
O5    O     O_R   0.680760 0.993330 0.302620 -0.523238
O6    O     O_R   0.319240 0.993330 0.697380 -0.507394
O7    O     O_R   0.180760 0.493330 0.302620 -0.524160
O8    O     O_R   0.819240 0.493330 0.697380 -0.507324
O9    O     O_3   0.668770 0.168760 0.250420 -0.295797
O10   O     O_3   0.331230 0.168760 0.749580 -0.268178
O11   O     O_3   0.168770 0.668760 0.250420 -0.295047
O12   O     O_R   0.230100 0.064540 0.803940 -0.514107
O13   O     O_3   0.831230 0.668760 0.749580 -0.268252
O14   O     O_R   0.750800 0.274080 0.199250 -0.510977
O15   O     O_R   0.249200 0.274080 0.800750 -0.513727
O16   O     O_R   0.250800 0.774080 0.199250 -0.511047
O17   O     O_R   0.749200 0.774080 0.800750 -0.513740
O18   O     O_R   0.669990 0.371670 0.194150 -0.512882
O19   O     O_R   0.330010 0.371670 0.805850 -0.516526
O20   O     O_R   0.169990 0.871670 0.194150 -0.515282
O21   O     O_R   0.830010 0.871670 0.805850 -0.516518
O22   O     O_R   0.574600 0.238480 0.197800 -0.495773
O23   O     O_R   0.269900 0.564540 0.196060 -0.511088
O24   O     O_R   0.425400 0.238480 0.802200 -0.500937
O25   O     O_R   0.074600 0.738480 0.197800 -0.495394
O26   O     O_R   0.925400 0.738480 0.802200 -0.500927
O27   O     O_R   0.566130 0.068680 0.194240 -0.521632
O28   O     O_R   0.433870 0.068680 0.805760 -0.525516
O29   O     O_R   0.066130 0.568680 0.194240 -0.521668
O30   O     O_R   0.933870 0.568680 0.805760 -0.525504
O31   O     O_R   0.680610 0.992490 0.199570 -0.487264
O32   O     O_R   0.319390 0.992490 0.800430 -0.487594
O33   O     O_R   0.180610 0.492490 0.199570 -0.488225
O34   O     O_R   0.730100 0.564540 0.803940 -0.514148
O35   O     O_R   0.819390 0.492490 0.800430 -0.487557
O36   O     O_R   0.770060 0.065440 0.307230 -0.481832
O37   O     O_R   0.229940 0.065440 0.692770 -0.483125
O38   O     O_R   0.270060 0.565440 0.307230 -0.481746
O39   O     O_R   0.729940 0.565440 0.692770 -0.483238
O40   O     O_R   0.750960 0.274920 0.302300 -0.527406
O41   O     O_R   0.249040 0.274920 0.697700 -0.522307
O42   O     O_R   0.250960 0.774920 0.302300 -0.524771
O43   O     O_R   0.749040 0.774920 0.697700 -0.522348
O44   O     O_R   0.670160 0.372580 0.305320 -0.477164
O45   O     O_R   0.574760 0.239320 0.300850 -0.485081
O46   O     O_R   0.329840 0.372580 0.694680 -0.479172
O47   O     O_R   0.170160 0.872580 0.305320 -0.479171
O48   O     O_R   0.829840 0.872580 0.694680 -0.479071
O49   O     O_2   0.847649 0.904775 0.326558 -0.472793
O50   O     O_2   0.154414 0.898209 0.676516 -0.485847
O51   O     O_2   0.347683 0.404890 0.326631 -0.475571
O52   O     O_2   0.654907 0.397203 0.676530 -0.485956
O53   O     O_2   0.808491 0.781350 0.121782 -0.505580
O54   O     O_2   0.185650 0.787751 0.880573 -0.510041
O55   O     O_2   0.308461 0.281316 0.121790 -0.506639
O56   O     O_R   0.425240 0.239320 0.699150 -0.501783
O57   O     O_2   0.685666 0.287728 0.880567 -0.510026
O58   O     O_2   0.624144 0.853511 0.008479 -0.476143
O59   O     O_2   0.373686 0.851361 0.990537 -0.477554
O60   O     O_2   0.124142 0.353513 0.008478 -0.476234
O61   O     O_2   0.873692 0.351358 0.990540 -0.477553
O62   O     O_2   0.845055 0.145333 0.932598 -0.473729
O63   O     O_2   0.159870 0.152128 0.068525 -0.471590
O64   O     O_2   0.345068 0.645313 0.932605 -0.473748
O65   O     O_2   0.659853 0.652096 0.068512 -0.471035
O66   O     O_R   0.074760 0.739320 0.300850 -0.480716
O67   O     O_R   0.925240 0.739320 0.699150 -0.501737
O68   O     O_R   0.566290 0.069580 0.305400 -0.469980

loop_
_geom_bond_atom_site_label_1
_geom_bond_atom_site_label_2
_ccdc_geom_bond_type
C21   C26   A    
C51   N13   S    
Cr1   O1    S    
C36   H41   S    
C132  H95   S    
C153  C166  A    
C142  C146  A    
Cr3   O3    S    
H79   N14   S    
C135  O29   A    
C152  C165  A    
Cr3   O29   S    
C177  H31   S    
Cr10  O47   S    
C34   C56   A    
C111  C137  A    
C42   O43   A    
C154  C158  A    
C173  N16   S    
C3    C189  A    
C113  C184  S    
C1    C167  S    
C182  H58   S    
C29   C33   A    
C47   N4    S    
C134  O24   A    
C79   C90   A    
C181  O1    A    
C39   O44   A    
Cr2   O28   S    
C71   O37   A    
C57   C109  A    
C152  C156  A    
C73   O8    A    
Cr4   O30   S    
H97   N3    S    
C169  C174  A    
C25   C60   S    
C151  C155  A    
C81   C86   A    
C55   C60   A    
C84   H45   S    
C88   O50   D    
C50   N11   S    
Cr7   O13   S    
C71   O6    A    
C80   C83   A    
C40   O41   A    
Cr7   O39   S    
C154  H51   S    
Cr4   O35   S    
C25   C29   A    
C192  H25   S    
C94   H10   S    
C183  O32   A    
C54   N7    S    
C27   C31   A    
C2    C138  A    
C28   C32   A    
C47   C64   A    
C103  C157  S    
C42   O48   A    
C179  C188  A    
C157  C162  A    
C95   C119  S    
C1    O18   A    
C17   C21   A    
C177  C186  A    
C4    C168  A    
C69   C172  S    
C186  C190  A    
C19   C23   A    
C89   O51   D    
C139  H2    S    
C44   N2    S    
C136  O30   A    
C16   C20   A    
C28   H55   S    
C66   O56   A    
C68   C110  A    
C40   C63   S    
C100  C155  S    
C22   C27   A    
C149  C182  A    
Cr12  O9    S    
C154  C167  A    
C36   C44   A    
C37   C45   A    
C43   C61   A    
C86   H47   S    
Cr9   O24   S    
C49   C62   A    
C98   C144  S    
C34   H39   S    
Cr4   O13   S    
C51   C64   A    
C100  O62   D    
C75   C138  A    
C22   C58   S    
C53   C58   A    
C120  H70   S    
C119  C123  A    
C82   C85   A    
Cr6   O38   S    
C17   H48   S    
C96   H12   S    
H98   N3    S    
C178  H32   S    
C43   N20   S    
C131  H84   S    
C26   H53   S    
C52   C56   A    
C77   C82   A    
C49   C53   A    
C103  O64   D    
Cr11  O21   S    
C51   C55   A    
C35   C107  A    
C69   O67   A    
C48   C52   A    
C129  C137  A    
C99   H16   S    
C97   H14   S    
C186  C187  S    
C3    H24   S    
C143  C161  A    
C129  H62   S    
C183  O12   A    
C16   H38   S    
C104  O65   D    
C127  C164  S    
H90   N19   S    
H116  N13   S    
H96   N2    S    
C111  C181  S    
H87   N17   S    
C81   C101  A    
C85   C86   A    
C23   C59   S    
C65   C168  S    
C114  C185  S    
Cr8   O18   S    
C100  H17   S    
Cr4   O8    S    
Cr1   O36   S    
C180  C189  A    
C105  O15   A    
C13   C57   A    
Cr9   O19   S    
C105  C166  S    
C118  C122  A    
C40   O46   A    
C137  H106  S    
C147  C165  A    
C48   N9    S    
H88   N18   S    
C185  O34   A    
H108  N8    S    
C46   C108  A    
H78   N12   S    
C107  C108  A    
C131  C140  A    
H103  N6    S    
C173  C177  A    
H80   N14   S    
C184  O33   A    
C67   O3    A    
C145  C150  A    
Cr2   O10   S    
C103  H19   S    
C6    H30   S    
H101  N5    S    
C50   C63   A    
C93   C117  S    
C13   H60   S    
C54   C59   A    
C155  C159  A    
C114  C141  A    
C4    C190  A    
C11   C33   A    
C5    C191  A    
C91   H7    S    
Cr1   O40   S    
C49   N10   S    
C145  C163  A    
H3    N13   S    
C146  C164  A    
C66   O2    A    
C87   O49   D    
C83   C84   A    
C76   N15   S    
C180  H34   S    
Cr12  O5    S    
C8    C12   A    
C99   C145  S    
Cr1   O9    S    
Cr7   O17   S    
Cr5   O41   S    
C23   C28   A    
C151  H1    S    
Cr3   O11   S    
Cr7   O43   S    
C37   C59   A    
C158  C163  A    
C38   C60   A    
C83   H44   S    
C156  C161  A    
C26   C30   A    
C133  O22   A    
H114  N11   S    
C92   H8    S    
C102  C156  S    
Cr5   O10   S    
C6    C170  A    
C101  C106  A    
H111  N9    S    
C97   O59   D    
C18   C22   A    
C34   C43   A    
C104  C158  S    
C127  O17   A    
C136  O26   A    
C57   C101  A    
C8    C70   S    
C55   N8    S    
C188  C192  A    
C130  H73   S    
C30   C87   S    
C95   O57   D    
C14   H36   S    
C94   O55   D    
C94   C118  S    
C116  O16   A    
C92   O53   D    
C75   N1    S    
C24   H59   S    
H112  N10   S    
C181  O31   A    
C82   C106  A    
C87   H4    S    
H104  N6    S    
C136  C160  S    
C140  H13   S    
C176  C180  A    
Cr10  O20   S    
C151  C164  A    
H94   N2    S    
C5    H26   S    
Cr11  O26   S    
C7    C172  A    
C104  H20   S    
H107  N7    S    
C172  C176  A    
H110  N9    S    
C10   C72   S    
Cr2   O2    S    
C15   H37   S    
C148  C166  A    
C66   C169  S    
C176  N19   S    
C142  C159  A    
C110  H64   S    
C15   C19   A    
C39   C64   S    
C50   C54   A    
C69   O4    A    
Cr12  O27   S    
C3    C7    A    
C33   C91   S    
C112  C117  A    
C127  O21   A    
C20   C25   A    
C132  C141  A    
C14   C18   A    
C147  H67   S    
C72   O38   A    
C12   C17   A    
C74   C149  A    
C93   O54   D    
H86   N17   S    
C135  C171  S    
C174  C178  A    
C7    H28   S    
Cr5   O12   S    
C65   O68   A    
Cr2   O6    S    
C10   C32   A    
C98   H15   S    
Cr2   O32   S    
C41   C62   S    
Cr8   O44   S    
C130  C139  A    
C105  O19   A    
Cr1   O14   S    
C20   H52   S    
C112  C183  S    
C170  C175  A    
C67   C170  S    
C96   O58   D    
C4    H27   S    
Cr11  O13   S    
Cr12  O31   S    
C11   C73   S    
C152  H29   S    
H93   N20   S    
C93   H9    S    
C116  O20   A    
C37   H42   S    
C9    C14   A    
C134  C138  S    
Cr9   O56   S    
C11   C16   A    
C109  H65   S    
C32   C89   S    
C146  H66   S    
C53   N6    S    
Cr9   O10   S    
C178  C187  A    
Cr6   O16   S    
C191  H22   S    
C88   H5    S    
C116  C165  S    
H105  N7    S    
H99   N4    S    
C27   H54   S    
Cr10  O66   S    
C31   C88   S    
C133  O27   A    
H102  N5    S    
C125  C161  S    
C9    C71   S    
C70   O36   A    
C21   C56   S    
H85   N16   S    
C46   C90   A    
H113  N10   S    
C174  N17   S    
Cr5   O37   S    
H77   N12   S    
C8    C30   A    
H75   N1    S    
Cr3   O7    S    
Cr8   O45   S    
C179  H33   S    
C109  C110  A    
Cr3   O33   S    
C114  C119  A    
H115  N11   S    
C150  C167  A    
C124  C129  A    
C153  C157  A    
C108  H61   S    
C92   C115  S    
C24   C68   A    
C77   C160  A    
C70   O5    A    
C74   C78   A    
C6    C192  A    
C41   O47   A    
C72   O7    A    
C5    C169  A    
Cr7   O34   S    
C134  O28   A    
C39   O40   A    
Cr11  O67   S    
C102  O63   D    
C95   H11   S    
H92   N20   S    
C150  H69   S    
C144  C148  A    
Cr6   O11   S    
C123  C128  A    
C123  H74   S    
H83   N16   S    
C2    C46   A    
C35   C182  A    
C143  C147  A    
C102  H18   S    
C36   C58   A    
C10   C15   A    
C2    H57   S    
Cr8   O9    S    
C124  C159  S    
Cr5   O15   S    
C35   C79   A    
C117  C121  A    
C97   C143  S    
C98   O60   D    
C121  C125  A    
C125  C130  A    
C12   H35   S    
C1    O14   A    
C148  H68   S    
C75   C80   A    
C187  C191  A    
Cr10  O25   S    
C85   H46   S    
C112  C139  A    
C68   C106  A    
C41   O42   A    
Cr6   O23   S    
C18   H49   S    
C141  H21   S    
C168  C173  A    
C29   H56   S    
C190  H23   S    
C133  C149  S    
Cr11  O48   S    
C175  N18   S    
C9    C31   A    
C78   C79   A    
C175  C179  A    
C44   C62   A    
C45   C63   A    
C128  C163  S    
C188  C189  S    
C122  C126  A    
C76   C171  A    
C121  H71   S    
C122  H72   S    
C19   H50   S    
C65   O45   A    
H81   N15   S    
C13   C171  A    
C185  O35   A    
Cr6   O42   S    
C113  C140  A    
C77   N14   S    
H100  N4    S    
C42   C61   S    
C38   C47   A    
C74   N12   S    
H76   N1    S    
C107  H63   S    
H89   N18   S    
H82   N15   S    
C128  C132  A    
C52   N5    S    
Cr9   O46   S    
C144  C162  A    
C91   O52   D    
C135  O25   A    
C73   O39   A    
C76   C81   A    
C45   N3    S    
C24   C160  A    
C184  O23   A    
C89   H6    S    
C99   O61   D    
H91   N19   S    
C67   O66   A    
C48   C61   A    
C126  C131  A    
C38   H43   S    
Cr8   O22   S    
H109  N8    S    
C80   C90   A    
Cr4   O4    S    
Cr12  O68   S    
C96   C142  S    
C113  C118  A    
C78   C84   A    
C115  C120  A    
C153  H40   S    
C111  C115  A    
C126  C162  S    
Cr10  O11   S    
C120  C124  A    
