data_mof_unit_65827.cif
_audit_creation_date              2013-03-05T17:01:20-0500
_audit_creation_method            fapswitch 2.2
_symmetry_space_group_name_H-M    P1
_symmetry_Int_Tables_number       1
_space_group_crystal_system       triclinic
_cell_length_a                    14.163019
_cell_length_b                    16.094196
_cell_length_c                    16.891421
_cell_angle_alpha                 86.862135
_cell_angle_beta                  90.023634
_cell_angle_gamma                 92.012729
_cell_volume                      3842.12217877

loop_
_atom_site_label
_atom_site_type_symbol
_atom_site_description
_atom_site_fract_x
_atom_site_fract_y
_atom_site_fract_z
_atom_type_partial_charge
O1    O     O_R   0.496230 0.422540 0.612660 -0.627890
O2    O     O_R   0.503770 0.577460 0.387340 -0.628077
O3    O     O_R   0.503000 0.561840 0.618900 -0.584774
O4    O     O_R   0.497000 0.438160 0.381100 -0.584350
C1    C     C_R   0.496428 0.488233 0.652631 0.922926
C2    C     C_R   0.503682 0.511762 0.347364 0.921619
O5    O     O_R   0.622900 0.430330 0.496880 -0.568397
O6    O     O_R   0.377100 0.569670 0.503120 -0.568505
O7    O     O_R   0.629670 0.569640 0.503120 -0.610928
O8    O     O_R   0.370330 0.430360 0.496880 -0.610947
C3    C     C_R   0.671014 0.499706 0.500100 0.917935
C4    C     C_R   0.328986 0.500295 0.499893 0.919001
Zn1   Zn    Zn3+2 0.495480 0.406980 0.495830 1.002397
Zn2   Zn    Zn3+2 0.504520 0.593020 0.504170 1.001905
C5    C     C_1   0.772391 0.499240 0.500027 -0.142062
C6    C     C_1   0.227608 0.500760 0.499963 -0.141601
C7    C     C_1   0.857578 0.499321 0.499990 0.028631
C8    C     C_1   0.142422 0.500678 0.499999 0.028808
C9    C     C_1   0.957400 0.499765 0.499989 0.043937
C10   C     C_1   0.042600 0.500234 0.500000 0.043984
C11   C     C_R   0.488632 0.478964 0.738002 -0.159633
C12   C     C_R   0.512046 0.521004 0.262005 -0.160159
C13   C     C_R   0.437286 0.535515 0.780497 0.274126
C14   C     C_R   0.562779 0.463863 0.219724 0.274447
C15   C     C_R   0.442009 0.530498 0.862761 -0.208339
C16   C     C_R   0.558772 0.469032 0.137448 -0.208246
C17   C     C_R   0.495702 0.469204 0.902494 0.265429
C18   C     C_R   0.506357 0.531054 0.097443 0.265351
C19   C     C_R   0.539729 0.409714 0.860006 -0.144909
C20   C     C_R   0.462971 0.591053 0.139749 -0.145302
C21   C     C_R   0.536737 0.414674 0.777927 -0.245311
C22   C     C_R   0.465285 0.585969 0.221851 -0.244774
N1    N     N_2   0.507728 0.466219 0.985200 -0.169165
N2    N     N_2   0.494610 0.534085 0.014692 -0.169012
H1    H     H_    0.597090 0.424974 0.104698 0.194806
H2    H     H_    0.403188 0.574024 0.895741 0.195013
H3    H     H_    0.579627 0.361543 0.890564 0.173439
H4    H     H_    0.424027 0.639746 0.109012 0.173586
H5    H     H_    0.575124 0.370318 0.745536 0.184985
H6    H     H_    0.427394 0.630790 0.254053 0.185442
N3    N     N_R   0.510540 0.716920 0.509720 -0.105561
N4    N     N_R   0.489460 0.283080 0.490280 -0.105599
C23   C     C_R   0.466786 0.762822 0.451281 -0.061518
C24   C     C_R   0.533160 0.237172 0.548746 -0.061341
C25   C     C_R   0.473825 0.850650 0.447296 0.208321
C26   C     C_R   0.526123 0.149344 0.552719 0.208316
C27   C     C_R   0.524338 0.891464 0.507629 0.226951
C28   C     C_R   0.475672 0.108538 0.492349 0.226768
C29   C     C_R   0.568750 0.842017 0.566659 -0.269232
C30   C     C_R   0.431318 0.157990 0.433288 -0.268908
C31   C     C_R   0.561076 0.754882 0.566836 0.020794
C32   C     C_R   0.438988 0.245124 0.433122 0.021949
N5    N     N_2   0.535829 0.980261 0.509854 -0.083512
N6    N     N_2   0.464178 0.019742 0.490119 -0.083498
H7    H     H_    0.570456 0.269269 0.594621 0.170297
H8    H     H_    0.429445 0.730721 0.405432 0.170242
H9    H     H_    0.609333 0.871091 0.612632 0.206849
H10   H     H_    0.390783 0.128920 0.387285 0.206934
H11   H     H_    0.596486 0.717538 0.612191 0.154290
H12   H     H_    0.403627 0.282472 0.387741 0.154438
N7    N     N_R   0.620053 0.402132 0.258972 0.219239
O9    O     O_R   0.675555 0.422195 0.316833 -0.381382
O10   O     O_R   0.627381 0.329490 0.229682 -0.354599
N8    N     N_R   0.378643 0.596399 0.741511 0.219303
O11   O     O_R   0.324009 0.575823 0.683269 -0.382220
O12   O     O_R   0.369148 0.668480 0.771389 -0.354367
N9    N     N_R   0.564343 0.104157 0.620375 0.215190
O13   O     O_R   0.514680 0.044006 0.656577 -0.346265
O14   O     O_R   0.641071 0.131896 0.653873 -0.368093
N10   N     N_R   0.435543 0.895829 0.379663 0.215109
O15   O     O_R   0.485190 0.955954 0.343405 -0.346157
O16   O     O_R   0.358766 0.868098 0.346234 -0.368124

loop_
_geom_bond_atom_site_label_1
_geom_bond_atom_site_label_2
_geom_bond_distance
_ccdc_geom_bond_type
C29   H9    1.082985 S    
C28   N6    1.435190 S    
O7    Zn2   1.825178 S    
O8    Zn1   1.825177 S    
N10   O15   1.301375 A    
C20   C22   1.385188 A    
C17   C19   1.392169 A    
N3    C23   1.362356 A    
C12   C22   1.400881 A    
C16   C18   1.407804 A    
C9    C10   1.206445 T    
O6    C4    1.291192 A    
C27   N5    1.435205 S    
C23   H8    1.081961 S    
N8    O11   1.301268 A    
C11   C21   1.400830 A    
C19   C21   1.385070 A    
C18   C20   1.392231 A    
N1    N2    1.244830 D    
C18   N2    1.405966 S    
C26   N9    1.436681 S    
C27   C29   1.403910 A    
C6    C8    1.206452 T    
O2    C2    1.285322 A    
N5    N6    1.251617 D    
C17   N1    1.405713 S    
O5    C3    1.291187 A    
C23   C25   1.411460 A    
C24   H7    1.081957 S    
N8    O12   1.301414 A    
C14   N7    1.438279 S    
O3    Zn2   1.975033 S    
N4    C24   1.362357 A    
Zn2   N3    2.000222 S    
O1    C1    1.285166 A    
O8    C4    1.290314 A    
C28   C30   1.403909 A    
C13   N8    1.438658 S    
C7    C9    1.413552 S    
C21   H5    1.083889 S    
C8    C10   1.413552 S    
O7    C3    1.290320 A    
C11   C13   1.410990 A    
N7    O9    1.301334 A    
O2    Zn2   2.002779 S    
C12   C14   1.410965 A    
C31   H11   1.081715 S    
C15   H2    1.083229 S    
N9    O13   1.301382 A    
C30   H10   1.082987 S    
C26   C28   1.421796 A    
C4    C6    1.436091 S    
C16   H1    1.083301 S    
O5    Zn1   1.830677 S    
C22   H6    1.083796 S    
O1    Zn1   2.002779 S    
C20   H4    1.083294 S    
O4    C2    1.286522 A    
C13   C15   1.389191 A    
C1    C11   1.445453 S    
C25   C27   1.421802 A    
C19   H3    1.083289 S    
C30   C32   1.402603 A    
C5    C7    1.206453 T    
C29   C31   1.402605 A    
N4    C32   1.360001 A    
Zn1   N4    2.000225 S    
O6    Zn2   1.830677 S    
C32   H12   1.081714 S    
O3    C1    1.286500 A    
C25   N10   1.436676 S    
N10   O16   1.301323 A    
C3    C5    1.436087 S    
N3    C31   1.360000 A    
N7    O10   1.301638 A    
C14   C16   1.388946 A    
O4    Zn1   1.975033 S    
C24   C26   1.411466 A    
N9    O14   1.301323 A    
C15   C17   1.407718 A    
C2    C12   1.445842 S    
