data_mof_unit_52583.cif
_audit_creation_date              2012-12-11T14:09:50-0500
_audit_creation_method            fapswitch 2.2
_symmetry_space_group_name_H-M    P1
_symmetry_Int_Tables_number       1
_space_group_crystal_system       triclinic
_cell_length_a                    33.835649
_cell_length_b                    33.83974
_cell_length_c                    33.88713
_cell_angle_alpha                 89.543619
_cell_angle_beta                  89.833469
_cell_angle_gamma                 90.20212
_cell_volume                      38798.7708638

loop_
_atom_site_label
_atom_site_type_symbol
_atom_type_description
_atom_site_fract_x
_atom_site_fract_y
_atom_site_fract_z
_atom_type_partial_charge
C1    C     C_R   0.795025 0.857685 0.162027 -0.066993
C2    C     C_R   0.277491 0.773171 0.227237 0.068071
C3    C     C_1   0.817810 0.329717 0.811018 -0.028018
C4    C     C_1   0.326979 0.179917 0.188470 -0.045333
C5    C     C_1   0.668919 0.815631 0.813641 -0.048837
C6    C     C_1   0.811038 0.335853 0.189162 -0.018737
C7    C     C_1   0.187122 0.665452 0.811102 -0.042716
C8    C     C_1   0.675706 0.185070 0.818163 -0.047281
C9    C     C_1   0.331000 0.811332 0.184670 -0.013990
C10   C     C_1   0.107864 0.244578 0.890970 -0.000151
C11   C     C_1   0.878173 0.744165 0.131194 -0.012021
C12   C     C_1   0.331009 0.811711 0.822780 -0.016976
C13   C     C_R   0.130836 0.177494 0.859965 -0.020469
C14   C     C_1   0.673035 0.187691 0.180328 -0.045669
C15   C     C_1   0.815840 0.673647 0.814923 0.012842
C16   C     C_1   0.185667 0.327139 0.183809 -0.014631
C17   C     C_1   0.134300 0.132909 0.722839 -0.040426
C18   C     C_1   0.851897 0.863615 0.291584 -0.022731
C19   C     C_1   0.179498 0.820699 0.323374 -0.035590
C20   C     C_1   0.815191 0.188787 0.667801 -0.009364
C21   C     C_1   0.820183 0.184671 0.322459 -0.014597
C22   C     C_1   0.182440 0.820240 0.680206 -0.020569
C23   C     C_1   0.809648 0.814312 0.666571 -0.019251
C24   C     C_R   0.848020 0.809186 0.161021 -0.018388
C25   C     C_1   0.185089 0.191133 0.333965 -0.016964
C26   C     C_1   0.755442 0.867916 0.150067 -0.080429
C27   C     C_1   0.209499 0.106469 0.877729 0.110994
C28   C     C_1   0.204458 0.693468 0.204008 -0.090622
C29   C     C_1   0.796897 0.309323 0.790892 0.118134
C30   C     C_1   0.304712 0.200047 0.207314 -0.096610
C31   C     C_1   0.691054 0.796265 0.793848 -0.095141
C32   C     C_1   0.790492 0.314026 0.208565 0.132100
C33   C     C_1   0.207062 0.688120 0.792161 -0.095400
C34   C     C_1   0.697618 0.204973 0.798267 -0.093142
C35   C     C_R   0.272401 0.776341 0.784727 0.038767
C36   C     C_1   0.308244 0.793065 0.205153 0.135245
C37   C     C_1   0.117135 0.212940 0.878437 -0.008711
C38   C     C_1   0.865457 0.774514 0.144039 -0.000391
C39   C     C_1   0.304566 0.794999 0.805821 0.114279
C40   C     C_1   0.695005 0.206727 0.200686 -0.104230
C41   C     C_1   0.795880 0.695975 0.795685 0.120852
C42   C     C_1   0.205107 0.305195 0.203929 0.006115
C43   C     C_1   0.137949 0.135565 0.758003 -0.091461
C44   C     C_1   0.848781 0.861511 0.256368 0.124616
C45   C     C_1   0.197331 0.802790 0.298447 0.012956
C46   C     C_R   0.723739 0.228021 0.223928 -0.056645
C47   C     C_1   0.795886 0.207501 0.690910 0.002586
C48   C     C_1   0.799556 0.204411 0.301264 0.007516
C49   C     C_1   0.202336 0.800902 0.702424 0.031508
C50   C     C_1   0.790506 0.794048 0.688901 0.015621
C51   C     C_1   0.206106 0.209947 0.312058 0.119169
C52   C     C_R   0.663845 0.856382 0.100213 0.121527
C53   C     C_R   0.294531 0.091157 0.938585 0.114843
C54   C     C_R   0.177379 0.615237 0.138633 0.184906
C55   C     C_R   0.846094 0.341373 0.877198 0.066122
C56   C     C_R   0.388981 0.170421 0.150946 0.083977
C57   C     C_R   0.773418 0.725139 0.773944 0.033952
C58   C     C_R   0.666077 0.866250 0.865070 0.081741
C59   C     C_R   0.830145 0.398444 0.155360 0.087915
C60   C     C_R   0.140410 0.663901 0.866637 0.078655
C61   C     C_R   0.610642 0.166799 0.846548 0.154379
C62   C     C_R   0.337992 0.848246 0.122390 0.084587
C63   C     C_R   0.130375 0.312200 0.903319 0.108930
C64   C     C_R   0.900312 0.701580 0.076768 0.074151
C65   C     C_R   0.375557 0.821973 0.879961 0.097089
C66   C     C_R   0.662298 0.153148 0.117195 0.139101
C67   C     C_R   0.828550 0.610850 0.850735 0.156135
C68   C     C_R   0.227190 0.276556 0.226635 0.000349
C69   C     C_R   0.150364 0.337727 0.121002 0.076619
C70   C     C_R   0.157571 0.601764 0.833011 0.154062
C71   C     C_R   0.871533 0.338946 0.148753 0.080385
C72   C     C_R   0.095693 0.147400 0.662763 0.099494
C73   C     C_R   0.883520 0.839468 0.352596 0.039946
C74   C     C_R   0.148022 0.388748 0.172544 0.087711
C75   C     C_R   0.877847 0.664663 0.852035 0.079845
C76   C     C_R   0.121080 0.829725 0.366364 0.113058
C77   C     C_R   0.878994 0.156113 0.656161 0.078578
C78   C     C_R   0.893589 0.674289 0.144219 0.118753
C79   C     C_R   0.141824 0.139431 0.800216 -0.054928
C80   C     C_R   0.059573 0.295393 0.910201 0.135788
C81   C     C_R   0.855224 0.171528 0.385140 0.033440
C82   C     C_R   0.119270 0.854584 0.668664 0.077717
C83   C     C_R   0.864417 0.384850 0.821710 0.179645
C84   C     C_R   0.118955 0.652394 0.160360 0.046994
C85   C     C_R   0.841381 0.833134 0.602864 0.096803
C86   C     C_R   0.124638 0.150546 0.338532 0.139641
C87   C     C_R   0.825309 0.148432 0.607791 0.149968
C88   C     C_R   0.179073 0.872424 0.374806 0.036701
C89   C     C_R   0.611946 0.148901 0.169892 0.027416
C90   C     C_R   0.843625 0.856301 0.214556 0.092116
C91   C     C_R   0.381534 0.864863 0.821497 0.043898
C92   C     C_R   0.167122 0.158164 0.397198 0.093709
C93   C     C_R   0.852216 0.873247 0.662417 0.083331
C94   C     C_R   0.312324 0.094860 0.867950 0.091588
C95   C     C_R   0.655162 0.898902 0.158266 0.022317
C96   C     C_R   0.170659 0.855088 0.616924 0.084411
C97   C     C_R   0.858797 0.123428 0.330979 0.085440
C98   C     C_R   0.393932 0.845823 0.168846 0.099765
C99   C     C_R   0.669831 0.127516 0.862824 0.078792
C100  C     C_R   0.834046 0.892126 0.356429 0.079443
C101  C     C_R   0.219135 0.781067 0.268867 -0.014079
C102  C     C_R   0.156922 0.108760 0.657599 0.030043
C103  C     C_R   0.603796 0.838485 0.838987 0.092623
C104  C     C_R   0.338206 0.117985 0.152248 0.071126
C105  C     C_R   0.622513 0.857483 0.094657 -0.153921
C106  C     C_R   0.334400 0.082652 0.947793 -0.048916
C107  C     C_R   0.152433 0.589104 0.117723 -0.104553
C108  C     C_R   0.870296 0.364231 0.902304 -0.052450
C109  C     C_R   0.412171 0.147431 0.124894 -0.091951
C110  C     C_R   0.644213 0.890757 0.890704 -0.062037
C111  C     C_R   0.855622 0.418930 0.128881 -0.073912
C112  C     C_R   0.172249 0.119282 0.862003 0.108623
C113  C     C_R   0.774843 0.227988 0.721728 -0.023768
C114  C     C_R   0.115481 0.642661 0.892900 -0.060844
C115  C     C_R   0.587429 0.141069 0.870347 -0.081180
C116  C     C_R   0.358744 0.876286 0.099013 -0.052838
C117  C     C_R   0.121474 0.352570 0.908486 -0.093552
C118  C     C_R   0.911387 0.663763 0.063080 -0.043413
C119  C     C_R   0.409197 0.840937 0.895602 -0.136878
C120  C     C_R   0.639755 0.126515 0.094195 -0.105854
C121  C     C_R   0.853028 0.587881 0.875792 -0.060678
C122  C     C_R   0.124517 0.360679 0.097491 -0.060720
C123  C     C_R   0.132524 0.580752 0.859468 -0.080741
C124  C     C_R   0.775622 0.226733 0.273824 -0.007076
C125  C     C_R   0.897281 0.359929 0.122985 -0.071074
C126  C     C_R   0.091610 0.144011 0.621542 -0.141420
C127  C     C_R   0.897059 0.849452 0.390686 -0.063541
C128  C     C_R   0.123102 0.412017 0.148209 -0.066443
C129  C     C_R   0.902590 0.641133 0.876332 -0.037584
C130  C     C_R   0.105195 0.845455 0.401284 -0.123517
C131  C     C_R   0.902861 0.130394 0.633776 -0.033256
C132  C     C_R   0.901210 0.636045 0.129699 -0.082802
C133  C     C_R   0.051720 0.335113 0.920282 -0.088102
C134  C     C_R   0.879096 0.146605 0.408923 -0.074753
C135  C     C_R   0.224531 0.778002 0.730824 -0.002754
C136  C     C_R   0.094325 0.877324 0.643848 -0.045336
C137  C     C_R   0.881981 0.411761 0.848369 -0.132846
C138  C     C_R   0.095590 0.631404 0.132935 -0.041915
C139  C     C_R   0.868193 0.857802 0.581675 -0.093731
C140  C     C_R   0.101087 0.122694 0.359525 -0.087225
C141  C     C_R   0.849541 0.122633 0.585476 -0.095102
C142  C     C_R   0.158342 0.893425 0.404433 -0.070036
C143  C     C_R   0.589464 0.122331 0.146792 -0.072132
C144  C     C_R   0.409360 0.888537 0.841940 -0.046701
C145  C     C_R   0.142621 0.131154 0.418232 -0.102488
C146  C     C_R   0.769418 0.772389 0.719311 0.007364
C147  C     C_R   0.879398 0.897200 0.641174 -0.048252
C148  C     C_R   0.352562 0.090132 0.877859 -0.090756
C149  C     C_R   0.614620 0.902831 0.148744 -0.085610
C150  C     C_R   0.146318 0.879375 0.592962 -0.110290
C151  C     C_R   0.881582 0.098078 0.355261 -0.102475
C152  C     C_R   0.415653 0.871463 0.143556 -0.114667
C153  C     C_R   0.646409 0.102107 0.886767 -0.054956
C154  C     C_R   0.846345 0.899366 0.395795 -0.123541
C155  C     C_R   0.146941 0.099302 0.618071 -0.076345
C156  C     C_R   0.582011 0.863510 0.864669 -0.070737
C157  C     C_R   0.229138 0.230547 0.282344 0.076125
C158  C     C_R   0.361696 0.094941 0.126571 -0.053275
C159  C     C_R   0.601248 0.888187 0.112262 0.015296
C160  C     C_R   0.363279 0.082367 0.917351 -0.101000
C161  C     C_R   0.112263 0.599428 0.111947 -0.103043
C162  C     C_R   0.887536 0.399915 0.888274 -0.084932
C163  C     C_R   0.398227 0.110038 0.112326 -0.075806
C164  C     C_R   0.602520 0.889972 0.889567 -0.111874
C165  C     C_R   0.888350 0.399274 0.112069 -0.102605
C166  C     C_R   0.110954 0.601468 0.888429 -0.110395
C167  C     C_R   0.605618 0.109683 0.891059 -0.107297
C168  C     C_R   0.680110 0.877653 0.132234 0.058913
C169  C     C_R   0.397456 0.887718 0.109633 -0.082825
C170  C     C_R   0.082485 0.363709 0.918095 -0.093268
C171  C     C_R   0.911555 0.631187 0.089658 -0.090966
C172  C     C_R   0.418952 0.879110 0.881661 -0.017304
C173  C     C_R   0.603565 0.111204 0.108996 -0.071814
C174  C     C_R   0.889659 0.603219 0.888886 -0.100995
C175  C     C_R   0.111059 0.397705 0.111024 -0.091353
C176  C     C_R   0.110254 0.112182 0.602884 -0.001157
C177  C     C_R   0.883495 0.884817 0.407776 0.012771
C178  C     C_R   0.118769 0.882608 0.413866 -0.040180
C179  C     C_R   0.283622 0.095098 0.898478 0.011276
C180  C     C_R   0.887840 0.112684 0.599219 -0.097991
C181  C     C_R   0.891424 0.109482 0.394076 -0.049004
C182  C     C_R   0.108356 0.890485 0.606570 -0.099859
C183  C     C_R   0.887831 0.888897 0.601293 -0.100811
C184  C     C_R   0.110739 0.112570 0.398841 -0.108029
C185  C     C_R   0.565086 0.906718 0.952760 -0.111381
C186  C     C_R   0.436792 0.094038 0.048644 -0.088897
C187  C     C_R   0.093539 0.564824 0.952156 -0.094655
C188  C     C_R   0.906405 0.435137 0.047607 -0.138227
C189  C     C_R   0.426476 0.087474 0.958079 -0.110752
C190  C     C_R   0.160183 0.645413 0.161529 0.024031
C191  C     C_R   0.562694 0.905717 0.048633 -0.147426
C192  C     C_R   0.905678 0.436829 0.951947 -0.141510
C193  C     C_R   0.093906 0.564207 0.047364 -0.136070
C194  C     C_R   0.564933 0.093416 0.047182 -0.094329
C195  C     C_R   0.441180 0.904238 0.950314 -0.147487
C196  C     C_R   0.094153 0.437254 0.049016 -0.152039
C197  C     C_R   0.906333 0.564200 0.951909 -0.121062
C198  C     C_R   0.434809 0.906583 0.047200 -0.134574
C199  C     C_R   0.565971 0.093021 0.953000 -0.149111
C200  C     C_R   0.911191 0.572007 0.043095 -0.106288
C201  C     C_R   0.843154 0.352135 0.836899 0.023518
C202  C     C_R   0.086933 0.425852 0.959150 -0.127710
C203  C     C_R   0.952465 0.564698 0.906318 -0.134871
C204  C     C_R   0.047190 0.435018 0.093609 -0.108088
C205  C     C_R   0.951301 0.094274 0.562416 -0.071028
C206  C     C_R   0.049972 0.904850 0.440243 -0.156145
C207  C     C_R   0.952055 0.435476 0.093703 -0.091553
C208  C     C_R   0.047481 0.564938 0.906442 -0.152702
C209  C     C_R   0.950566 0.904963 0.439525 -0.081935
C210  C     C_R   0.047941 0.093982 0.563200 -0.154659
C211  C     C_R   0.049522 0.561305 0.094499 -0.128934
C212  C     C_R   0.352158 0.155491 0.164307 0.035191
C213  C     C_R   0.951423 0.436710 0.906121 -0.089646
C214  C     C_R   0.047782 0.093794 0.435554 -0.088256
C215  C     C_R   0.952139 0.906296 0.564709 -0.151113
C216  C     C_R   0.041975 0.426770 0.912413 -0.109645
C217  C     C_R   0.958118 0.572731 0.088051 -0.146439
C218  C     C_R   0.046762 0.906965 0.566020 -0.128906
C219  C     C_R   0.953741 0.092693 0.433319 -0.031335
C220  C     C_R   0.906352 0.952252 0.564638 -0.084026
C221  C     C_R   0.093585 0.047839 0.435203 -0.159610
C222  C     C_R   0.562487 0.951283 0.094308 -0.092433
C223  C     C_R   0.224727 0.724216 0.225383 -0.063342
C224  C     C_R   0.645697 0.840211 0.839546 0.023893
C225  C     C_R   0.425183 0.040202 0.913763 -0.133152
C226  C     C_R   0.095480 0.950778 0.440298 -0.077218
C227  C     C_R   0.905923 0.047836 0.563716 -0.115910
C228  C     C_R   0.443064 0.949072 0.903989 -0.114006
C229  C     C_R   0.565646 0.047059 0.092981 -0.082105
C230  C     C_R   0.094100 0.048676 0.563004 -0.088922
C231  C     C_R   0.904901 0.950621 0.439617 -0.161134
C232  C     C_R   0.436502 0.047721 0.094112 -0.091246
C233  C     C_R   0.565162 0.952862 0.906707 -0.146171
C234  C     C_R   0.907279 0.046988 0.433883 -0.117498
C235  C     C_R   0.838070 0.358415 0.164637 0.019913
C236  C     C_R   0.092752 0.953052 0.566124 -0.125404
C237  C     C_R   0.566012 0.047264 0.907088 -0.098009
C238  C     C_R   0.434462 0.952285 0.093122 -0.111723
C239  C     C_2   0.794169 0.805972 0.109863 0.500941
C240  C     C_2   0.156013 0.153538 0.925688 0.479829
C241  C     C_2   0.286566 0.711286 0.186296 0.510228
C242  C     C_2   0.721973 0.282213 0.824033 0.504493
C243  C     C_2   0.274569 0.269232 0.169077 0.515814
C244  C     C_2   0.726261 0.730450 0.831988 0.463207
C245  C     C_2   0.711426 0.288862 0.182417 0.502241
C246  C     C_R   0.161472 0.643132 0.837124 0.016554
C247  C     C_2   0.277588 0.715231 0.828387 0.492851
C248  C     C_2   0.181866 0.717898 0.716259 0.508432
C249  C     C_2   0.822118 0.284193 0.282211 0.507682
C250  C     C_2   0.105478 0.203656 0.794682 0.507253
C251  C     C_2   0.900949 0.808558 0.213065 0.474988
C252  C     C_2   0.179976 0.286794 0.283143 0.477910
C253  C     C_2   0.822287 0.720454 0.717188 0.511315
C254  C     C_2   0.162705 0.732644 0.264430 0.478751
C255  C     C_2   0.817509 0.288033 0.709541 0.494887
C256  C     C_2   0.731307 0.167709 0.731546 0.478213
C257  C     C_R   0.651625 0.159525 0.842762 0.016512
C258  C     C_2   0.272364 0.832775 0.271324 0.487427
C259  C     C_2   0.730775 0.167194 0.266377 0.521048
C260  C     C_2   0.262946 0.839411 0.745623 0.481353
C261  C     C_2   0.281783 0.177600 0.286462 0.509865
C262  C     C_2   0.713887 0.822531 0.716028 0.519365
C263  C     C_2   0.180533 0.075875 0.802267 0.510365
C264  C     C_2   0.795315 0.913087 0.211087 0.486646
C265  C     C_2   0.599606 0.823865 0.077955 0.538050
C266  C     C_2   0.346106 0.071369 0.988602 0.463854
C267  C     C_2   0.167341 0.549848 0.104855 0.585842
C268  C     C_R   0.355095 0.834745 0.158126 0.031098
C269  C     C_2   0.878113 0.350507 0.943224 0.583243
C270  C     C_2   0.451394 0.162059 0.111300 0.612931
C271  C     C_2   0.664138 0.917428 0.919351 0.511733
C272  C     C_2   0.848984 0.461245 0.119009 0.533686
C273  C     C_2   0.093748 0.662658 0.925411 0.506744
C274  C     C_2   0.544021 0.146254 0.874022 0.539081
C275  C     C_2   0.340323 0.894523 0.063583 0.515590
C276  C     C_2   0.152133 0.383607 0.902501 0.540815
C277  C     C_2   0.924547 0.657873 0.021517 0.462771
C278  C     C_2   0.439747 0.818261 0.917915 0.567137
C279  C     C_R   0.099063 0.284372 0.902422 0.034777
C280  C     C_2   0.654428 0.112011 0.055452 0.475796
C281  C     C_2   0.840614 0.547662 0.888432 0.524816
C282  C     C_2   0.110560 0.345807 0.058784 0.534164
C283  C     C_2   0.128269 0.537118 0.857545 0.534378
C284  C     C_2   0.933650 0.341375 0.106651 0.501579
C285  C     C_2   0.075570 0.176465 0.596324 0.564711
C286  C     C_2   0.922784 0.822205 0.413530 0.467546
C287  C     C_2   0.109858 0.451632 0.161182 0.531967
C288  C     C_2   0.941792 0.655870 0.889859 0.496437
C289  C     C_2   0.083108 0.819827 0.429858 0.502366
C290  C     C_R   0.891339 0.706376 0.117256 0.033571
C291  C     C_2   0.943894 0.121588 0.646224 0.457547
C292  C     C_2   0.897202 0.600680 0.155856 0.566349
C293  C     C_2   0.012177 0.347192 0.935162 0.522374
C294  C     C_2   0.891342 0.159975 0.448990 0.554560
C295  C     C_2   0.053811 0.888743 0.656683 0.470556
C296  C     C_2   0.891027 0.453262 0.835834 0.591284
C297  C     C_2   0.054188 0.643706 0.124079 0.458120
C298  C     C_2   0.876088 0.851824 0.538932 0.536316
C299  C     C_2   0.066765 0.102496 0.340942 0.507213
C300  C     C_2   0.835353 0.106695 0.547361 0.627998
C301  C     C_R   0.362479 0.833375 0.841939 0.041330
C302  C     C_2   0.179876 0.923015 0.428291 0.471414
C303  C     C_2   0.551423 0.106298 0.162652 0.554822
C304  C     C_2   0.431724 0.919490 0.820285 0.480555
C305  C     C_2   0.149503 0.122200 0.460702 0.552660
C306  C     C_2   0.900801 0.930293 0.660358 0.504640
C307  C     C_2   0.383812 0.093835 0.847157 0.557941
C308  C     C_2   0.585364 0.918209 0.177781 0.487153
C309  C     C_2   0.159276 0.892355 0.552933 0.533612
C310  C     C_2   0.896261 0.059653 0.340205 0.535228
C311  C     C_2   0.457701 0.880925 0.151759 0.563252
C312  C     C_R   0.648348 0.163629 0.155182 0.044206
C313  C     C_2   0.663689 0.067471 0.907942 0.496659
C314  C     C_2   0.820896 0.917909 0.426584 0.505059
C315  C     C_2   0.175592 0.079049 0.591834 0.482101
C316  C     C_2   0.537828 0.863177 0.866244 0.507789
C317  C     C_2   0.348163 0.055244 0.113280 0.494930
C318  C     C_3   0.690517 0.835778 0.070473 -0.364972
C319  C     C_3   0.713694 0.865974 0.045267 -0.320039
C320  C     C_3   0.734824 0.846079 0.010864 -0.812231
C321  C     C_3   0.262954 0.094363 0.970799 -0.349220
C322  C     C_3   0.250636 0.137481 0.978069 -0.227741
C323  C     C_R   0.841176 0.649120 0.839155 0.009629
C324  C     C_3   0.282705 0.161661 0.998435 -0.803688
C325  C     C_3   0.222282 0.613585 0.133806 -0.373223
C326  C     C_3   0.237513 0.646440 0.105954 -0.318692
C327  C     C_3   0.224193 0.640401 0.063357 -0.842025
C328  C     C_3   0.823577 0.305577 0.893544 -0.417394
C329  C     C_3   0.786564 0.318595 0.916103 -0.242654
C330  C     C_3   0.763443 0.283052 0.932002 -0.883115
C331  C     C_3   0.401687 0.212312 0.161875 -0.400760
C332  C     C_3   0.390879 0.241591 0.128902 -0.291187
C333  C     C_3   0.400844 0.283953 0.140419 -0.827116
C334  C     C_R   0.772912 0.281563 0.769243 0.089401
C335  C     C_R   0.161440 0.351727 0.158714 0.040118
C336  C     C_3   0.711147 0.869126 0.862891 -0.377747
C337  C     C_3   0.730734 0.835587 0.886458 -0.191947
C338  C     C_3   0.775513 0.836047 0.881062 -0.877534
C339  C     C_3   0.793007 0.418183 0.171412 -0.373285
C340  C     C_3   0.760032 0.417982 0.140468 -0.287768
C341  C     C_3   0.722160 0.436117 0.156684 -0.785631
C342  C     C_3   0.142935 0.708993 0.867878 -0.369611
C343  C     C_3   0.180510 0.722852 0.889134 -0.202162
C344  C     C_3   0.187260 0.767115 0.883240 -0.865065
C345  C     C_3   0.592758 0.203447 0.827026 -0.387618
C346  C     C_R   0.128771 0.129242 0.680859 0.060085
C347  C     C_3   0.602036 0.241318 0.850033 -0.270684
C348  C     C_3   0.581408 0.242123 0.890188 -0.860538
C349  C     C_3   0.298297 0.831185 0.109080 -0.405471
C350  C     C_3   0.303246 0.788731 0.094133 -0.276760
C351  C     C_3   0.263344 0.769514 0.085543 -0.895668
C352  C     C_3   0.173131 0.297827 0.901103 -0.369111
C353  C     C_3   0.185150 0.277610 0.940021 -0.317472
C354  C     C_3   0.225583 0.258116 0.936563 -0.890406
C355  C     C_3   0.900347 0.737466 0.049167 -0.389669
C356  C     C_3   0.859256 0.744046 0.031313 -0.174468
C357  C     C_R   0.856359 0.865093 0.333780 0.034439
C358  C     C_3   0.858339 0.781144 0.005463 -0.920411
C359  C     C_3   0.352716 0.791895 0.904812 -0.335845
C360  C     C_3   0.312091 0.807974 0.917208 -0.270727
C361  C     C_3   0.291930 0.780809 0.947404 -0.857222
C362  C     C_3   0.702619 0.168424 0.103049 -0.363546
C363  C     C_3   0.701957 0.212510 0.091473 -0.286407
C364  C     C_3   0.680621 0.220364 0.052612 -0.733405
C365  C     C_3   0.788127 0.595653 0.837496 -0.391703
C366  C     C_3   0.754181 0.612210 0.862560 -0.294119
C367  C     C_3   0.754481 0.596367 0.904889 -0.828070
C368  C     C_R   0.159285 0.841897 0.354305 0.038108
C369  C     C_3   0.167153 0.299048 0.105077 -0.399963
C370  C     C_3   0.200831 0.307177 0.075658 -0.230582
C371  C     C_3   0.217702 0.268812 0.059386 -0.907622
C372  C     C_3   0.178303 0.581144 0.798811 -0.383276
C373  C     C_3   0.156937 0.587939 0.759374 -0.282405
C374  C     C_3   0.116472 0.567790 0.758327 -0.846186
C375  C     C_3   0.877867 0.295081 0.157700 -0.387732
C376  C     C_3   0.896964 0.289044 0.198347 -0.187747
C377  C     C_3   0.897568 0.245431 0.210119 -0.939159
C378  C     C_3   0.064211 0.168299 0.687141 -0.328789
C379  C     C_R   0.840232 0.164691 0.643128 0.018798
C380  C     C_3   0.040149 0.139050 0.712747 -0.272871
C381  C     C_3   0.008211 0.160166 0.736493 -0.879445
C382  C     C_3   0.895605 0.800785 0.333276 -0.415925
C383  C     C_3   0.872520 0.766013 0.351613 -0.259988
C384  C     C_3   0.881404 0.727425 0.330538 -0.902536
C385  C     C_3   0.158289 0.402184 0.214205 -0.386352
C386  C     C_3   0.124260 0.392811 0.242796 -0.315851
C387  C     C_3   0.135128 0.403341 0.285100 -0.820575
C388  C     C_3   0.888769 0.707346 0.841620 -0.371856
C389  C     C_3   0.905878 0.710559 0.799682 -0.196294
C390  C     C_R   0.845211 0.159703 0.346448 0.062608
C391  C     C_3   0.909119 0.753573 0.786184 -0.942108
C392  C     C_3   0.095177 0.804555 0.339874 -0.337811
C393  C     C_3   0.083826 0.827864 0.302423 -0.282236
C394  C     C_3   0.050484 0.807701 0.279851 -0.792100
C395  C     C_3   0.893850 0.173077 0.695112 -0.381478
C396  C     C_3   0.908791 0.215668 0.689578 -0.203144
C397  C     C_3   0.914536 0.236113 0.729173 -0.963015
C398  C     C_3   0.892325 0.681352 0.188732 -0.425799
C399  C     C_3   0.934084 0.678091 0.206142 -0.235799
C400  C     C_3   0.934526 0.688593 0.249786 -0.920125
C401  C     C_R   0.157167 0.843562 0.654845 0.027942
C402  C     C_3   0.027055 0.263823 0.910332 -0.361426
C403  C     C_3   0.014476 0.251585 0.868488 -0.281124
C404  C     C_3   0.991360 0.283701 0.846789 -0.731823
C405  C     C_3   0.839678 0.210646 0.400930 -0.413641
C406  C     C_3   0.867505 0.244769 0.389512 -0.298171
C407  C     C_3   0.850285 0.284554 0.401377 -0.821917
C408  C     C_3   0.106864 0.843540 0.710719 -0.379943
C409  C     C_3   0.091606 0.800790 0.713093 -0.190778
C410  C     C_3   0.083081 0.788408 0.755678 -0.917968
C411  C     C_3   0.871511 0.388218 0.777227 -0.343551
C412  C     C_R   0.834079 0.840818 0.643262 0.033889
C413  C     C_3   0.897947 0.354634 0.761916 -0.258754
C414  C     C_3   0.939566 0.356177 0.779314 -0.898376
C415  C     C_3   0.099829 0.681867 0.188295 -0.351713
C416  C     C_3   0.082802 0.659883 0.224430 -0.187191
C417  C     C_3   0.056488 0.686475 0.249230 -0.890396
C418  C     C_3   0.822782 0.797063 0.583444 -0.378285
C419  C     C_3   0.852389 0.762922 0.581604 -0.297119
C420  C     C_3   0.833988 0.726456 0.562763 -0.822835
C421  C     C_3   0.116272 0.160685 0.295210 -0.379577
C422  C     C_3   0.100947 0.203145 0.289427 -0.298607
C423  C     C_R   0.158229 0.167126 0.357298 0.013801
C424  C     C_3   0.058951 0.208624 0.304916 -0.706973
C425  C     C_3   0.782837 0.157474 0.595369 -0.411344
C426  C     C_3   0.752560 0.130767 0.616522 -0.275618
C427  C     C_3   0.754578 0.087865 0.603028 -0.833157
C428  C     C_3   0.221516 0.883631 0.364214 -0.412763
C429  C     C_3   0.222286 0.917858 0.334213 -0.289542
C430  C     C_3   0.264202 0.933501 0.327831 -0.863597
C431  C     C_3   0.597102 0.162295 0.210183 -0.405310
C432  C     C_3   0.613168 0.135546 0.243141 -0.282952
C433  C     C_3   0.599600 0.149523 0.283643 -0.837774
C434  C     C_R   0.812984 0.824589 0.144693 -0.018198
C435  C     C_3   0.372410 0.872353 0.778010 -0.426730
C436  C     C_3   0.394889 0.843284 0.751790 -0.231966
C437  C     C_3   0.383961 0.848827 0.708440 -0.906946
C438  C     C_3   0.204147 0.175335 0.416305 -0.370687
C439  C     C_3   0.237261 0.144525 0.417904 -0.276402
C440  C     C_3   0.275034 0.161941 0.435168 -0.789629
C441  C     C_3   0.844606 0.880003 0.706330 -0.390205
C442  C     C_3   0.873512 0.856020 0.731685 -0.277540
C443  C     C_3   0.863964 0.859927 0.775523 -0.892465
C444  C     C_3   0.299896 0.096312 0.824628 -0.408912
C445  C     C_R   0.275878 0.223584 0.228002 -0.058156
C446  C     C_R   0.152511 0.149714 0.882020 -0.127000
C447  C     C_3   0.298733 0.054465 0.807581 -0.240372
C448  C     C_3   0.287447 0.055016 0.764047 -0.873710
C449  C     C_3   0.672050 0.917444 0.195375 -0.444757
C450  C     C_3   0.670117 0.888284 0.230196 -0.208897
C451  C     C_3   0.690096 0.905147 0.266708 -0.925542
C452  C     C_3   0.210505 0.840153 0.602149 -0.360119
C453  C     C_3   0.244433 0.866188 0.617173 -0.223455
C454  C     C_3   0.284526 0.849779 0.604918 -0.890475
C455  C     C_3   0.847637 0.111090 0.289135 -0.387468
C456  C     C_3   0.813863 0.080801 0.289853 -0.262430
C457  C     C_R   0.262931 0.736483 0.213649 -0.098722
C458  C     C_3   0.800572 0.070426 0.248197 -0.860785
C459  C     C_3   0.411231 0.832114 0.208164 -0.386178
C460  C     C_3   0.408967 0.865177 0.238767 -0.268692
C461  C     C_3   0.424547 0.851374 0.278748 -0.804934
C462  C     C_3   0.714557 0.122330 0.860085 -0.378874
C463  C     C_3   0.726109 0.100131 0.822471 -0.201700
C464  C     C_3   0.770881 0.098893 0.817246 -0.834187
C465  C     C_3   0.797745 0.911990 0.338725 -0.339149
C466  C     C_3   0.804433 0.956471 0.331976 -0.182750
C467  C     C_3   0.766373 0.976538 0.318536 -0.858605
C468  C     C_R   0.740383 0.263610 0.788638 -0.100456
C469  C     C_3   0.197279 0.098024 0.674473 -0.449754
C470  C     C_3   0.229228 0.126440 0.658769 -0.212188
C471  C     C_3   0.269140 0.118452 0.677984 -0.909012
C472  C     C_3   0.582823 0.811581 0.809590 -0.368968
C473  C     C_3   0.564686 0.835573 0.775563 -0.241459
C474  C     C_3   0.542268 0.808924 0.747161 -0.862705
C475  C     C_3   0.297190 0.104026 0.165311 -0.367874
C476  C     C_3   0.298590 0.085407 0.206725 -0.194293
C477  C     C_3   0.257132 0.076842 0.222491 -0.925574
C478  C     C_R   0.259076 0.256590 0.208645 -0.041184
C479  C     C_R   0.740373 0.743105 0.792035 -0.066211
C480  C     C_R   0.735022 0.266790 0.212672 -0.098889
C481  C     C_R   0.259717 0.737735 0.794943 -0.068936
C482  C     C_R   0.212511 0.738932 0.740065 -0.044892
C483  C     C_R   0.787978 0.264934 0.262052 -0.140538
C484  C     C_R   0.126262 0.173153 0.818822 -0.034858
C485  C     C_R   0.720949 0.774534 0.772601 -0.053785
C486  C     C_R   0.863852 0.825157 0.195891 -0.129414
C487  C     C_R   0.212903 0.264496 0.264068 -0.137001
C488  C     C_R   0.787597 0.739179 0.737035 -0.130389
C489  C     C_R   0.202989 0.746136 0.253120 -0.006921
C490  C     C_R   0.787884 0.265707 0.733794 -0.135806
C491  C     C_R   0.744315 0.208252 0.742622 -0.017313
C492  C     C_R   0.256435 0.794811 0.255923 -0.126192
C493  C     C_R   0.743458 0.208068 0.254891 -0.036430
C494  C     C_R   0.253619 0.797104 0.753678 -0.119649
C495  C     C_R   0.262071 0.211253 0.265534 -0.095594
C496  C     C_R   0.768945 0.283813 0.230029 0.076538
C497  C     C_R   0.734849 0.788969 0.735873 -0.056482
C498  C     C_R   0.164268 0.111738 0.821907 -0.110886
C499  C     C_R   0.811693 0.875289 0.195701 -0.088279
C500  C     C_R   0.580412 0.916266 0.916145 0.005377
C501  C     C_R   0.422438 0.085061 0.085843 0.057586
C502  C     C_R   0.084265 0.579850 0.915408 0.025390
C503  C     C_R   0.915171 0.420602 0.084725 0.022422
C504  C     C_R   0.404710 0.072747 0.927003 0.050974
C505  C     C_R   0.575444 0.913212 0.086788 0.104295
C506  C     C_R   0.914002 0.422671 0.914713 0.084131
C507  C     C_R   0.228528 0.720203 0.773698 -0.067141
C508  C     C_R   0.086439 0.576301 0.085434 0.045009
C509  C     C_R   0.580457 0.084142 0.083704 0.090124
C510  C     C_R   0.433427 0.909605 0.910429 0.054572
C511  C     C_R   0.084680 0.421375 0.085399 0.066199
C512  C     C_R   0.915430 0.579327 0.915072 0.048921
C513  C     C_R   0.419418 0.915447 0.083741 0.044098
C514  C     C_R   0.581681 0.083626 0.916721 0.028051
C515  C     C_R   0.924640 0.592232 0.075715 0.035935
C516  C     C_R   0.073523 0.405376 0.926814 0.041060
C517  C     C_R   0.913902 0.085659 0.576660 0.052202
C518  C     C_R   0.726364 0.226797 0.775180 -0.057110
C519  C     C_R   0.089545 0.911461 0.430563 0.070602
C520  C     C_R   0.911554 0.911739 0.428694 0.078907
C521  C     C_R   0.086047 0.086637 0.576362 0.100048
C522  C     C_R   0.084600 0.084978 0.420679 0.028961
C523  C     C_R   0.915199 0.915299 0.579462 0.023039
C524  C     C_R   0.083059 0.916486 0.581986 0.006658
C525  C     C_R   0.917277 0.083324 0.417690 0.103217
C526  C     C_1   0.721489 0.873356 0.141330 -0.036889
C527  C     C_1   0.242642 0.099887 0.888291 -0.040707
C528  C     C_1   0.185130 0.670487 0.185188 -0.043427
H1    H     H_    0.565554 0.877859 0.966569 0.108806
H2    H     H_    0.440325 0.876846 0.966613 0.073249
H3    H     H_    0.042952 0.918307 0.650625 0.029922
H4    H     H_    0.911920 0.471365 0.851644 0.004811
H5    H     H_    0.044680 0.646062 0.093587 0.033126
H6    H     H_    0.906246 0.850396 0.528188 0.050739
H7    H     H_    0.063187 0.070771 0.344435 0.029605
H8    H     H_    0.832754 0.075168 0.543041 -0.028569
H9    H     H_    0.199935 0.944022 0.414473 0.016789
H10   H     H_    0.548349 0.099385 0.193792 -0.010043
H11   H     H_    0.416425 0.942659 0.804255 -0.005224
H12   H     H_    0.151162 0.091808 0.470871 0.039902
H13   H     H_    0.123553 0.438889 0.036552 0.099257
H14   H     H_    0.932834 0.931503 0.658932 0.029034
H15   H     H_    0.403824 0.069612 0.841527 -0.005823
H16   H     H_    0.594306 0.934740 0.203436 0.006921
H17   H     H_    0.138395 0.892089 0.528679 0.060861
H18   H     H_    0.888912 0.032451 0.355742 -0.014200
H19   H     H_    0.467314 0.911382 0.154084 0.033064
H20   H     H_    0.653756 0.060028 0.937573 0.037997
H21   H     H_    0.830157 0.916526 0.457220 0.068750
H22   H     H_    0.197056 0.058447 0.603550 0.013861
H23   H     H_    0.521883 0.890102 0.872704 0.072180
H24   H     H_    0.877584 0.564579 0.965671 0.088697
H25   H     H_    0.352159 0.046643 0.082758 0.069588
H26   H     H_    0.755304 0.822905 0.021739 0.247130
H27   H     H_    0.712920 0.832364 0.990785 0.263667
H28   H     H_    0.752101 0.868448 0.993904 0.267885
H29   H     H_    0.693007 0.888404 0.033069 0.231677
H30   H     H_    0.735980 0.881525 0.063474 0.202684
H31   H     H_    0.710926 0.815393 0.086073 0.204546
H32   H     H_    0.673360 0.817666 0.049583 0.243476
H33   H     H_    0.289100 0.149049 0.028066 0.279864
H34   H     H_    0.310119 0.162426 0.980353 0.276838
H35   H     H_    0.434259 0.877966 0.033327 0.101831
H36   H     H_    0.272278 0.192450 0.002352 0.218407
H37   H     H_    0.242735 0.152312 0.949841 0.197545
H38   H     H_    0.223924 0.137477 0.997221 0.216453
H39   H     H_    0.236456 0.077113 0.961985 0.183699
H40   H     H_    0.271860 0.080548 0.999115 0.206550
H41   H     H_    0.233670 0.610975 0.052637 0.253527
H42   H     H_    0.191554 0.642767 0.061078 0.257355
H43   H     H_    0.237702 0.663546 0.044163 0.248726
H44   H     H_    0.227420 0.675896 0.115993 0.205682
H45   H     H_    0.270354 0.646498 0.106607 0.209572
H46   H     H_    0.567179 0.121608 0.966874 0.105823
H47   H     H_    0.236634 0.616439 0.163095 0.166591
H48   H     H_    0.232960 0.585182 0.122012 0.223794
H49   H     H_    0.754083 0.263660 0.907420 0.252127
H50   H     H_    0.781916 0.265783 0.952935 0.260657
H51   H     H_    0.736660 0.293384 0.947810 0.252302
H52   H     H_    0.795023 0.337682 0.941257 0.179310
H53   H     H_    0.767166 0.335988 0.896113 0.243238
H54   H     H_    0.814642 0.284971 0.869866 0.185314
H55   H     H_    0.842823 0.287578 0.913020 0.224393
H56   H     H_    0.383837 0.292504 0.167096 0.264559
H57   H     H_    0.884228 0.577925 0.027379 0.113136
H58   H     H_    0.432969 0.286915 0.146436 0.258660
H59   H     H_    0.392953 0.304345 0.115872 0.253104
H60   H     H_    0.407257 0.234183 0.101483 0.194049
H61   H     H_    0.358701 0.239583 0.122665 0.206826
H62   H     H_    0.387695 0.221875 0.189861 0.197148
H63   H     H_    0.433708 0.213971 0.168210 0.230646
H64   H     H_    0.783278 0.831587 0.849527 0.256266
H65   H     H_    0.788023 0.864620 0.891138 0.263467
H66   H     H_    0.788804 0.811781 0.898777 0.261777
H67   H     H_    0.719265 0.806469 0.876790 0.204494
H68   H     H_    0.111771 0.417769 0.977164 0.085462
H69   H     H_    0.723713 0.838695 0.918280 0.227955
H70   H     H_    0.720989 0.868251 0.831588 0.176697
H71   H     H_    0.722162 0.898080 0.873406 0.213323
H72   H     H_    0.711421 0.418928 0.182669 0.274930
H73   H     H_    0.727495 0.467240 0.165450 0.256486
H74   H     H_    0.698942 0.435663 0.133601 0.243507
H75   H     H_    0.769478 0.435031 0.113895 0.185549
H76   H     H_    0.753773 0.387082 0.131422 0.236265
H77   H     H_    0.782174 0.403144 0.198609 0.209265
H78   H     H_    0.799328 0.448786 0.180934 0.235853
H79   H     H_    0.966638 0.565627 0.877733 0.113322
H80   H     H_    0.191222 0.774149 0.851382 0.263114
H81   H     H_    0.161778 0.784008 0.894982 0.263393
H82   H     H_    0.214376 0.776289 0.899123 0.262198
H83   H     H_    0.177979 0.716285 0.921202 0.235325
H84   H     H_    0.206794 0.706945 0.877849 0.202782
H85   H     H_    0.142271 0.721129 0.837304 0.179650
H86   H     H_    0.116583 0.722228 0.882035 0.210604
H87   H     H_    0.548973 0.238554 0.886611 0.258011
H88   H     H_    0.592787 0.218202 0.909633 0.250523
H89   H     H_    0.587275 0.270894 0.904603 0.251520
H90   H     H_    0.031970 0.432756 0.121550 0.087051
H91   H     H_    0.634375 0.244632 0.854357 0.203229
H92   H     H_    0.591872 0.267152 0.832382 0.204312
H93   H     H_    0.604424 0.206580 0.796473 0.163670
H94   H     H_    0.560382 0.201295 0.823231 0.228930
H95   H     H_    0.245256 0.767685 0.112924 0.256538
H96   H     H_    0.247170 0.786821 0.062802 0.269098
H97   H     H_    0.267995 0.739105 0.074395 0.253447
H98   H     H_    0.321284 0.789201 0.066652 0.199523
H99   H     H_    0.318882 0.770247 0.116294 0.238124
H100  H     H_    0.276771 0.831978 0.133894 0.193931
H101  H     H_    0.965047 0.123130 0.561876 0.120820
H102  H     H_    0.284458 0.848613 0.085132 0.228984
H103  H     H_    0.224882 0.234662 0.913810 0.257680
H104  H     H_    0.248462 0.280418 0.928569 0.272069
H105  H     H_    0.233574 0.244401 0.965293 0.248204
H106  H     H_    0.186120 0.299976 0.963872 0.206400
H107  H     H_    0.163247 0.254625 0.948727 0.205022
H108  H     H_    0.176587 0.277237 0.875946 0.216198
H109  H     H_    0.194553 0.321976 0.895430 0.222136
H110  H     H_    0.865727 0.807607 0.023217 0.257223
H111  H     H_    0.879773 0.778531 0.980736 0.274676
H112  H     H_    0.436343 0.122752 0.034695 0.083771
H113  H     H_    0.034141 0.877246 0.439537 0.085485
H114  H     H_    0.828262 0.785007 0.993006 0.255699
H115  H     H_    0.850483 0.718231 0.013286 0.241980
H116  H     H_    0.837159 0.747161 0.055252 0.232069
H117  H     H_    0.909745 0.764363 0.065286 0.177147
H118  H     H_    0.922736 0.734521 0.025399 0.211104
H119  H     H_    0.287538 0.750867 0.934965 0.295395
H120  H     H_    0.310031 0.778494 0.974621 0.250157
H121  H     H_    0.262641 0.793103 0.955451 0.244274
H122  H     H_    0.315848 0.837644 0.930606 0.196434
H123  H     H_    0.292396 0.811085 0.891268 0.231413
H124  H     H_    0.965479 0.435393 0.122573 0.107788
H125  H     H_    0.349736 0.763878 0.888363 0.242384
H126  H     H_    0.368517 0.784917 0.932554 0.222407
H127  H     H_    0.696158 0.205488 0.027982 0.273985
H128  H     H_    0.649519 0.209897 0.054374 0.270989
H129  H     H_    0.680478 0.252630 0.046392 0.213524
H130  H     H_    0.687587 0.230126 0.114816 0.193412
H131  H     H_    0.732912 0.223260 0.088523 0.182398
H132  H     H_    0.724473 0.164146 0.127113 0.138806
H133  H     H_    0.715028 0.151127 0.078367 0.209648
H134  H     H_    0.753473 0.563556 0.905096 0.251842
H135  H     H_    0.033714 0.565421 0.877732 0.104913
H136  H     H_    0.781344 0.606586 0.920600 0.250843
H137  H     H_    0.728169 0.607512 0.920919 0.254076
H138  H     H_    0.755577 0.644920 0.863105 0.246776
H139  H     H_    0.725680 0.603766 0.848692 0.200655
H140  H     H_    0.783256 0.604022 0.806116 0.172796
H141  H     H_    0.786092 0.563020 0.837592 0.235013
H142  H     H_    0.229573 0.250191 0.083729 0.259662
H143  H     H_    0.194453 0.252104 0.043449 0.263137
H144  H     H_    0.242099 0.275703 0.038425 0.253218
H145  H     H_    0.190009 0.325464 0.050579 0.175550
H146  H     H_    0.966299 0.877429 0.439068 0.114069
H147  H     H_    0.224838 0.323761 0.090627 0.239770
H148  H     H_    0.178425 0.279566 0.128937 0.188162
H149  H     H_    0.143627 0.281254 0.090970 0.229242
H150  H     H_    0.119389 0.535655 0.764538 0.259143
H151  H     H_    0.096269 0.581120 0.780363 0.248529
H152  H     H_    0.103276 0.571713 0.728599 0.251634
H153  H     H_    0.153296 0.620020 0.753373 0.203186
H154  H     H_    0.175441 0.575679 0.735274 0.203659
H155  H     H_    0.209128 0.592326 0.796238 0.161798
H156  H     H_    0.181573 0.548966 0.803547 0.231654
H157  H     H_    0.031653 0.121109 0.565272 0.091811
H158  H     H_    0.866936 0.233626 0.212197 0.249927
H159  H     H_    0.914508 0.228133 0.188120 0.281496
H160  H     H_    0.911867 0.242011 0.239396 0.253483
H161  H     H_    0.927733 0.300581 0.197798 0.239588
H162  H     H_    0.880422 0.305558 0.221199 0.205599
H163  H     H_    0.849156 0.279096 0.156406 0.168115
H164  H     H_    0.896038 0.280539 0.134775 0.214055
H165  H     H_    0.021690 0.179656 0.758930 0.243507
H166  H     H_    0.989369 0.178398 0.716867 0.295260
H167  H     H_    0.989269 0.138009 0.751864 0.245156
H168  H     H_    0.036755 0.559381 0.123726 0.115496
H169  H     H_    0.025865 0.116894 0.693347 0.226539
H170  H     H_    0.059199 0.122729 0.733741 0.197575
H171  H     H_    0.078414 0.191376 0.705284 0.185842
H172  H     H_    0.042445 0.183554 0.668161 0.258772
H173  H     H_    0.871370 0.729260 0.299406 0.260519
H174  H     H_    0.913591 0.721142 0.331425 0.271980
H175  H     H_    0.865367 0.702750 0.345368 0.262260
H176  H     H_    0.880131 0.762405 0.383269 0.212514
H177  H     H_    0.840269 0.771888 0.349530 0.210161
H178  H     H_    0.889628 0.801076 0.301177 0.224806
H179  H     H_    0.965021 0.436810 0.877278 0.074844
H180  H     H_    0.927951 0.796164 0.335818 0.183584
H181  H     H_    0.161091 0.385876 0.294939 0.265537
H182  H     H_    0.142096 0.435355 0.287226 0.261984
H183  H     H_    0.109848 0.396470 0.304991 0.252169
H184  H     H_    0.097527 0.409724 0.234109 0.201544
H185  H     H_    0.116996 0.360780 0.241588 0.204628
H186  H     H_    0.185653 0.387861 0.225125 0.196039
H187  H     H_    0.165308 0.434171 0.214750 0.239728
H188  H     H_    0.879313 0.767206 0.785052 0.259315
H189  H     H_    0.928171 0.770543 0.806674 0.276316
H190  H     H_    0.034260 0.122648 0.435479 0.105830
H191  H     H_    0.922322 0.755002 0.756168 0.258133
H192  H     H_    0.886812 0.694521 0.778514 0.221662
H193  H     H_    0.935644 0.696863 0.798821 0.239868
H194  H     H_    0.862209 0.726382 0.844383 0.188715
H195  H     H_    0.909913 0.720169 0.862972 0.213053
H196  H     H_    0.059228 0.777470 0.271242 0.280421
H197  H     H_    0.023316 0.806053 0.298291 0.244930
H198  H     H_    0.043782 0.824960 0.252698 0.252877
H199  H     H_    0.073710 0.857945 0.310666 0.194504
H200  H     H_    0.109840 0.831180 0.282614 0.236358
H201  H     H_    0.965843 0.877528 0.565261 0.105432
H202  H     H_    0.110491 0.776645 0.332568 0.229252
H203  H     H_    0.067144 0.796335 0.354821 0.223857
H204  H     H_    0.885891 0.238211 0.745114 0.256960
H205  H     H_    0.935887 0.219503 0.747722 0.271984
H206  H     H_    0.926160 0.266473 0.724155 0.262211
H207  H     H_    0.937353 0.215572 0.673361 0.241148
H208  H     H_    0.887520 0.233045 0.671712 0.186657
H209  H     H_    0.869872 0.171927 0.717574 0.196020
H210  H     H_    0.917696 0.154815 0.708190 0.192528
H211  H     H_    0.926655 0.720159 0.253572 0.261153
H212  H     H_    0.025358 0.419855 0.886343 0.117129
H213  H     H_    0.913335 0.669644 0.266476 0.277936
H214  H     H_    0.964565 0.683851 0.261954 0.261422
H215  H     H_    0.945378 0.647514 0.202779 0.212720
H216  H     H_    0.954434 0.698516 0.190058 0.217199
H217  H     H_    0.880352 0.710793 0.196178 0.185677
H218  H     H_    0.872014 0.660275 0.203675 0.241142
H219  H     H_    0.963253 0.289906 0.862511 0.281011
H220  H     H_    0.009199 0.311203 0.844129 0.271913
H221  H     H_    0.984044 0.273425 0.816628 0.216457
H222  H     H_    0.040554 0.243537 0.850413 0.221525
H223  H     H_    0.122467 0.565047 0.965514 0.107708
H224  H     H_    0.975686 0.579792 0.113509 0.114021
H225  H     H_    0.995432 0.224838 0.870861 0.184327
H226  H     H_    0.038039 0.237215 0.926247 0.144614
H227  H     H_    0.000601 0.272518 0.927449 0.226098
H228  H     H_    0.821843 0.289763 0.385913 0.264660
H229  H     H_    0.845311 0.285386 0.433775 0.256711
H230  H     H_    0.871231 0.308562 0.393060 0.254879
H231  H     H_    0.896543 0.240827 0.404204 0.195700
H232  H     H_    0.872657 0.244929 0.357146 0.204038
H233  H     H_    0.809537 0.216549 0.389431 0.212357
H234  H     H_    0.835583 0.209552 0.433429 0.191824
H235  H     H_    0.032674 0.878301 0.567201 0.112807
H236  H     H_    0.110561 0.789767 0.773503 0.257521
H237  H     H_    0.060464 0.808060 0.768863 0.276229
H238  H     H_    0.071747 0.757575 0.756393 0.254903
H239  H     H_    0.064103 0.797870 0.695529 0.238247
H240  H     H_    0.113801 0.780235 0.700647 0.216731
H241  H     H_    0.132315 0.847377 0.731020 0.180693
H242  H     H_    0.084159 0.863932 0.722411 0.211172
H243  H     H_    0.953593 0.385275 0.772985 0.262855
H244  H     H_    0.938574 0.351189 0.811733 0.274239
H245  H     H_    0.957954 0.332666 0.765947 0.254124
H246  H     H_    0.968044 0.121229 0.431776 0.082783
H247  H     H_    0.884684 0.325273 0.768525 0.213022
H248  H     H_    0.900328 0.357389 0.729290 0.223860
H249  H     H_    0.842718 0.387785 0.761576 0.210011
H250  H     H_    0.886310 0.416053 0.768288 0.217291
H251  H     H_    0.074202 0.710702 0.262027 0.283252
H252  H     H_    0.032342 0.699093 0.230968 0.274295
H253  H     H_    0.043170 0.669008 0.273781 0.246490
H254  H     H_    0.065058 0.633926 0.215082 0.234439
H255  H     H_    0.107466 0.648728 0.242985 0.178674
H256  H     H_    0.120964 0.704653 0.198407 0.186232
H257  H     H_    0.877571 0.965928 0.564908 0.109855
H258  H     H_    0.076719 0.699220 0.172859 0.214175
H259  H     H_    0.808083 0.716152 0.580290 0.258240
H260  H     H_    0.824466 0.733313 0.532126 0.266046
H261  H     H_    0.856106 0.702318 0.561826 0.251858
H262  H     H_    0.878781 0.771935 0.564095 0.209584
H263  H     H_    0.862191 0.755129 0.611974 0.201799
H264  H     H_    0.796034 0.786883 0.599663 0.198980
H265  H     H_    0.811688 0.804388 0.553582 0.241536
H266  H     H_    0.038018 0.189785 0.288243 0.275864
H267  H     H_    0.057288 0.201212 0.336861 0.266069
H268  H     H_    0.122224 0.033889 0.434328 0.095554
H269  H     H_    0.050038 0.239939 0.300859 0.214314
H270  H     H_    0.120562 0.224706 0.304205 0.220175
H271  H     H_    0.101291 0.210387 0.257377 0.183062
H272  H     H_    0.143975 0.157267 0.277896 0.135700
H273  H     H_    0.095578 0.139755 0.281078 0.216050
H274  H     H_    0.750824 0.086120 0.570538 0.253655
H275  H     H_    0.783251 0.074471 0.611534 0.250186
H276  H     H_    0.730523 0.070578 0.617433 0.253098
H277  H     H_    0.757079 0.131785 0.648844 0.252767
H278  H     H_    0.722431 0.142187 0.610328 0.194920
H279  H     H_    0.563879 0.966678 0.121940 0.101102
H280  H     H_    0.775895 0.188788 0.602043 0.160881
H281  H     H_    0.778218 0.155506 0.563174 0.227768
H282  H     H_    0.263953 0.957137 0.304917 0.248825
H283  H     H_    0.275840 0.946089 0.355670 0.258061
H284  H     H_    0.284100 0.909509 0.317935 0.280235
H285  H     H_    0.210146 0.907602 0.305617 0.201199
H286  H     H_    0.203463 0.942552 0.344571 0.190605
H287  H     H_    0.238308 0.891583 0.391131 0.194206
H288  H     H_    0.237878 0.858093 0.352066 0.195058
H289  H     H_    0.610519 0.179982 0.289128 0.263345
H290  H     H_    0.416553 0.021196 0.889926 0.086399
H291  H     H_    0.566821 0.149079 0.285548 0.255268
H292  H     H_    0.611610 0.129577 0.306821 0.254936
H293  H     H_    0.602875 0.104683 0.238790 0.187011
H294  H     H_    0.645973 0.135603 0.242355 0.209333
H295  H     H_    0.606053 0.193407 0.215610 0.206567
H296  H     H_    0.564321 0.162963 0.211313 0.191651
H297  H     H_    0.351869 0.843336 0.704129 0.255720
H298  H     H_    0.391325 0.879305 0.698390 0.266850
H299  H     H_    0.400811 0.827573 0.690189 0.255781
H300  H     H_    0.427223 0.848040 0.755273 0.218477
H301  H     H_    0.122710 0.967122 0.439942 0.110160
H302  H     H_    0.387881 0.812372 0.760730 0.201574
H303  H     H_    0.340265 0.869642 0.772840 0.235856
H304  H     H_    0.379661 0.902888 0.768494 0.175793
H305  H     H_    0.285716 0.187016 0.416608 0.272901
H306  H     H_    0.269593 0.172431 0.465678 0.256206
H307  H     H_    0.298339 0.138936 0.436077 0.244319
H308  H     H_    0.227971 0.118818 0.436334 0.192700
H309  H     H_    0.243600 0.133794 0.387627 0.236398
H310  H     H_    0.215106 0.201804 0.400068 0.208222
H311  H     H_    0.197569 0.186457 0.446248 0.234746
H312  H     H_    0.878024 0.032482 0.565815 0.089418
H313  H     H_    0.864998 0.891441 0.784396 0.270747
H314  H     H_    0.834117 0.847637 0.781975 0.254555
H315  H     H_    0.886032 0.843296 0.793174 0.257162
H316  H     H_    0.871992 0.824254 0.723684 0.199420
H317  H     H_    0.904163 0.866702 0.726211 0.210742
H318  H     H_    0.846679 0.911581 0.714190 0.237084
H319  H     H_    0.813698 0.871923 0.714175 0.194134
H320  H     H_    0.257960 0.068725 0.760016 0.257492
H321  H     H_    0.309804 0.071852 0.746652 0.261900
H322  H     H_    0.286254 0.024297 0.752836 0.256398
H323  H     H_    0.445854 0.964041 0.876044 0.115165
H324  H     H_    0.328167 0.040303 0.810642 0.178162
H325  H     H_    0.276800 0.036288 0.824219 0.240652
H326  H     H_    0.270541 0.110249 0.820667 0.186282
H327  H     H_    0.320152 0.115295 0.807014 0.230849
H328  H     H_    0.722060 0.909887 0.260898 0.256522
H329  H     H_    0.676273 0.933607 0.275098 0.267312
H330  H     H_    0.686950 0.883982 0.291732 0.258658
H331  H     H_    0.638753 0.881402 0.237345 0.199287
H332  H     H_    0.685140 0.860290 0.222167 0.209247
H333  H     H_    0.702938 0.926947 0.190232 0.194967
H334  H     H_    0.877864 0.434269 0.033449 0.088114
H335  H     H_    0.566971 0.032716 0.121508 0.083234
H336  H     H_    0.656842 0.945400 0.202704 0.167712
H337  H     H_    0.288698 0.819692 0.617553 0.257900
H338  H     H_    0.286762 0.848467 0.572244 0.276851
H339  H     H_    0.308397 0.869279 0.616091 0.250782
H340  H     H_    0.241439 0.896688 0.605253 0.241793
H341  H     H_    0.243378 0.867891 0.649844 0.179487
H342  H     H_    0.214996 0.809095 0.612034 0.193550
H343  H     H_    0.211483 0.838547 0.569482 0.210724
H344  H     H_    0.789545 0.097202 0.232630 0.244585
H345  H     H_    0.825528 0.057660 0.231232 0.274655
H346  H     H_    0.121789 0.033259 0.564610 0.111560
H347  H     H_    0.776293 0.048302 0.249723 0.251844
H348  H     H_    0.823743 0.053396 0.305013 0.191671
H349  H     H_    0.788274 0.092949 0.306374 0.236975
H350  H     H_    0.838701 0.136728 0.270674 0.182165
H351  H     H_    0.873579 0.099009 0.273349 0.235642
H352  H     H_    0.406608 0.826166 0.290114 0.272534
H353  H     H_    0.455916 0.842155 0.276117 0.257174
H354  H     H_    0.422665 0.875960 0.300168 0.245406
H355  H     H_    0.426660 0.891086 0.228666 0.190028
H356  H     H_    0.377751 0.874702 0.242306 0.240077
H357  H     H_    0.877240 0.966213 0.439103 0.086853
H358  H     H_    0.395515 0.805682 0.219931 0.208303
H359  H     H_    0.442180 0.822198 0.204489 0.233797
H360  H     H_    0.782967 0.129351 0.814299 0.257938
H361  H     H_    0.784820 0.083887 0.842912 0.255849
H362  H     H_    0.778306 0.082297 0.790095 0.268374
H363  H     H_    0.714504 0.069416 0.823826 0.236096
H364  H     H_    0.713007 0.114780 0.796207 0.198392
H365  H     H_    0.729390 0.151682 0.860557 0.177001
H366  H     H_    0.726558 0.106819 0.886370 0.212081
H367  H     H_    0.757633 0.965755 0.288977 0.270044
H368  H     H_    0.435928 0.033219 0.122613 0.113202
H369  H     H_    0.742094 0.970542 0.339915 0.272246
H370  H     H_    0.770885 0.008933 0.316711 0.239651
H371  H     H_    0.814813 0.970913 0.359364 0.206280
H372  H     H_    0.827678 0.961030 0.309142 0.225658
H373  H     H_    0.789394 0.898721 0.310081 0.180152
H374  H     H_    0.771632 0.906313 0.357810 0.225494
H375  H     H_    0.267490 0.124397 0.710123 0.262900
H376  H     H_    0.278134 0.087307 0.673229 0.266878
H377  H     H_    0.291885 0.138262 0.664736 0.261840
H378  H     H_    0.232489 0.123404 0.626333 0.204469
H379  H     H_    0.565657 0.966679 0.877876 0.114791
H380  H     H_    0.220511 0.157416 0.665083 0.213147
H381  H     H_    0.197549 0.099368 0.707097 0.200027
H382  H     H_    0.204782 0.066932 0.667642 0.176070
H383  H     H_    0.562467 0.786618 0.734298 0.257902
H384  H     H_    0.517647 0.793592 0.762807 0.270620
H385  H     H_    0.529715 0.827055 0.722820 0.250859
H386  H     H_    0.543944 0.858130 0.786979 0.227387
H387  H     H_    0.588638 0.851175 0.759100 0.194863
H388  H     H_    0.603135 0.789582 0.796551 0.179066
H389  H     H_    0.560325 0.793008 0.824682 0.242859
H390  H     H_    0.878515 0.033104 0.432889 0.099552
H391  H     H_    0.240119 0.104736 0.225053 0.252556
H392  H     H_    0.241292 0.056321 0.202532 0.276651
H393  H     H_    0.259167 0.062918 0.252195 0.253499
H394  H     H_    0.315551 0.057393 0.205917 0.240073
H395  H     H_    0.313851 0.105552 0.227424 0.182012
H396  H     H_    0.276195 0.129203 0.164899 0.175765
H397  H     H_    0.284117 0.082797 0.144233 0.211652
H398  H     H_    0.121301 0.967289 0.567567 0.114793
H399  H     H_    0.567221 0.033565 0.878446 0.111306
H400  H     H_    0.433223 0.966118 0.121698 0.095952
H401  H     H_    0.782811 0.824491 0.086338 0.009258
H402  H     H_    0.419754 0.113790 0.974338 0.118101
H403  H     H_    0.150976 0.181616 0.940002 0.016097
H404  H     H_    0.273048 0.686395 0.171664 0.014880
H405  H     H_    0.705625 0.264487 0.845328 0.007105
H406  H     H_    0.288430 0.248036 0.149657 0.003099
H407  H     H_    0.694905 0.730819 0.838805 0.033997
H408  H     H_    0.687478 0.274513 0.166943 0.020103
H409  H     H_    0.277363 0.683158 0.828167 0.030957
H410  H     H_    0.165614 0.693069 0.728684 0.012478
H411  H     H_    0.844557 0.266538 0.296615 0.007402
H412  H     H_    0.087785 0.194706 0.769928 0.012259
H413  H     H_    0.564300 0.878225 0.033033 0.080961
H414  H     H_    0.910602 0.778997 0.205724 0.017989
H415  H     H_    0.160450 0.305223 0.265696 0.016064
H416  H     H_    0.840636 0.737301 0.696806 0.006526
H417  H     H_    0.156709 0.701426 0.269050 0.022076
H418  H     H_    0.834420 0.273420 0.686832 0.022037
H419  H     H_    0.700213 0.159826 0.732919 0.016346
H420  H     H_    0.252339 0.855661 0.280844 0.019913
H421  H     H_    0.718046 0.147562 0.244672 -0.005721
H422  H     H_    0.264954 0.850202 0.715478 0.004098
H423  H     H_    0.301227 0.157849 0.270726 0.025444
H424  H     H_    0.876923 0.437245 0.965851 0.086507
H425  H     H_    0.694395 0.841618 0.732645 0.016376
H426  H     H_    0.180109 0.073176 0.770458 0.006227
H427  H     H_    0.768363 0.925208 0.199160 0.015043
H428  H     H_    0.568043 0.826647 0.073377 0.034637
H429  H     H_    0.361797 0.043883 0.993699 0.032492
H430  H     H_    0.157974 0.536573 0.077588 -0.013379
H431  H     H_    0.867148 0.367161 0.968121 -0.044416
H432  H     H_    0.457770 0.165318 0.080161 -0.035674
H433  H     H_    0.652574 0.946816 0.924515 0.045381
H434  H     H_    0.846057 0.470560 0.088488 -0.010029
H435  H     H_    0.121501 0.567102 0.031582 0.087984
H436  H     H_    0.063775 0.653656 0.932736 0.035775
H437  H     H_    0.530598 0.149454 0.902915 0.003641
H438  H     H_    0.355058 0.893115 0.035169 0.002393
H439  H     H_    0.156837 0.406207 0.924455 0.007510
H440  H     H_    0.950635 0.640327 0.015473 0.031222
H441  H     H_    0.466905 0.832617 0.926936 0.037338
H442  H     H_    0.653768 0.080592 0.049268 0.015391
H443  H     H_    0.834601 0.541270 0.919226 -0.015884
H444  H     H_    0.117378 0.362036 0.031893 -0.026954
H445  H     H_    0.099156 0.523888 0.854948 0.007456
H446  H     H_    0.565305 0.122261 0.033322 0.109009
H447  H     H_    0.942199 0.346931 0.076208 0.042561
H448  H     H_    0.073121 0.172498 0.564700 0.030097
H449  H     H_    0.943937 0.803307 0.398916 0.022885
H450  H     H_    0.078683 0.457906 0.164527 -0.022203
H451  H     H_    0.951360 0.650210 0.919915 0.057040
H452  H     H_    0.076032 0.830784 0.459013 0.017734
H453  H     H_    0.953445 0.091184 0.649736 0.026519
H454  H     H_    0.919976 0.578315 0.156708 0.010689
H455  H     H_    0.010019 0.363822 0.962341 0.037672
H456  H     H_    0.896486 0.191026 0.454674 -0.001635
N1    N     N_R   0.543640 0.937740 0.965010 -0.043721
N2    N     N_R   0.456360 0.937740 0.965010 -0.039570
N3    N     N_R   0.062260 0.456360 0.034990 -0.040086
N4    N     N_R   0.937740 0.543640 0.965010 -0.045974
N5    N     N_R   0.456360 0.937740 0.034990 -0.041064
N6    N     N_R   0.543640 0.062260 0.965010 -0.044814
N7    N     N_R   0.937740 0.543640 0.034990 -0.047261
N8    N     N_R   0.062260 0.456360 0.965010 -0.040008
N9    N     N_R   0.965010 0.543640 0.937740 -0.044560
N10   N     N_R   0.034990 0.456360 0.062260 -0.043915
N11   N     N_R   0.965010 0.062260 0.543640 -0.050255
N12   N     N_R   0.456360 0.062260 0.034990 -0.051144
N13   N     N_R   0.034990 0.937740 0.456360 -0.042819
N14   N     N_R   0.965010 0.456360 0.062260 -0.046016
N15   N     N_R   0.034990 0.543640 0.937740 -0.041430
N16   N     N_R   0.965010 0.937740 0.456360 -0.049081
N17   N     N_R   0.034990 0.062260 0.543640 -0.046716
N18   N     N_R   0.034990 0.543640 0.062260 -0.045464
N19   N     N_R   0.965010 0.456360 0.937740 -0.049190
N20   N     N_R   0.034990 0.062260 0.456360 -0.050021
N21   N     N_R   0.965010 0.937740 0.543640 -0.041588
N22   N     N_R   0.034990 0.456360 0.937740 -0.049890
N23   N     N_R   0.062260 0.543640 0.965010 -0.045365
N24   N     N_R   0.965010 0.543640 0.062260 -0.041408
N25   N     N_R   0.034990 0.937740 0.543640 -0.042335
N26   N     N_R   0.965010 0.062260 0.456360 -0.050990
N27   N     N_R   0.937740 0.965010 0.543640 -0.049225
N28   N     N_R   0.062260 0.034990 0.456360 -0.039591
N29   N     N_R   0.543640 0.965010 0.062260 -0.053252
N30   N     N_R   0.456360 0.034990 0.937740 -0.041366
N31   N     N_R   0.062260 0.965010 0.456360 -0.047947
N32   N     N_R   0.937740 0.034990 0.543640 -0.044522
N33   N     N_R   0.456360 0.965010 0.937740 -0.046391
N34   N     N_R   0.937740 0.456360 0.034990 -0.038865
N35   N     N_R   0.543640 0.034990 0.062260 -0.045735
N36   N     N_R   0.062260 0.034990 0.543640 -0.051643
N37   N     N_R   0.937740 0.965010 0.456360 -0.041163
N38   N     N_R   0.456360 0.034990 0.062260 -0.047588
N39   N     N_R   0.543640 0.965010 0.937740 -0.040396
N40   N     N_R   0.937740 0.034990 0.456360 -0.044897
N41   N     N_R   0.062260 0.965010 0.543640 -0.043140
N42   N     N_R   0.543640 0.034990 0.937740 -0.045319
N43   N     N_R   0.456360 0.965010 0.062260 -0.045953
N44   N     N_R   0.456360 0.062260 0.965010 -0.051610
N45   N     N_R   0.543640 0.937740 0.034990 -0.042771
N46   N     N_R   0.937740 0.456360 0.965010 -0.040696
N47   N     N_R   0.062260 0.543640 0.034990 -0.040471
N48   N     N_R   0.543640 0.062260 0.034990 -0.050712
Ni1   Ni    Ni4+2 0.500000 0.938380 0.000000 0.216936
Ni2   Ni    Ni4+2 0.061620 0.000000 0.500000 0.234124
Ni3   Ni    Ni4+2 0.500000 0.000000 0.061620 0.238507
Ni4   Ni    Ni4+2 0.500000 0.000000 0.938380 0.227297
Ni5   Ni    Ni4+2 0.500000 0.061620 0.000000 0.220600
Ni6   Ni    Ni4+2 0.061620 0.500000 0.000000 0.222081
Ni7   Ni    Ni4+2 0.938380 0.500000 0.000000 0.213076
Ni8   Ni    Ni4+2 0.000000 0.500000 0.938380 0.210397
Ni9   Ni    Ni4+2 1.000000 0.500000 0.061620 0.219773
Ni10  Ni    Ni4+2 0.000000 0.061620 0.500000 0.235634
Ni11  Ni    Ni4+2 0.000000 0.938380 0.500000 0.218183
Ni12  Ni    Ni4+2 0.938380 0.000000 0.500000 0.229127
O1    O     O_2   0.789589 0.770235 0.108197 -0.582861
O2    O     O_2   0.825042 0.320129 0.283700 -0.576667
O3    O     O_2   0.109064 0.238898 0.801272 -0.574229
O4    O     O_2   0.921984 0.828331 0.234536 -0.584139
O5    O     O_2   0.175041 0.285877 0.318850 -0.575198
O6    O     O_2   0.829960 0.685549 0.722168 -0.585263
O7    O     O_2   0.135528 0.756067 0.266367 -0.625718
O8    O     O_2   0.822014 0.323604 0.713303 -0.598619
O9    O     O_2   0.755243 0.142267 0.722966 -0.602532
O10   O     O_2   0.307884 0.838510 0.274206 -0.596981
O11   O     O_2   0.733377 0.155368 0.300397 -0.583009
O12   O     O_2   0.163157 0.124738 0.946355 -0.593670
O13   O     O_2   0.266357 0.862852 0.772604 -0.590720
O14   O     O_2   0.277807 0.172373 0.321943 -0.601464
O15   O     O_2   0.717082 0.828583 0.680592 -0.569361
O16   O     O_2   0.193463 0.048166 0.821521 -0.578220
O17   O     O_2   0.812898 0.932388 0.235773 -0.602344
O18   O     O_2   0.614387 0.791451 0.072895 -0.573570
O19   O     O_2   0.340591 0.093563 0.016244 -0.625290
O20   O     O_2   0.189160 0.530572 0.126158 -0.545073
O21   O     O_2   0.897524 0.320738 0.949225 -0.564810
O22   O     O_2   0.477219 0.170160 0.134979 -0.567512
O23   O     O_2   0.321857 0.716865 0.180995 -0.588030
O24   O     O_2   0.692286 0.906232 0.938848 -0.606264
O25   O     O_2   0.848516 0.486214 0.144792 -0.558346
O26   O     O_2   0.109671 0.687806 0.945574 -0.598586
O27   O     O_2   0.522813 0.144798 0.844989 -0.568855
O28   O     O_2   0.309496 0.912944 0.066378 -0.568665
O29   O     O_2   0.171214 0.385161 0.871889 -0.549805
O30   O     O_2   0.905562 0.670842 0.993757 -0.612756
O31   O     O_2   0.437074 0.782649 0.923320 -0.580281
O32   O     O_2   0.665004 0.134848 0.029449 -0.602434
O33   O     O_2   0.837489 0.521216 0.864422 -0.558019
O34   O     O_2   0.723879 0.317831 0.829226 -0.579267
O35   O     O_2   0.090212 0.316032 0.056944 -0.580147
O36   O     O_2   0.156972 0.515661 0.861185 -0.571529
O37   O     O_2   0.955421 0.321519 0.127448 -0.581219
O38   O     O_2   0.068460 0.209143 0.609504 -0.577507
O39   O     O_2   0.919637 0.819789 0.449384 -0.577995
O40   O     O_2   0.133796 0.477891 0.167325 -0.545822
O41   O     O_2   0.964501 0.672638 0.867178 -0.607942
O42   O     O_2   0.075520 0.785290 0.422923 -0.586046
O43   O     O_2   0.967853 0.148260 0.650089 -0.616546
O44   O     O_2   0.867373 0.595406 0.175563 -0.551559
O45   O     O_2   0.273116 0.303665 0.158165 -0.579225
O46   O     O_2   0.982232 0.340999 0.916214 -0.576138
O47   O     O_2   0.895265 0.136670 0.476341 -0.561502
O48   O     O_2   0.031574 0.864826 0.672357 -0.601711
O49   O     O_2   0.872677 0.469168 0.809154 -0.544475
O50   O     O_2   0.029945 0.649123 0.150201 -0.622548
O51   O     O_2   0.849126 0.850515 0.515138 -0.579187
O52   O     O_2   0.041086 0.121123 0.323883 -0.580788
O53   O     O_2   0.826726 0.128896 0.520204 -0.567695
O54   O     O_2   0.176431 0.923178 0.464135 -0.559238
O55   O     O_2   0.522769 0.101534 0.141408 -0.557727
O56   O     O_2   0.749386 0.721535 0.858132 -0.605181
O57   O     O_2   0.467802 0.919033 0.819966 -0.601354
O58   O     O_2   0.151451 0.148612 0.484933 -0.558005
O59   O     O_2   0.882905 0.957639 0.675309 -0.590603
O60   O     O_2   0.388170 0.124721 0.828785 -0.559347
O61   O     O_2   0.550167 0.911143 0.174020 -0.565113
O62   O     O_2   0.192543 0.905203 0.547090 -0.552225
O63   O     O_2   0.918013 0.058321 0.311463 -0.561427
O64   O     O_2   0.482220 0.854675 0.154363 -0.546047
O65   O     O_2   0.687518 0.045815 0.891937 -0.602162
O66   O     O_2   0.789632 0.934087 0.419146 -0.594959
O67   O     O_2   0.717142 0.323890 0.175540 -0.601081
O68   O     O_2   0.176136 0.086153 0.556440 -0.564375
O69   O     O_2   0.518685 0.832902 0.862161 -0.594078
O70   O     O_2   0.334435 0.031109 0.136547 -0.589121
O71   O     O_2   0.291127 0.731894 0.857093 -0.621926
O72   O     O_2   0.175371 0.726979 0.681954 -0.587951

loop_
_geom_bond_atom_site_label_1
_geom_bond_atom_site_label_2
_ccdc_geom_bond_type
C287  O40   D    
C269  O21   D    
C322  C324  S    
C459  C460  S    
C104  C475  S    
C465  H373  S    
C205  C517  A    
C366  H138  S    
C334  C468  A    
C440  H305  S    
C411  C413  S    
C72   C346  A    
C425  C426  S    
C233  C500  A    
C6    C32   T    
N24   Ni9   S    
C338  H65   S    
C15   C323  S    
C95   C168  A    
C402  H226  S    
C256  C491  S    
C477  H393  S    
C337  C338  S    
C322  H38   S    
C330  H49   S    
C81   C134  A    
C98   C152  A    
C469  C470  S    
C188  N34   A    
C367  H137  S    
C7    C246  S    
C413  C414  S    
C459  H358  S    
N25   N41   A    
C54   C107  A    
C52   C318  S    
C361  H120  S    
C77   C379  A    
C385  H186  S    
C333  H59   S    
C108  C269  S    
C14   C40   T    
N32   Ni12  S    
C117  C276  S    
C101  C489  A    
C93   C147  A    
C414  H244  S    
C120  C280  S    
C264  O17   D    
C65   C359  S    
C204  N10   A    
C189  H402  S    
C342  H86   S    
C359  H126  S    
C67   C121  A    
C79   C484  A    
C203  N9    A    
C124  C483  A    
C64   C118  A    
C372  C373  S    
C209  C520  A    
C391  H191  S    
C228  N33   A    
C148  C160  A    
C158  C317  S    
C394  H196  S    
C225  N30   A    
C419  H262  S    
C265  O18   D    
C477  H392  S    
C476  H394  S    
C263  H426  S    
C216  C516  A    
C191  C505  A    
C200  N7    A    
C463  H363  S    
C117  C170  A    
C420  H260  S    
C141  C300  S    
C214  N20   A    
C17   C346  S    
C77   C395  S    
C215  C523  A    
C358  H110  S    
C188  H334  S    
C61   C115  A    
C208  H135  S    
C59   C111  A    
C22   C401  S    
C114  C166  A    
C326  C327  S    
C155  C315  S    
C348  H89   S    
C210  N17   A    
C250  H412  S    
C329  C330  S    
C384  H175  S    
C250  O3    D    
C214  H190  S    
C243  C478  S    
C171  C515  S    
C433  H291  S    
C217  H224  S    
C353  H107  S    
C252  O5    D    
C306  H14   S    
C243  H406  S    
C87   C379  A    
C7    C33   T    
C443  H314  S    
C370  H147  S    
C439  H309  S    
C419  H263  S    
C111  C272  S    
C286  H449  S    
C226  N31   A    
C408  H241  S    
C223  C489  A    
C298  O51   D    
C304  H11   S    
C430  H284  S    
C256  O9    D    
C78   C290  A    
C474  H385  S    
C157  C495  A    
C300  O53   D    
C282  O35   D    
C411  H250  S    
C233  N39   A    
C112  C446  A    
C463  C464  S    
C237  H399  S    
C427  H274  S    
C324  H33   S    
C251  H414  S    
C186  N12   A    
C340  C341  S    
N26   Ni10  S    
C109  C163  A    
C74   C385  S    
C237  N42   A    
C162  C506  S    
C110  C164  A    
C342  C343  S    
C90   C486  A    
C170  C516  S    
C340  H76   S    
C264  C499  S    
C311  O64   D    
C89   C143  A    
C51   C157  S    
C344  H82   S    
C435  H304  S    
C414  H245  S    
C297  O50   D    
C93   C441  S    
C354  H105  S    
C40   C46   S    
C133  C170  A    
C344  H80   S    
C299  O52   D    
C28   C528  T    
C303  H10   S    
C18   C44   T    
C262  C497  S    
C448  H320  S    
C97   C455  S    
C355  C356  S    
C145  C184  A    
C125  C284  S    
C119  C278  S    
C96   C150  A    
C367  H136  S    
C320  H27   S    
C76   C392  S    
C140  C184  A    
C19   C368  S    
C25   C423  S    
C389  H192  S    
C240  C446  S    
C285  H448  S    
N6    N42   A    
C251  C486  S    
C139  C298  S    
C22   C49   T    
C440  H306  S    
C191  N45   A    
C400  H214  S    
N18   N47   A    
C288  O41   D    
N19   N46   A    
C351  H96   S    
C156  C316  S    
C225  C504  A    
C369  H149  S    
C211  C508  A    
N47   Ni6   S    
C143  C173  A    
C383  C384  S    
N35   Ni3   S    
C237  C514  A    
C436  C437  S    
C295  O48   D    
C232  C501  A    
C329  H52   S    
C33   C507  S    
C376  H162  S    
C315  O68   D    
C128  C175  A    
C336  H70   S    
C278  H441  S    
C58   C110  A    
C253  H416  S    
C373  H154  S    
C67   C365  S    
C398  H217  S    
C59   C235  A    
N41   Ni2   S    
C454  H338  S    
C326  H45   S    
C336  C337  S    
C193  H435  S    
C29   C334  S    
C218  C524  A    
C375  C376  S    
C400  H211  S    
C230  H346  S    
C244  O56   D    
N22   Ni8   S    
C399  H216  S    
C393  C394  S    
C441  H319  S    
C305  H12   S    
C232  H368  S    
C131  C291  S    
C270  O22   D    
C295  H3    S    
C416  C417  S    
N20   N28   A    
C382  H180  S    
C338  H64   S    
C439  H308  S    
C197  H24   S    
C442  H316  S    
C95   C449  S    
C464  H362  S    
C23   C412  S    
C432  H294  S    
C69   C335  A    
C300  H8    S    
C35   C494  A    
C375  H163  S    
C118  C171  A    
C73   C357  A    
C277  O30   D    
C61   C345  S    
N4    N9    A    
C195  N2    A    
N3    N10   A    
C405  H233  S    
C350  C351  S    
C360  H122  S    
C20   C47   T    
N5    Ni1   S    
C296  O49   D    
C34   C518  S    
C327  H42   S    
C381  H165  S    
C455  H350  S    
C347  H91   S    
C103  C156  A    
C387  H182  S    
C232  N38   A    
C273  O26   D    
C321  C322  S    
C426  C427  S    
C154  C177  A    
C397  H205  S    
C359  C360  S    
C75   C388  S    
C296  H4    S    
C275  O28   D    
C200  H57   S    
C273  H436  S    
C267  O20   D    
C442  H317  S    
C409  C410  S    
C365  C366  S    
C339  H78   S    
N8    N22   A    
C471  H376  S    
C261  H423  S    
C121  C174  A    
C393  H199  S    
C430  H282  S    
C372  H155  S    
C371  H143  S    
C380  C381  S    
C209  N16   A    
C164  C500  S    
C155  C176  A    
C221  N28   A    
C239  C434  S    
C332  H60   S    
C421  C422  S    
C241  C457  S    
C141  C180  A    
C154  C314  S    
C218  H235  S    
C60   C114  A    
C419  C420  S    
N15   N23   A    
C76   C368  A    
N29   N45   A    
C261  O14   D    
C195  H2    S    
C449  H333  S    
C370  C371  S    
C213  C506  A    
C394  H197  S    
C429  C430  S    
C447  H325  S    
C328  H55   S    
N7    Ni7   S    
C71   C375  S    
C315  H22   S    
C217  N24   A    
C176  C521  S    
C200  C515  A    
N46   Ni7   S    
C461  H353  S    
N33   Ni4   S    
C307  H15   S    
C210  C521  A    
N7    N24   A    
C393  H200  S    
C298  H6    S    
C289  H452  S    
C316  H23   S    
C223  C457  A    
N39   Ni4   S    
C89   C431  S    
C105  C265  S    
C399  C400  S    
C55   C201  A    
C367  H134  S    
C314  O66   D    
C21   C390  S    
C302  O54   D    
C196  N3    A    
C459  H359  S    
C64   C290  A    
C203  C512  A    
C77   C131  A    
C3    C29   T    
C437  H297  S    
C394  H198  S    
C240  O12   D    
C62   C268  A    
C466  H371  S    
C366  C367  S    
N31   Ni2   S    
C76   C130  A    
C451  H330  S    
C86   C423  A    
C98   C268  A    
C388  C389  S    
C416  H255  S    
C249  C483  S    
C222  H279  S    
C407  H229  S    
C80   C279  A    
C341  H74   S    
C424  H267  S    
C175  C511  S    
C391  H188  S    
C111  C165  A    
N10   Ni9   S    
C71   C235  A    
C10   C279  S    
C46   C493  A    
C209  H146  S    
C416  H254  S    
C438  H310  S    
C135  C494  A    
C72   C378  S    
C49   C135  S    
C274  O27   D    
C180  C517  S    
C123  C166  A    
N16   Ni11  S    
C448  H322  S    
C378  H171  S    
N29   Ni3   S    
C54   C325  S    
C410  H236  S    
C417  H251  S    
C204  C511  A    
N30   Ni4   S    
C53   C179  A    
C374  H152  S    
C360  C361  S    
C20   C379  S    
C205  N11   A    
C148  C307  S    
C384  H174  S    
C94   C148  A    
C482  C507  A    
C85   C412  A    
C474  H384  S    
C41   C57   S    
C348  H88   S    
C462  H366  S    
C222  C505  A    
C443  H315  S    
C96   C452  S    
N43   Ni3   S    
C332  C333  S    
C247  C481  S    
C242  H405  S    
C458  H344  S    
C435  C436  S    
C321  H39   S    
C314  H21   S    
C66   C312  A    
C470  C471  S    
C255  C490  S    
C8    C34   T    
C65   C301  A    
C213  N19   A    
C425  H281  S    
C454  H339  S    
C364  H127  S    
C82   C408  S    
C319  C320  S    
C467  H367  S    
C278  O31   D    
C283  H445  S    
C410  H237  S    
C427  H275  S    
C91   C144  A    
C125  C165  A    
C231  C520  A    
C134  C294  S    
N45   Ni1   S    
C450  H331  S    
C88   C428  S    
C381  H167  S    
N28   Ni2   S    
C259  H421  S    
C229  C509  A    
C431  C432  S    
C165  C503  S    
C447  H324  S    
C248  O72   D    
C248  H410  S    
C306  O59   D    
C13   C484  A    
C356  C358  S    
C356  H115  S    
C392  H203  S    
C146  C488  A    
C408  C409  S    
C458  H345  S    
C406  H232  S    
C291  H453  S    
C172  C510  S    
C153  C313  S    
C158  C163  A    
C259  C493  S    
C395  H210  S    
C67   C323  A    
N36   Ni2   S    
C281  O33   D    
C52   C105  A    
C466  C467  S    
C178  C519  S    
C397  H204  S    
C320  H26   S    
C1    C26   S    
C222  N29   A    
C252  C487  S    
C345  C347  S    
C104  C212  A    
C277  H440  S    
C192  H424  S    
C382  C383  S    
C56   C109  A    
C14   C312  S    
C362  H132  S    
C428  C429  S    
C355  H117  S    
C467  H370  S    
C402  C403  S    
C79   C498  A    
C100  C154  A    
C245  O67   D    
C307  O60   D    
C341  H73   S    
C221  C522  A    
C1    C499  A    
C227  N32   A    
C26   C526  T    
C221  H268  S    
C121  C281  S    
C173  C509  S    
C328  C329  S    
C370  H145  S    
N37   Ni12  S    
C91   C435  S    
C402  H227  S    
C271  O24   D    
C131  C180  A    
C19   C45   T    
C186  H112  S    
C215  N21   A    
C167  C514  S    
C193  C508  A    
C197  N4    A    
C24   C486  A    
C55   C328  S    
C426  H277  S    
C55   C108  A    
C361  H119  S    
C253  C488  S    
C333  H58   S    
C16   C335  S    
C383  H177  S    
C458  H347  S    
N14   Ni9   S    
C362  H133  S    
C90   C499  A    
C206  N13   A    
C169  C513  S    
C85   C418  S    
C93   C412  A    
C63   C279  A    
C225  H290  S    
C380  H169  S    
C388  H195  S    
C69   C122  A    
C66   C362  S    
C230  N36   A    
N17   Ni10  S    
C359  H125  S    
C130  C289  S    
C310  O63   D    
C333  H56   S    
C84   C415  S    
C293  H455  S    
C205  H101  S    
C94   C179  A    
C243  O45   D    
C477  H391  S    
C214  C522  A    
C245  H408  S    
C479  C485  A    
C465  H374  S    
C460  H355  S    
C299  H7    S    
C91   C301  A    
C319  H30   S    
C481  C507  A    
C449  C450  S    
C136  C182  A    
C17   C43   T    
C473  H387  S    
C302  H9    S    
C60   C342  S    
N40   Ni12  S    
C92   C438  S    
C436  H300  S    
C417  H253  S    
C442  C443  S    
N14   N34   A    
C345  H94   S    
C374  H150  S    
C456  H348  S    
C327  H43   S    
C309  O62   D    
C384  H173  S    
C455  H351  S    
C469  H382  S    
C387  H183  S    
C353  H106  S    
C185  H1    S    
C443  H313  S    
C102  C469  S    
C98   C459  S    
C92   C423  A    
C428  H287  S    
C61   C257  A    
C6    C235  S    
C403  H222  S    
C353  C354  S    
C311  H19   S    
C475  H396  S    
C150  C182  A    
C199  N6    A    
C472  C473  S    
C305  O58   D    
C259  O11   D    
C147  C306  S    
C280  H442  S    
C441  H318  S    
C411  H249  S    
C444  C447  S    
C228  C510  A    
C318  H31   S    
C325  H48   S    
C324  H34   S    
C413  H247  S    
C409  H240  S    
C247  H409  S    
C211  H168  S    
C191  H413  S    
C168  C526  S    
C215  H201  S    
C24   C434  A    
C258  O10   D    
C63   C117  A    
C241  H404  S    
C163  C501  S    
C349  H102  S    
C99   C257  A    
C328  H54   S    
C196  H13   S    
C21   C48   T    
C208  N15   A    
N21   N27   A    
C435  H303  S    
C253  O6    D    
C234  C525  A    
C421  H273  S    
C343  H84   S    
N17   N36   A    
C341  H72   S    
C415  H256  S    
C438  C439  S    
C377  H159  S    
C130  C178  A    
C292  H454  S    
C464  H361  S    
C35   C481  A    
C415  H258  S    
C378  H172  S    
C285  O38   D    
C283  O36   D    
C68   C478  A    
C464  H360  S    
C107  C161  A    
C190  C528  S    
C12   C301  S    
C245  C480  S    
C207  C503  A    
C272  O25   D    
C320  H28   S    
C187  N23   A    
C363  C364  S    
C396  H207  S    
C151  C310  S    
C366  H139  S    
C179  C527  S    
C233  H379  S    
C54   C190  A    
C206  C519  A    
C383  H176  S    
C217  C515  A    
C219  N26   A    
C433  H292  S    
C250  C484  S    
C134  C181  A    
C50   C146  S    
C407  H228  S    
C455  C456  S    
C142  C302  S    
C351  H95   S    
C153  C167  A    
C369  H148  S    
C247  O71   D    
C124  C493  A    
C424  H266  S    
C343  C344  S    
N21   Ni11  S    
C219  H246  S    
C258  H420  S    
N34   Ni7   S    
C351  H97   S    
C146  C497  A    
C476  C477  S    
C322  H37   S    
C313  O65   D    
C151  C181  A    
C140  C299  S    
C64   C355  S    
C199  H46   S    
C331  H62   S    
C208  C502  A    
N38   Ni3   S    
C106  C266  S    
C317  H25   S    
C350  H99   S    
C361  H121  S    
C447  C448  S    
C266  H429  S    
C408  H242  S    
C238  N43   A    
C238  H400  S    
C396  C397  S    
C15   C41   T    
C114  C273  S    
C104  C158  A    
C347  C348  S    
C240  H403  S    
C58   C224  A    
C456  H349  S    
C452  C453  S    
C23   C50   T    
C291  O43   D    
C338  H66   S    
N19   Ni8   S    
C73   C127  A    
C220  C523  A    
C103  C472  S    
C404  H219  S    
C202  H68   S    
C127  C177  A    
C271  H433  S    
C255  O8    D    
C116  C275  S    
C35   C39   S    
C439  C440  S    
C149  C159  A    
N9    Ni8   S    
C109  C270  S    
C135  C482  A    
C373  H153  S    
C103  C224  A    
C159  C505  S    
C207  N14   A    
C463  H364  S    
C420  H259  S    
C213  H179  S    
C474  H383  S    
C349  C350  S    
N15   Ni8   S    
C413  H248  S    
C157  C487  A    
C330  H50   S    
C207  H124  S    
C97   C151  A    
C81   C390  A    
C436  H302  S    
C294  O47   D    
N13   N31   A    
C96   C401  A    
C122  C282  S    
C69   C369  S    
C236  N41   A    
C231  H357  S    
C185  N1    A    
C70   C246  A    
N12   N38   A    
C418  C419  S    
C387  H181  S    
C94   C444  S    
C187  C502  A    
C3    C201  S    
C129  C174  A    
C392  H202  S    
C102  C346  A    
C378  C380  S    
C73   C382  S    
C339  H77   S    
C89   C312  A    
C471  H375  S    
C100  C465  S    
C83   C137  A    
C46   C480  A    
C430  H283  S    
C372  H156  S    
C238  C513  A    
C385  C386  S    
C30   C445  S    
C469  H381  S    
C47   C113  S    
N13   Ni11  S    
C218  N25   A    
C147  C183  A    
C462  C463  S    
C16   C42   T    
C324  H36   S    
C137  C296  S    
C182  C524  S    
N16   N37   A    
C128  C287  S    
C392  C393  S    
C281  H443  S    
C4    C212  S    
C485  C497  A    
C308  H16   S    
C118  C277  S    
C204  H90   S    
C395  C396  S    
C68   C487  A    
C56   C212  A    
C249  O2    D    
C234  H390  S    
C340  H75   S    
C58   C336  S    
N8    Ni6   S    
C53   C321  S    
C144  C172  A    
N48   Ni5   S    
C344  H81   S    
C239  H401  S    
C452  H343  S    
N12   Ni5   S    
C398  H218  S    
C399  H215  S    
C254  O7    D    
C267  H430  S    
C12   C39   T    
C80   C402  S    
C386  C387  S    
C472  H388  S    
C385  H187  S    
C203  H79   S    
C331  C332  S    
C292  O44   D    
C429  H286  S    
C310  H18   S    
C156  C164  A    
C211  N18   A    
C152  C169  A    
C342  H85   S    
C115  C274  S    
C325  H47   S    
C105  C159  A    
C287  H450  S    
C160  C504  S    
C226  H301  S    
C106  C160  A    
C99   C153  A    
C145  C305  S    
C138  C161  A    
C181  C525  S    
C186  C501  A    
C437  H299  S    
C113  C490  A    
C194  H446  S    
C220  N27   A    
C337  H69   S    
C272  H434  S    
C62   C116  A    
C80   C133  A    
C466  H372  S    
C404  H221  S    
C166  C502  S    
C461  H352  S    
C53   C106  A    
C400  H213  S    
C451  H329  S    
C388  H194  S    
C460  C461  S    
C456  C458  S    
C422  H271  S    
C362  C363  S    
C72   C126  A    
C325  C326  S    
C389  C391  S    
C260  C494  S    
C406  C407  S    
C71   C125  A    
C260  H422  S    
C242  O34   D    
C63   C352  S    
C438  H311  S    
C329  H53   S    
C304  O57   D    
C376  H161  S    
C244  H407  S    
C60   C246  A    
C276  O29   D    
C386  H185  S    
C202  C516  A    
C11   C38   T    
N26   N40   A    
C1    C434  A    
C382  H178  S    
C27   C527  T    
C403  C404  S    
C454  H337  S    
C326  H44   S    
C83   C201  A    
C265  H428  S    
N42   Ni4   S    
C286  O39   D    
C82   C401  A    
C101  C492  A    
C183  C523  S    
C451  H328  S    
N23   Ni6   S    
C142  C178  A    
C110  C271  S    
C431  H296  S    
C86   C421  S    
C262  H425  S    
C468  C518  A    
C229  N35   A    
N18   Ni9   S    
C284  H447  S    
C10   C37   T    
C97   C390  A    
C174  C512  S    
N11   Ni10  S    
C364  H129  S    
C476  H395  S    
C429  H285  S    
C74   C335  A    
C57   C479  A    
C432  H293  S    
C198  H35   S    
C475  H397  S    
C18   C357  S    
C375  H164  S    
C470  H378  S    
C43   C79   S    
C122  C175  A    
C363  H130  S    
C425  H280  S    
C234  N40   A    
C364  H128  S    
N2    Ni1   S    
C317  O70   D    
C227  C517  A    
C343  H83   S    
C113  C491  A    
C2    C492  A    
C418  H265  S    
C404  H220  S    
N44   Ni5   S    
N4    Ni7   S    
C444  H326  S    
C260  O13   D    
C139  C183  A    
C78   C132  A    
C330  H51   S    
C189  N44   A    
C381  H166  S    
N6    Ni5   S    
C70   C123  A    
C149  C308  S    
C74   C128  A    
C339  C340  S    
C198  C513  A    
C161  C508  S    
C450  H332  S    
C132  C292  S    
C84   C190  A    
C95   C149  A    
C132  C171  A    
C470  H380  S    
C472  H389  S    
C85   C139  A    
C88   C368  A    
N20   Ni10  S    
C194  C509  A    
C143  C303  S    
C371  H144  S    
C395  H209  S    
C216  N22   A    
C229  H335  S    
C405  H234  S    
C420  H261  S    
N11   N32   A    
C84   C138  A    
C256  H419  S    
C66   C120  A    
C262  O15   D    
C352  C353  S    
C152  C311  S    
C42   C68   S    
N1    N39   A    
C127  C286  S    
C406  H231  S    
N30   N44   A    
C81   C405  S    
C31   C485  S    
C88   C142  A    
C100  C357  A    
C249  H411  S    
C206  H113  S    
C467  H369  S    
C433  H289  S    
C133  C293  S    
C11   C290  S    
C264  H427  S    
C65   C119  A    
C308  O61   D    
C231  N37   A    
C9    C268  S    
C192  N46   A    
C62   C349  S    
C137  C162  A    
C461  H354  S    
C327  H41   S    
C236  H398  S    
C248  C482  S    
C424  H269  S    
C431  H295  S    
C195  C510  A    
C475  C476  S    
C236  C524  A    
C288  H451  S    
C358  H114  S    
C445  C478  A    
C99   C462  S    
C473  C474  S    
C316  O69   D    
C255  H418  S    
C331  H63   S    
C226  C519  A    
C87   C141  A    
C426  H278  S    
C75   C323  A    
C252  H415  S    
C230  C521  A    
C391  H189  S    
C280  O32   D    
C437  H298  S    
C25   C51   T    
C276  H439  S    
C282  H444  S    
C318  C319  S    
C136  C295  S    
C453  H341  S    
C352  H109  S    
C9    C36   T    
C440  H307  S    
C389  H193  S    
C263  O16   D    
C347  H92   S    
C24   C38   S    
C415  C416  S    
C334  C490  A    
C365  H141  S    
C5    C224  S    
C407  H230  S    
C356  H116  S    
C465  C466  S    
C350  H98   S    
C354  H103  S    
C241  O23   D    
C108  C162  A    
C138  C297  S    
C354  H104  S    
C422  C424  S    
C480  C496  A    
C196  C511  A    
C309  H17   S    
C193  N47   A    
C313  H20   S    
C45   C101  S    
C471  H377  S    
C194  N48   A    
C421  H272  S    
C258  C492  S    
C460  H356  S    
C177  C520  S    
C59   C339  S    
C27   C112  S    
C358  H111  S    
C150  C309  S    
N1    Ni1   S    
C78   C398  S    
C107  C267  S    
C473  H386  S    
N2    N33   A    
C448  H321  S    
C377  H160  S    
C83   C411  S    
C244  C479  S    
C403  H225  S    
C417  H252  S    
C115  C167  A    
C414  H243  S    
C87   C425  S    
C453  H340  S    
C345  H93   S    
C374  H151  S    
C289  O42   D    
C184  C522  S    
C126  C176  A    
C376  C377  S    
C220  H257  S    
C188  C503  A    
C369  C370  S    
C274  H437  S    
C2    C36   S    
C254  C489  S    
C365  H140  S    
C251  O4    D    
C239  O1    D    
C275  H438  S    
C261  C495  S    
C348  H87   S    
C92   C145  A    
C8    C257  S    
C462  H365  S    
C13   C37   S    
C129  C288  S    
C363  H131  S    
C428  H288  S    
C197  C512  A    
C294  H456  S    
C321  H40   S    
C227  H312  S    
C48   C124  S    
C187  H223  S    
C360  H123  S    
C86   C140  A    
C491  C518  A    
C377  H158  S    
C32   C496  S    
N35   N48   A    
C228  H323  S    
C432  C433  S    
C112  C498  A    
C269  H431  S    
C210  H157  S    
C199  C514  A    
C397  H206  S    
N3    Ni6   S    
C318  H32   S    
C427  H276  S    
N25   Ni11  S    
C319  H29   S    
C409  H239  S    
C270  H432  S    
C284  O37   D    
C56   C331  S    
C123  C283  S    
C373  C374  S    
C52   C168  A    
C189  C504  A    
C144  C304  S    
C441  C442  S    
C2    C457  A    
C483  C496  A    
C28   C223  S    
C386  H184  S    
N27   Ni12  S    
C263  C498  S    
C380  H170  S    
C336  H71   S    
C337  H67   S    
C452  H342  S    
C116  C169  A    
C450  C451  S    
C185  C500  A    
C405  C406  S    
C82   C136  A    
C453  C454  S    
C119  C172  A    
C297  H5    S    
C352  H108  S    
C371  H142  S    
C303  O55   D    
C5    C31   T    
C202  N8    A    
C120  C173  A    
C198  N5    A    
C332  H61   S    
C422  H270  S    
C254  H417  S    
C444  H327  S    
C126  C285  S    
C242  C468  S    
C216  H212  S    
C57   C488  A    
C418  H264  S    
C398  C399  S    
C396  H208  S    
C410  H238  S    
C192  C506  A    
C70   C372  S    
N5    N43   A    
C293  O46   D    
C102  C155  A    
C349  H100  S    
C449  H336  S    
C4    C30   T    
C13   C446  A    
C75   C129  A    
C355  H118  S    
C266  O19   D    
C219  C525  A    
C44   C90   S    
C445  C495  A    
