data_mof_unit_26821.cif
_audit_creation_date              2012-12-10T17:12:00-0500
_audit_creation_method            fapswitch 2.2
_symmetry_space_group_name_H-M    P1
_symmetry_Int_Tables_number       1
_space_group_crystal_system       triclinic
_cell_length_a                    11.660679
_cell_length_b                    13.004278
_cell_length_c                    15.88293
_cell_angle_alpha                 92.196378
_cell_angle_beta                  73.961703
_cell_angle_gamma                 99.844143
_cell_volume                      2280.54099364

loop_
_atom_site_label
_atom_site_type_symbol
_atom_type_description
_atom_site_fract_x
_atom_site_fract_y
_atom_site_fract_z
_atom_type_partial_charge
C1    C     C_R   0.520802 0.700869 0.501263 0.812095
C2    C     C_R   0.479198 0.299131 0.498737 0.812095
C3    C     C_R   0.355159 0.455706 0.084905 -0.286656
C4    C     C_R   0.644851 0.544254 0.915091 -0.286644
C5    C     C_R   0.269615 0.449798 0.037733 0.467064
C6    C     C_R   0.730393 0.550161 0.962264 0.467057
C7    C     C_R   0.467205 0.185725 0.497994 -0.053798
C8    C     C_R   0.532795 0.814275 0.502006 -0.053797
C9    C     C_R   0.651879 0.984666 0.508645 -0.209691
C10   C     C_R   0.348121 0.015334 0.491355 -0.209691
C11   C     C_R   0.641047 0.876578 0.508137 -0.192108
C12   C     C_R   0.358953 0.123422 0.491863 -0.192107
C13   C     C_R   0.435279 0.860776 0.496487 -0.261624
C14   C     C_R   0.564721 0.139224 0.503513 -0.261625
C15   C     C_R   0.445421 0.968791 0.496943 0.174706
C16   C     C_R   0.554579 0.031209 0.503057 0.174706
C17   C     C_R   0.938396 0.592362 0.585069 -0.348616
C18   C     C_R   0.061605 0.407639 0.414931 -0.348647
C19   C     C_R   0.820467 0.584052 0.576470 0.085210
C20   C     C_R   0.179533 0.415948 0.423530 0.085205
C21   C     C_R   0.860801 0.460638 0.462845 0.017266
C22   C     C_R   0.139199 0.539362 0.537155 0.017273
C23   C     C_R   0.426816 0.495122 0.668126 0.802008
C24   C     C_R   0.573184 0.504877 0.331874 0.802008
C25   C     C_R   0.980442 0.466612 0.468976 0.068888
C26   C     C_R   0.019558 0.533388 0.531024 0.068881
C27   C     C_R   0.383291 0.490279 0.764208 -0.047910
C28   C     C_R   0.616710 0.509714 0.235792 -0.047909
C29   C     C_R   0.222558 0.456857 0.898378 -0.154684
C30   C     C_R   0.777447 0.543110 0.101622 -0.154710
C31   C     C_R   0.259984 0.468305 0.807603 -0.220161
C32   C     C_R   0.740018 0.531672 0.192397 -0.220154
C33   C     C_R   0.468288 0.504444 0.812626 -0.213988
C34   C     C_R   0.531714 0.495555 0.187373 -0.213995
C35   C     C_R   0.433340 0.495923 0.904497 0.049784
C36   C     C_R   0.566665 0.504056 0.095501 0.049790
C37   C     C_R   0.307970 0.468295 0.947268 0.059770
C38   C     C_R   0.692036 0.531672 0.052731 0.059764
C39   C     C_R   0.519876 0.510124 0.954174 -0.006347
C40   C     C_R   0.480132 0.489849 0.045823 -0.006344
Cu1   Cu    Cu3+1 0.386820 0.492450 0.493500 0.937425
Cu2   Cu    Cu3+1 0.613180 0.507550 0.506500 0.937425
H1    H     H_    0.241603 0.370212 0.381703 0.124127
H2    H     H_    0.758398 0.629788 0.618296 0.124127
H3    H     H_    0.965732 0.644398 0.633521 0.146608
H4    H     H_    0.034269 0.355603 0.366478 0.146597
H5    H     H_    0.437963 0.481618 0.223658 0.147356
H6    H     H_    0.562037 0.518405 0.776339 0.147353
H7    H     H_    0.807242 0.542871 0.228712 0.148165
H8    H     H_    0.192759 0.457101 0.771289 0.148164
H9    H     H_    0.126486 0.437295 0.929984 0.177205
H10   H     H_    0.873520 0.562662 0.070015 0.177213
H11   H     H_    0.319512 0.430482 0.152174 0.154416
H12   H     H_    0.680507 0.569462 0.847819 0.154432
H13   H     H_    0.648656 0.186837 0.508199 0.153689
H14   H     H_    0.351343 0.813163 0.491801 0.153689
H15   H     H_    0.282663 0.158088 0.487487 0.158312
H16   H     H_    0.717337 0.841912 0.512513 0.158312
H17   H     H_    0.736029 0.031713 0.513379 0.136893
H18   H     H_    0.263971 0.968287 0.486621 0.136893
H19   H     H_    0.170610 0.590542 0.584469 0.119087
H20   H     H_    0.829390 0.409458 0.415531 0.119084
N1    N     N_R   0.216750 0.481110 0.483710 -0.179313
N2    N     N_R   0.783250 0.518890 0.516290 -0.179314
O1    O     O_R   0.419950 0.645670 0.495380 -0.586817
O2    O     O_R   0.580050 0.354330 0.504620 -0.586816
O3    O     O_R   0.611110 0.658410 0.506370 -0.590643
O4    O     O_R   0.388890 0.341590 0.493630 -0.590642
O5    O     O_R   0.350820 0.490050 0.621260 -0.585517
O6    O     O_R   0.649180 0.509950 0.378740 -0.585518
O7    O     O_R   0.541970 0.502800 0.632250 -0.592023
O8    O     O_R   0.458030 0.497200 0.367750 -0.592024
O9    O     O_3   0.148826 0.413928 0.078759 -0.579862
C41   C     C_3   0.099393 0.494561 0.130613 -0.353889
H21   H     H_    0.108730 0.565374 0.090381 0.164351
H22   H     H_    0.140979 0.514327 0.185586 0.168072
H23   H     H_    0.001372 0.467053 0.159796 0.191167
O10   O     O_3   0.851181 0.586019 0.921234 -0.579855
C42   C     C_3   0.900621 0.505349 0.869443 -0.353908
H24   H     H_    0.858987 0.485467 0.814509 0.168072
H25   H     H_    0.891350 0.434605 0.909739 0.164365
H26   H     H_    0.998629 0.532872 0.840210 0.191177

loop_
_geom_bond_atom_site_label_1
_geom_bond_atom_site_label_2
_ccdc_geom_bond_type
C8    C13   A    
C5    C37   A    
C1    C8    S    
O9    C41   S    
C23   O5    A    
C10   H18   S    
C2    C7    S    
C24   O6    A    
C27   C33   A    
C41   H22   S    
C17   C26   A    
C35   C37   A    
C9    C16   A    
C17   H3    S    
C2    O4    A    
C10   C15   A    
C33   C35   A    
C6    O10   S    
C15   C16   A    
Cu2   O6    S    
C30   C38   A    
Cu1   Cu2   S    
C21   N2    A    
C30   H10   S    
C1    O3    A    
C22   N1    A    
C7    C14   A    
C41   H23   S    
C1    O1    A    
C6    C38   A    
C23   C27   S    
C11   H16   S    
C34   C36   A    
C13   H14   S    
C14   H13   S    
C28   C34   A    
C18   C25   A    
C18   H4    S    
Cu1   O4    S    
C7    C12   A    
C41   H21   S    
C27   C31   A    
C23   O7    A    
C36   C40   A    
C4    C6    A    
C39   C40   A    
C42   H25   S    
O10   C42   S    
Cu1   O1    S    
C3    C5    A    
C25   C26   A    
C9    H17   S    
C35   C39   A    
C4    C39   A    
C28   C32   A    
C19   N2    A    
C9    C11   A    
C21   H20   S    
C10   C12   A    
Cu1   O8    S    
C12   H15   S    
C3    C40   A    
C13   C15   A    
Cu2   O3    S    
C14   C16   A    
Cu1   N1    S    
C31   H8    S    
Cu2   N2    S    
C20   H1    S    
C19   H2    S    
C24   O8    A    
Cu1   O5    S    
C29   H9    S    
C21   C25   A    
C4    H12   S    
C24   C28   S    
C2    O2    A    
C42   H26   S    
C20   N1    A    
C36   C38   A    
C29   C31   A    
C22   H19   S    
C30   C32   A    
C3    H11   S    
C8    C11   A    
Cu2   O7    S    
C17   C19   A    
C18   C20   A    
C5    O9    S    
C32   H7    S    
C42   H24   S    
C22   C26   A    
C29   C37   A    
Cu2   O2    S    
C33   H6    S    
C34   H5    S    
