data_mof_unit_23856.cif
_audit_creation_date              2012-12-10T17:49:44-0500
_audit_creation_method            fapswitch 2.2
_symmetry_space_group_name_H-M    P1
_symmetry_Int_Tables_number       1
_space_group_crystal_system       triclinic
_cell_length_a                    10.530375
_cell_length_b                    10.563407
_cell_length_c                    9.999981
_cell_angle_alpha                 91.134216
_cell_angle_beta                  91.883363
_cell_angle_gamma                 93.212075
_cell_volume                      1109.75581414

loop_
_atom_site_label
_atom_site_type_symbol
_atom_type_description
_atom_site_fract_x
_atom_site_fract_y
_atom_site_fract_z
_atom_type_partial_charge
C1    C     C_R   0.515966 0.261177 0.499065 0.897596
C2    C     C_R   0.541725 0.062302 0.617182 -0.007500
C3    C     C_R   0.533835 0.125990 0.495970 -0.171546
C4    C     C_R   0.257490 0.500224 0.498581 0.848347
C5    C     C_R   0.506994 0.058618 0.375594 0.082582
C6    C     C_R   0.454845 0.934990 0.379360 0.144829
C7    C     C_R   0.456352 0.872578 0.503247 -0.186335
C8    C     C_R   0.287075 0.386726 0.125071 0.163879
C9    C     C_R   0.170972 0.379287 0.050557 0.017010
C10   C     C_R   0.173099 0.388481 0.912465 -0.299833
C11   C     C_R   0.290209 0.384167 0.852734 0.264738
C12   C     C_3   0.963527 0.621515 0.517063 -0.194873
C13   C     C_R   0.397833 0.442744 0.923073 0.037840
C14   C     C_R   0.396901 0.443897 0.066789 0.055466
C15   C     C_R   0.596539 0.556110 0.077012 -0.128237
C16   C     C_R   0.481687 0.738297 0.500787 0.892900
C17   C     C_R   0.596828 0.557764 0.934601 0.201648
C18   C     C_R   0.741935 0.501009 0.501899 0.866274
C19   C     C_3   0.031224 0.383959 0.487252 0.088460
C20   C     C_3   0.947338 0.450180 0.385474 -0.153960
C21   C     C_3   0.876296 0.500886 0.504868 -0.036068
C22   C     C_3   0.957641 0.431400 0.605969 -0.207951
C23   C     C_3   0.037399 0.570152 0.399136 0.232522
C24   C     C_3   0.048977 0.551862 0.617289 -0.211169
C25   C     C_3   0.337968 0.804943 0.776701 -0.863382
C26   C     C_3   0.397900 0.873009 0.251405 -0.884421
C27   C     C_3   0.302378 0.262104 0.775094 -0.795457
C28   C     C_3   0.707301 0.626207 0.871372 -0.834290
C29   C     C_3   0.078986 0.652077 0.283544 -0.937975
C30   C     C_3   0.121923 0.501426 0.497803 0.003450
C31   C     C_R   0.608904 0.115904 0.730509 -0.213195
C32   C     C_R   0.596407 0.060602 0.855206 0.096521
C33   C     C_R   0.511274 0.955820 0.867986 -0.162553
C34   C     C_R   0.448541 0.898448 0.754411 0.211189
C35   C     C_R   0.479744 0.942649 0.625005 0.043719
H1    H     H_    0.898383 0.406867 0.294607 0.151730
H2    H     H_    0.371556 0.720336 0.828150 0.258654
H3    H     H_    0.268621 0.849959 0.841217 0.214542
H4    H     H_    0.336816 0.787175 0.270966 0.257337
H5    H     H_    0.334458 0.938106 0.199446 0.215610
H6    H     H_    0.474875 0.847311 0.184599 0.243917
H7    H     H_    0.223286 0.305245 0.293235 0.230412
H8    H     H_    0.290727 0.208640 0.188713 0.148110
H9    H     H_    0.025992 0.248554 0.070879 0.179508
H10   H     H_    0.986101 0.400593 0.083525 0.187608
H11   H     H_    0.284985 0.274687 0.666900 0.255204
H12   H     H_    0.491876 0.920617 0.966430 0.146714
H13   H     H_    0.395560 0.223287 0.798319 0.253748
H14   H     H_    0.231470 0.186769 0.805229 0.191940
H15   H     H_    0.674183 0.684569 0.787926 0.276776
H16   H     H_    0.760389 0.691881 0.944232 0.194027
H17   H     H_    0.774768 0.556702 0.836655 0.244055
H18   H     H_    0.987625 0.199588 0.435106 0.187708
H19   H     H_    0.089256 0.220195 0.566313 0.175965
H20   H     H_    0.128425 0.740735 0.323922 0.233789
H21   H     H_    0.143485 0.600715 0.219157 0.266695
H22   H     H_    0.994057 0.676607 0.222872 0.239485
H23   H     H_    0.675091 0.601751 0.135551 0.153100
H24   H     H_    0.471238 0.109496 0.182096 0.198897
H25   H     H_    0.616374 0.054866 0.214583 0.200949
H26   H     H_    0.760620 0.117648 0.953010 0.176985
H27   H     H_    0.637766 0.209881 0.980793 0.193403
H28   H     H_    0.087105 0.359403 0.855031 0.159163
H29   H     H_    0.919099 0.373622 0.688462 0.126977
H30   H     H_    0.093216 0.594024 0.711429 0.163707
H31   H     H_    0.930781 0.719013 0.529643 0.137115
H32   H     H_    0.670217 0.201173 0.722732 0.154687
H33   H     H_    0.286492 0.775049 0.681656 0.231270
N1    N     N_R   0.498800 0.498800 0.142780 -0.114387
N2    N     N_R   0.498760 0.498720 0.857170 -0.116214
N3    N     N_3   0.300437 0.299853 0.231393 -0.362196
N4    N     N_3   0.055234 0.337921 0.111323 -0.474503
N5    N     N_3   0.068006 0.253792 0.471190 -0.494481
N6    N     N_3   0.547079 0.111852 0.251797 -0.421902
N7    N     N_3   0.663204 0.115948 0.970530 -0.486467
O1    O     O_R   0.500000 0.316780 0.614690 -0.628223
O2    O     O_R   0.499990 0.316750 0.385360 -0.566088
O3    O     O_R   0.313960 0.499980 0.614650 -0.623581
O4    O     O_R   0.313940 0.499960 0.385310 -0.615249
O5    O     O_R   0.500010 0.683250 0.614640 -0.615778
O6    O     O_R   0.500000 0.683220 0.385310 -0.603201
O7    O     O_R   0.686060 0.500040 0.614690 -0.627837
O8    O     O_R   0.686040 0.500020 0.385350 -0.628604
Zn1   Zn    Zn3+2 0.500010 0.500020 0.653130 0.919242
Zn2   Zn    Zn3+2 0.499990 0.499980 0.346870 0.949456

loop_
_geom_bond_atom_site_label_1
_geom_bond_atom_site_label_2
_ccdc_geom_bond_type
C27   H13   S    
C2    C35   A    
C18   C21   S    
C1    O2    A    
C10   H28   S    
C9    N4    S    
O5    Zn1   S    
O1    Zn1   S    
C32   N7    S    
H26   N7    S    
C31   H32   S    
C12   C23   S    
C23   C29   S    
C5    C6    A    
C28   H16   S    
C26   H4    S    
C13   N2    A    
C11   C13   A    
C34   C35   A    
C5    N6    S    
C16   O6    A    
C18   O7    A    
C28   H15   S    
C19   C20   S    
C8    C9    A    
C8    C14   A    
N2    Zn1   S    
C9    C10   A    
O6    Zn2   S    
C25   C34   S    
C25   H2    S    
O2    Zn2   S    
C17   N2    A    
C13   C14   A    
H10   N4    S    
C17   C28   S    
C25   H33   S    
C33   C34   A    
C15   N1    A    
C23   C30   S    
C19   N5    S    
C19   C22   S    
C4    O4    A    
C29   H20   S    
C12   H31   S    
C12   C21   S    
C2    C31   A    
C1    C3    S    
C4    O3    A    
C25   H3    S    
H19   N5    S    
C31   C32   A    
C20   C23   S    
C11   C27   S    
C18   O8    A    
H24   N6    S    
C24   H30   S    
C27   H11   S    
C7    C16   S    
O8    Zn2   S    
C29   H22   S    
O7    Zn1   S    
C33   H12   S    
C14   N1    A    
C22   C24   S    
H27   N7    S    
O4    Zn2   S    
N1    Zn2   S    
C15   C17   A    
C8    N3    S    
H8    N3    S    
C1    O1    A    
C7    C35   A    
H18   N5    S    
C3    C5    A    
C6    C7    A    
C29   H21   S    
C12   C24   S    
C32   C33   A    
C2    C3    A    
C28   H17   S    
C26   H5    S    
C6    C26   S    
H25   N6    S    
H7    N3    S    
C15   H23   S    
H9    N4    S    
C24   C30   S    
C10   C11   A    
C22   H29   S    
C20   H1    S    
O3    Zn1   S    
C20   C21   S    
C16   O5    A    
C21   C22   S    
C19   C30   S    
C4    C30   S    
C27   H14   S    
C26   H6    S    
