data_mof_unit_63497.cif
_audit_creation_date              2013-03-05T16:57:49-0500
_audit_creation_method            fapswitch 2.2
_symmetry_space_group_name_H-M    P1
_symmetry_Int_Tables_number       1
_space_group_crystal_system       triclinic
_cell_length_a                    16.787178
_cell_length_b                    17.206083
_cell_length_c                    17.518997
_cell_angle_alpha                 90.772096
_cell_angle_beta                  90.597677
_cell_angle_gamma                 86.38997
_cell_volume                      5049.48250559

loop_
_atom_site_label
_atom_site_type_symbol
_atom_site_description
_atom_site_fract_x
_atom_site_fract_y
_atom_site_fract_z
_atom_type_partial_charge
O1    O     O_R   0.566570 0.500000 0.389130 -0.616418
O2    O     O_R   0.433430 0.500000 0.610870 -0.626202
O3    O     O_R   0.433480 0.499990 0.389100 -0.602230
O4    O     O_R   0.566520 0.500010 0.610900 -0.593644
C1    C     C_R   0.499673 0.500890 0.353165 0.909118
C2    C     C_R   0.500241 0.500934 0.646921 0.914817
O5    O     O_R   0.574410 0.384200 0.500000 -0.657126
O6    O     O_R   0.425590 0.615800 0.500000 -0.650586
O7    O     O_R   0.441320 0.384200 0.499980 -0.538285
O8    O     O_R   0.558680 0.615800 0.500020 -0.549794
C3    C     C_R   0.510125 0.348072 0.501714 0.946899
C4    C     C_R   0.489898 0.651869 0.498138 0.945292
Zn1   Zn    Zn3+2 0.588860 0.500000 0.500020 1.032796
Zn2   Zn    Zn3+2 0.411140 0.500000 0.499980 1.035751
C5    C     C_R   0.514054 0.264440 0.500712 -0.137148
C6    C     C_R   0.486203 0.735407 0.497863 -0.138250
C7    C     C_R   0.456331 0.224200 0.539444 0.311797
C8    C     C_R   0.542348 0.774676 0.456044 0.325147
C9    C     C_R   0.453001 0.144967 0.525832 -0.203834
C10   C     C_R   0.547387 0.853854 0.468904 -0.189278
C11   C     C_R   0.508829 0.105687 0.477942 0.133467
C12   C     C_R   0.494432 0.894056 0.518983 0.130509
C13   C     C_R   0.566593 0.145582 0.440903 -0.137021
C14   C     C_R   0.437882 0.855075 0.558769 -0.139457
C15   C     C_R   0.569466 0.225018 0.452517 -0.238048
C16   C     C_R   0.433551 0.775676 0.548044 -0.234516
C17   C     C_2   0.509249 0.022133 0.468555 -0.198336
C18   C     C_2   0.495531 0.977582 0.528176 -0.193691
H1    H     H_    0.391193 0.745225 0.580892 0.164233
H2    H     H_    0.613100 0.256114 0.421950 0.160520
H3    H     H_    0.481552 0.002876 0.583999 0.161562
H4    H     H_    0.523216 0.997214 0.412609 0.160378
H5    H     H_    0.609594 0.115156 0.403634 0.149018
H6    H     H_    0.397064 0.886158 0.597700 0.148969
H7    H     H_    0.592017 0.884160 0.439013 0.173062
H8    H     H_    0.407577 0.113772 0.553631 0.173873
C19   C     C_R   0.572579 0.520399 0.848633 -0.153329
C20   C     C_R   0.428752 0.544471 0.154313 -0.145077
H9    H     H_    0.628672 0.519989 0.879875 0.146002
H10   H     H_    0.373795 0.562514 0.124716 0.149343
C21   C     C_R   0.572859 0.509067 0.770115 -0.143128
C22   C     C_R   0.428219 0.533315 0.232569 -0.122392
H11   H     H_    0.629579 0.500964 0.741275 0.185149
H12   H     H_    0.372965 0.544921 0.263146 0.192632
C23   C     C_R   0.500312 0.508395 0.729642 -0.030657
C24   C     C_R   0.499043 0.508788 0.270797 -0.023317
C25   C     C_R   0.427604 0.518849 0.768493 -0.168768
C26   C     C_R   0.570457 0.496214 0.230298 -0.155762
H13   H     H_    0.370932 0.518771 0.738373 0.161749
H14   H     H_    0.625773 0.477547 0.258896 0.160081
C27   C     C_R   0.427561 0.530164 0.846967 -0.150517
C28   C     C_R   0.570818 0.507461 0.152141 -0.141700
H15   H     H_    0.371327 0.537393 0.876876 0.144519
H16   H     H_    0.625839 0.496551 0.120837 0.142956
C29   C     C_R   0.499978 0.531088 0.886463 0.149705
C30   C     C_R   0.500043 0.531499 0.114678 0.145256
C31   C     C_1   0.499712 0.536430 0.966750 -0.043688
C32   C     C_1   0.499633 0.536589 0.034510 -0.041734
C33   C     C_R   0.835384 0.436621 0.466409 -0.244302
C34   C     C_R   0.166891 0.535802 0.561714 -0.241803
H17   H     H_    0.868490 0.387345 0.440285 0.159763
H18   H     H_    0.135577 0.563612 0.609493 0.156759
C35   C     C_R   0.751010 0.439058 0.466941 -0.057427
C36   C     C_R   0.251126 0.535089 0.559114 -0.036564
H19   H     H_    0.720649 0.391717 0.440857 0.146159
H20   H     H_    0.283124 0.562715 0.604853 0.139685
N1    N     N_R   0.707230 0.500020 0.500030 -0.144705
N2    N     N_R   0.292770 0.499980 0.499970 -0.144087
C37   C     C_R   0.746307 0.560449 0.532529 0.462742
C38   C     C_R   0.251523 0.465467 0.441599 0.454711
C39   C     C_R   0.830350 0.560072 0.531948 -0.289585
C40   C     C_R   0.167450 0.466135 0.442243 -0.281968
H21   H     H_    0.859870 0.608102 0.558098 0.180610
H22   H     H_    0.136192 0.438409 0.395872 0.183105
C41   C     C_R   0.876022 0.497719 0.499592 0.092018
C42   C     C_R   0.124092 0.500659 0.502683 0.091810
C43   C     C_1   0.963684 0.497647 0.501198 0.002014
C44   C     C_1   0.036539 0.499260 0.502845 0.002779
N3    N     N_R   0.402423 0.262365 0.593501 0.217010
O9    O     O_R   0.331264 0.238056 0.602231 -0.367126
O10   O     O_R   0.427672 0.314259 0.641156 -0.402921
N4    N     N_R   0.592968 0.735526 0.399781 0.220276
O11   O     O_R   0.663070 0.760105 0.385950 -0.346896
O12   O     O_R   0.565166 0.682425 0.355041 -0.411526
N5    N     N_R   0.702991 0.624929 0.568291 0.213644
O13   O     O_R   0.664553 0.614375 0.630911 -0.402801
O14   O     O_R   0.717983 0.695475 0.549783 -0.363432
N6    N     N_R   0.292525 0.427628 0.378933 0.205606
O15   O     O_R   0.268912 0.443568 0.309611 -0.425048
O16   O     O_R   0.336588 0.364017 0.390566 -0.359167

loop_
_geom_bond_atom_site_label_1
_geom_bond_atom_site_label_2
_geom_bond_distance
_ccdc_geom_bond_type
C20   H10   1.083802 S    
C35   H19   1.081440 S    
C2    C23   1.453148 S    
C40   C42   1.395865 A    
C38   N6    1.429332 S    
C25   H13   1.083156 S    
N5    O13   1.299135 A    
O5    C3    1.279676 A    
O1    C1    1.281300 A    
C36   N2    1.368323 A    
C9    C11   1.400130 A    
C14   C16   1.382842 A    
C20   C22   1.387096 A    
C9    H8    1.083082 S    
C5    C15   1.399908 A    
C7    N3    1.439889 S    
C34   H18   1.082882 S    
C22   C24   1.402850 A    
O4    Zn1   1.982208 S    
C37   C39   1.410587 A    
C8    N4    1.440457 S    
C10   H7    1.082685 S    
C3    C5    1.436217 S    
C4    C6    1.434849 S    
C13   H5    1.083718 S    
C8    C10   1.385543 A    
C26   H14   1.083299 S    
C11   C17   1.444399 S    
C12   C18   1.445242 S    
C21   H11   1.082949 S    
O2    C2    1.282293 A    
C22   H12   1.082306 S    
C28   H16   1.084010 S    
C24   C26   1.402990 A    
C23   C25   1.404180 A    
C6    C16   1.398882 A    
C35   N1    1.368144 A    
C33   H17   1.082890 S    
N5    O14   1.300996 A    
C42   C44   1.471506 S    
C40   H22   1.084008 S    
N3    O10   1.301589 A    
C25   C27   1.385905 A    
C43   C44   1.225116 T    
C34   C42   1.404893 A    
C14   H6    1.083730 S    
C27   H15   1.083947 S    
C36   H20   1.081417 S    
O7    Zn2   2.024718 S    
O7    C3    1.277031 A    
C26   C28   1.385540 A    
O6    C4    1.279580 A    
C41   C43   1.471504 S    
O3    Zn2   1.982210 S    
O8    C4    1.276316 A    
O4    C2    1.283976 A    
N6    O16   1.299041 A    
N4    O12   1.301424 A    
C29   C31   1.408339 S    
C12   C14   1.394089 A    
O1    Zn1   1.974555 S    
C33   C41   1.405011 A    
C37   N5    1.428759 S    
C39   H21   1.083996 S    
Zn1   N1    1.987116 S    
C15   H2    1.083897 S    
C5    C7    1.410550 A    
O6    Zn2   2.022276 S    
C17   H4    1.086378 S    
C18   H3    1.086902 S    
C10   C12   1.400324 A    
O3    C1    1.283873 A    
O8    Zn1   2.024714 S    
C1    C24   1.451076 S    
C33   C35   1.414506 A    
C34   C36   1.414548 A    
C11   C13   1.393391 A    
C19   H9    1.083900 S    
C21   C23   1.403425 A    
C39   C41   1.396149 A    
C31   C32   1.187070 T    
C7    C9    1.385318 A    
C30   C32   1.408297 S    
C27   C29   1.393360 A    
C13   C15   1.382906 A    
C19   C21   1.386717 A    
O2    Zn2   1.974553 S    
N3    O9    1.301448 A    
C19   C29   1.394193 A    
O5    Zn1   2.022277 S    
C20   C30   1.394179 A    
N6    O15   1.300956 A    
C16   H1    1.083917 S    
C6    C8    1.410512 A    
N4    O11   1.301486 A    
C17   C18   1.334324 D    
N2    C38   1.377840 A    
Zn2   N2    1.987120 S    
C38   C40   1.410833 A    
N1    C37   1.377571 A    
C28   C30   1.393779 A    
