data_mof_unit_54594.cif
_audit_creation_date              2012-12-11T17:41:37-0500
_audit_creation_method            fapswitch 2.2
_symmetry_space_group_name_H-M    P1
_symmetry_Int_Tables_number       1
_space_group_crystal_system       triclinic
_cell_length_a                    15.551992
_cell_length_b                    15.104116
_cell_length_c                    15.057461
_cell_angle_alpha                 109.467597
_cell_angle_beta                  121.599955
_cell_angle_gamma                 59.765433
_cell_volume                      2591.14337923

loop_
_atom_site_label
_atom_site_type_symbol
_atom_type_description
_atom_site_fract_x
_atom_site_fract_y
_atom_site_fract_z
_atom_type_partial_charge
C1    C     C_R   0.757091 0.991876 0.791188 -0.107577
C2    C     C_R   0.319983 0.298187 0.146756 -0.125065
C3    C     C_R   0.609842 0.702860 0.815702 -0.141162
C4    C     C_R   0.387284 0.198805 0.120993 -0.130226
C5    C     C_R   0.644753 0.752213 0.917723 0.116890
C6    C     C_R   0.339883 0.135371 0.038067 0.118596
C7    C     C_R   0.756878 0.709818 0.989476 -0.166555
C8    C     C_R   0.224110 0.172975 0.981024 -0.184274
C9    C     C_R   0.832353 0.620694 0.959198 -0.105348
C10   C     C_R   0.156991 0.271907 0.008031 -0.116416
C11   C     C_R   0.796759 0.572958 0.857333 -0.091324
C12   C     C_R   0.197040 0.061454 0.226789 -0.125168
C13   C     C_R   0.204921 0.334508 0.090816 -0.089699
C14   C     C_R   0.563432 0.859555 0.043544 -0.244003
C15   C     C_R   0.409928 0.018332 0.912922 -0.233424
C16   C     C_R   0.206944 0.277307 0.451271 0.291171
C17   C     C_R   0.802808 0.732705 0.566536 0.270059
C18   C     C_R   0.489191 0.950618 0.073343 0.076135
C19   C     C_R   0.488399 0.931158 0.885586 0.065107
C20   C     C_R   0.411459 0.031320 0.007572 0.016466
C21   C     C_R   0.564652 0.848583 0.948707 0.023858
C22   C     C_2   0.062780 0.370308 0.517317 0.255127
C23   C     C_R   0.156787 0.281723 0.507345 0.057197
C24   C     C_2   0.965283 0.648349 0.526841 0.259105
C25   C     C_2   0.064716 0.461334 0.529408 -0.145360
C26   C     C_2   0.966575 0.555435 0.511710 -0.141680
C27   C     C_2   0.849630 0.115879 0.899672 -0.213925
C28   C     C_2   0.016624 0.045123 0.156197 -0.217648
C29   C     C_R   0.227788 0.791085 0.565155 0.394540
C30   C     C_R   0.745717 0.150341 0.299463 0.399243
C31   C     C_R   0.315724 0.708979 0.545500 -0.230987
C32   C     C_R   0.659169 0.242774 0.309824 -0.249273
C33   C     C_R   0.299947 0.664949 0.442845 0.011348
C34   C     C_R   0.862364 0.732479 0.523244 0.058357
C35   C     C_R   0.675476 0.304091 0.405688 0.017033
C36   C     C_R   0.192945 0.701701 0.358700 0.328727
C37   C     C_R   0.781286 0.274227 0.491995 0.348043
C38   C     C_R   0.105688 0.784142 0.379313 -0.230769
C39   C     C_R   0.867161 0.180930 0.481203 -0.230604
C40   C     C_R   0.593569 0.218563 0.493508 -0.133449
C41   C     C_R   0.404122 0.773365 0.439222 -0.110439
C42   C     C_R   0.123053 0.828746 0.481413 -0.223962
C43   C     C_R   0.849564 0.119725 0.385789 -0.205220
C44   C     C_R   0.403318 0.481881 0.424320 -0.252598
C45   C     C_R   0.502268 0.301207 0.440968 0.059232
C46   C     C_R   0.571537 0.493302 0.415173 -0.247547
C47   C     C_R   0.496041 0.392809 0.423253 0.035485
C48   C     C_R   0.483053 0.582747 0.426255 0.060087
C49   C     C_R   0.579691 0.397228 0.414663 0.081051
C50   C     C_R   0.395264 0.576617 0.426458 0.065094
C51   C     C_2   0.863147 0.103668 0.990850 -0.107436
C52   C     C_2   0.957573 0.114131 0.086365 -0.103588
C53   C     C_R   0.405767 0.990008 0.714061 -0.130308
C54   C     C_R   0.590817 0.952289 0.267833 -0.127142
C55   C     C_R   0.410288 0.287888 0.413922 -0.132778
C56   C     C_R   0.492165 0.679493 0.453546 0.049593
C57   C     C_R   0.588153 0.695435 0.521535 -0.149829
C58   C     C_R   0.589939 0.917858 0.792282 -0.133800
C59   C     C_R   0.405556 0.018726 0.195426 -0.109434
C60   C     C_R   0.211088 0.189120 0.549110 -0.200238
C61   C     C_R   0.801060 0.818356 0.469357 -0.214486
C62   C     C_R   0.757986 0.083667 0.701164 -0.146733
C63   C     C_R   0.195463 0.971545 0.316195 -0.164580
C64   C     C_R   0.788728 0.067219 0.801203 0.142263
C65   C     C_R   0.132942 0.024014 0.228055 0.160411
C66   C     C_3   0.062108 0.667166 0.550914 -0.979863
C67   C     C_R   0.495906 0.940711 0.799138 0.056338
C68   C     C_3   0.967468 0.357221 0.506039 -0.984479
C69   C     C_3   0.151759 0.338379 0.360990 -1.064506
C70   C     C_3   0.851354 0.681234 0.662065 -1.043814
C71   C     C_3   0.244064 0.837994 0.674742 -1.045131
C72   C     C_3   0.728178 0.083635 0.197469 -1.055980
C73   C     C_3   0.168815 0.657171 0.246725 -1.061186
C74   C     C_3   0.801618 0.337995 0.596291 -1.079322
C75   C     C_R   0.495981 0.963099 0.174586 0.041136
C76   C     C_R   0.685533 0.613988 0.785641 -0.114893
H1    H     H_    0.983512 0.994716 0.152376 0.129351
H2    H     H_    0.354002 0.082791 0.865203 0.133770
H3    H     H_    0.889917 0.549605 0.486371 0.128676
H4    H     H_    0.139931 0.464652 0.545579 0.136533
H5    H     H_    0.054347 0.892037 0.495439 0.134376
H6    H     H_    0.917088 0.048360 0.379082 0.131989
H7    H     H_    0.023660 0.814030 0.315877 0.143253
H8    H     H_    0.948200 0.155234 0.546820 0.134384
H9    H     H_    0.679297 0.198085 0.517944 0.113542
H10   H     H_    0.318403 0.790350 0.387281 0.119529
H11   H     H_    0.319779 0.009798 0.689747 0.095670
H12   H     H_    0.894572 0.151583 0.898251 0.130188
H13   H     H_    0.675526 0.916534 0.278977 0.099651
H14   H     H_    0.327367 0.328907 0.358210 0.115619
H15   H     H_    0.671890 0.637721 0.550784 0.120828
H16   H     H_    0.674546 0.871798 0.841939 0.108768
H17   H     H_    0.319475 0.041760 0.140109 0.110183
H18   H     H_    0.771667 0.136470 0.681364 0.104713
H19   H     H_    0.164187 0.946515 0.348473 0.107640
H20   H     H_    0.989743 0.164582 0.088916 0.128794
H21   H     H_    0.819251 0.067541 0.993227 0.130020
H22   H     H_    0.770669 0.958256 0.852791 0.091341
H23   H     H_    0.657932 0.577054 0.706705 0.121772
H24   H     H_    0.169695 0.117353 0.177649 0.089063
H25   H     H_    0.855345 0.504213 0.833949 0.111637
H26   H     H_    0.152976 0.411294 0.111304 0.106959
H27   H     H_    0.786324 0.746624 0.068239 0.109916
H28   H     H_    0.186108 0.125395 0.916268 0.115962
H29   H     H_    0.040083 0.750948 0.561036 0.249335
H30   H     H_    0.133184 0.634281 0.624772 0.250651
H31   H     H_    0.086621 0.631460 0.485672 0.252685
H32   H     H_    0.987640 0.274691 0.500900 0.256018
H33   H     H_    0.950100 0.397309 0.575121 0.251048
H34   H     H_    0.356939 0.347183 0.209859 0.119484
H35   H     H_    0.892535 0.388189 0.433260 0.248280
H36   H     H_    0.060669 0.363934 0.324620 0.264274
H37   H     H_    0.170658 0.407164 0.388494 0.244357
H38   H     H_    0.180027 0.289990 0.299678 0.251796
H39   H     H_    0.865079 0.599037 0.640810 0.241099
H40   H     H_    0.931568 0.686472 0.719343 0.264212
H41   H     H_    0.794955 0.719862 0.700393 0.256661
H42   H     H_    0.220247 0.921642 0.680313 0.241999
H43   H     H_    0.191158 0.827225 0.695211 0.258810
H44   H     H_    0.331460 0.802177 0.732661 0.252820
H45   H     H_    0.524209 0.733848 0.759247 0.108796
H46   H     H_    0.743558 0.007019 0.208636 0.246021
H47   H     H_    0.642444 0.118050 0.136039 0.255477
H48   H     H_    0.786419 0.073516 0.169711 0.252911
H49   H     H_    0.396674 0.678469 0.609790 0.130775
H50   H     H_    0.578793 0.267610 0.243448 0.130690
H51   H     H_    0.242998 0.594132 0.237652 0.261850
H52   H     H_    0.105886 0.626208 0.216082 0.249416
H53   H     H_    0.135729 0.718601 0.198341 0.254071
H54   H     H_    0.745584 0.345890 0.625640 0.254573
H55   H     H_    0.888271 0.302298 0.655730 0.252794
H56   H     H_    0.476132 0.170682 0.165456 0.117804
H57   H     H_    0.785856 0.415736 0.587892 0.254856
H58   H     H_    0.339393 0.479786 0.432959 0.140177
H59   H     H_    0.636945 0.498564 0.412084 0.133225
H60   H     H_    0.187409 0.163654 0.588871 0.118914
H61   H     H_    0.828799 0.847020 0.436634 0.122305
H62   H     H_    0.918622 0.588902 0.014631 0.107661
H63   H     H_    0.067861 0.300260 0.964394 0.106697
H64   H     H_    0.620787 0.798118 0.094881 0.131554
N1    N     N_R   0.705410 0.966550 0.689210 -0.043913
N2    N     N_R   0.556610 0.796750 0.548620 -0.037463
N3    N     N_R   0.556610 0.951620 0.703500 -0.042451
N4    N     N_R   0.443390 0.048380 0.296500 -0.042409
N5    N     N_R   0.294590 0.131500 0.522480 -0.053731
N6    N     N_R   0.705410 0.868500 0.477520 -0.051713
N7    N     N_R   0.705410 0.023370 0.632390 -0.042715
N8    N     N_R   0.294590 0.976630 0.367610 -0.042571
N9    N     N_R   0.294590 0.033450 0.310790 -0.044866
N10   N     N_R   0.294590 0.188320 0.465660 -0.054005
N11   N     N_R   0.705410 0.811680 0.534340 -0.052493
N12   N     N_R   0.556610 0.157790 0.497330 -0.042041
N13   N     N_R   0.443390 0.842210 0.502670 -0.042336
N14   N     N_R   0.443390 0.997080 0.657540 -0.037605
N15   N     N_R   0.556610 0.002920 0.342460 -0.038730
N16   N     N_R   0.443390 0.203250 0.451380 -0.037205
Ni1   Ni    Ni4+2 0.629830 0.882720 0.617850 0.213783
Ni2   Ni    Ni4+2 0.370170 0.117280 0.382150 0.213852
Ni3   Ni    Ni4+2 0.629830 0.013030 0.487540 0.213685
Ni4   Ni    Ni4+2 0.370170 0.986970 0.512460 0.212240

loop_
_geom_bond_atom_site_label_1
_geom_bond_atom_site_label_2
_ccdc_geom_bond_type
C51   H21   S    
C37   C74   S    
C63   C65   A    
C18   C75   S    
C29   C42   A    
C25   H4    S    
C14   C18   A    
C66   H31   S    
N7    Ni3   S    
C4    H56   S    
C76   H23   S    
C15   C19   A    
C41   H10   S    
C46   C49   A    
C69   H37   S    
C71   H44   S    
N11   Ni1   S    
C14   C21   A    
C35   C37   A    
C24   C26   D    
C39   H8    S    
C38   C42   A    
C55   H14   S    
C11   C76   A    
C38   H7    S    
C69   H36   S    
N2    Ni1   S    
C15   H2    S    
C70   H41   S    
C10   H63   S    
C74   H57   S    
C63   H19   S    
C33   C36   A    
C56   C57   A    
C40   N12   A    
C48   C56   S    
N8    Ni4   S    
C32   H50   S    
C2    C13   A    
C62   C64   A    
C46   H59   S    
C58   N3    A    
N12   N16   A    
C22   C25   D    
C35   C49   S    
C31   C33   A    
C19   C67   S    
C57   H15   S    
N9    Ni2   S    
C60   H60   S    
N5    N10   A    
C44   C47   A    
C24   C66   S    
C72   H46   S    
C48   C50   A    
N12   Ni3   S    
C17   C70   S    
C7    H27   S    
C74   H55   S    
C72   H48   S    
C17   N11   A    
C42   H5    S    
C66   H30   S    
C27   C51   D    
N3    Ni1   S    
C41   N13   A    
C45   C47   S    
C44   H58   S    
C23   C60   A    
C73   H53   S    
C69   H38   S    
N15   Ni3   S    
C51   C52   S    
C32   C35   A    
N1    Ni1   S    
N8    N9    A    
C54   H13   S    
C11   H25   S    
C36   C73   S    
C54   N15   A    
C5    C7    A    
N5    Ni4   S    
N3    N14   A    
C6    C8    A    
N6    Ni3   S    
C70   H40   S    
C25   C26   S    
C73   H51   S    
C34   C61   A    
C24   C34   S    
N6    N11   A    
C15   C20   A    
C68   H35   S    
C40   H9    S    
C2    C4    A    
C61   N6    A    
C41   C56   A    
N14   Ni4   S    
C3    C76   A    
C9    C11   A    
C9    H62   S    
C30   C72   S    
C53   H11   S    
C28   H1    S    
C8    H28   S    
C22   C68   S    
C57   N2    A    
C4    C6    A    
C14   H64   S    
C59   N4    A    
C16   C23   A    
C62   N7    A    
C62   H18   S    
C72   H47   S    
C30   C43   A    
C17   C34   A    
C31   H49   S    
C66   H29   S    
N4    Ni2   S    
C36   C38   A    
C1    C64   A    
C59   C75   A    
C63   N8    A    
C44   C50   A    
C7    C9    A    
C2    H34   S    
C55   N16   A    
N10   Ni2   S    
C71   H42   S    
C19   C21   A    
C12   N9    A    
C8    C10   A    
C16   C69   S    
C3    C5    A    
C10   C13   A    
C1    H22   S    
C39   C43   A    
C70   H39   S    
C47   C49   A    
C73   H52   S    
C6    C20   S    
C12   C65   A    
C26   H3    S    
C71   H43   S    
N4    N15   A    
C74   H54   S    
C28   C65   S    
C33   C50   S    
C29   C31   A    
C30   C32   A    
C28   C52   D    
C61   H61   S    
N13   Ni4   S    
N16   Ni2   S    
C52   H20   S    
C18   C20   A    
C68   H33   S    
N2    N13   A    
C27   H12   S    
C53   C67   A    
C68   H32   S    
C12   H24   S    
C1    N1    A    
C27   C64   S    
N1    N7    A    
C54   C75   A    
C46   C48   A    
C58   C67   A    
C53   N14   A    
C5    C21   S    
C40   C45   A    
C45   C55   A    
C37   C39   A    
C60   N5    A    
C43   H6    S    
C22   C23   S    
C16   N10   A    
C59   H17   S    
C13   H26   S    
C58   H16   S    
C3    H45   S    
C29   C71   S    
