data_mof_unit_31337.cif
_audit_creation_date              2012-12-11T14:44:33-0500
_audit_creation_method            fapswitch 2.2
_symmetry_space_group_name_H-M    P1
_symmetry_Int_Tables_number       1
_space_group_crystal_system       triclinic
_cell_length_a                    19.961948
_cell_length_b                    7.217578
_cell_length_c                    19.771128
_cell_angle_alpha                 89.999197
_cell_angle_beta                  98.321275
_cell_angle_gamma                 89.99991
_cell_volume                      2818.57382716

loop_
_atom_site_label
_atom_site_type_symbol
_atom_type_description
_atom_site_fract_x
_atom_site_fract_y
_atom_site_fract_z
_atom_type_partial_charge
O1    O     O_R   0.673210 0.377390 0.686390 -0.535650
O2    O     O_R   0.326790 0.622610 0.313610 -0.535651
O3    O     O_R   0.826790 0.877390 0.813610 -0.535659
O4    O     O_R   0.173210 0.122610 0.186390 -0.535655
O5    O     O_R   0.810750 0.706450 0.681250 -0.534086
O6    O     O_R   0.189250 0.293550 0.318750 -0.534087
O7    O     O_R   0.689250 0.206450 0.818750 -0.534087
O8    O     O_R   0.310750 0.793550 0.181250 -0.534087
C1    C     C_R   0.833139 0.539147 0.667529 0.702970
C2    C     C_R   0.166861 0.460853 0.332471 0.702969
C3    C     C_R   0.666860 0.039145 0.832470 0.702974
C4    C     C_R   0.333140 0.960855 0.167530 0.702973
O9    O     O_R   0.672750 0.707060 0.678240 -0.536458
O10   O     O_R   0.327250 0.292940 0.321760 -0.536458
O11   O     O_R   0.827250 0.207060 0.821760 -0.536463
O12   O     O_R   0.172750 0.792940 0.178240 -0.536463
O13   O     O_R   0.687800 0.877990 0.810580 -0.542242
O14   O     O_R   0.312200 0.122010 0.189420 -0.542241
O15   O     O_R   0.812200 0.377990 0.689420 -0.542242
O16   O     O_R   0.187800 0.622010 0.310580 -0.542243
C5    C     C_R   0.649530 0.538836 0.660390 0.696101
C6    C     C_R   0.350469 0.461165 0.339610 0.696098
C7    C     C_R   0.850467 0.038833 0.839613 0.696093
C8    C     C_R   0.149532 0.961166 0.160389 0.696104
O17   O     O_3   0.755100 0.544060 0.793420 -0.373763
O18   O     O_3   0.244900 0.455940 0.206580 -0.373759
O19   O     O_3   0.744900 0.044060 0.706580 -0.373758
O20   O     O_3   0.255100 0.955940 0.293420 -0.373761
V1    V     V_3+5 0.749050 0.818670 0.741950 1.403687
V2    V     V_3+5 0.250950 0.181330 0.258050 1.403692
V3    V     V_3+5 0.750950 0.318670 0.758050 1.403693
V4    V     V_3+5 0.249050 0.681330 0.241950 1.403696
C9    C     C_R   0.089436 0.965414 0.106435 -0.050986
C10   C     C_R   0.910562 0.034586 0.893567 -0.050998
C11   C     C_R   0.410565 0.465415 0.393564 -0.050948
C12   C     C_R   0.589434 0.534585 0.606437 -0.050947
C13   C     C_R   0.023812 0.152928 0.931826 -0.180608
C14   C     C_R   0.976188 0.847059 0.068174 -0.180599
C15   C     C_R   0.476163 0.652790 0.568197 -0.180603
C16   C     C_R   0.523835 0.347206 0.431805 -0.180605
C17   C     C_R   0.966328 0.142392 0.882941 -0.218951
C18   C     C_R   0.033671 0.857607 0.117061 -0.218959
C19   C     C_R   0.533651 0.642277 0.617080 -0.218977
C20   C     C_R   0.466348 0.357718 0.382922 -0.218977
C21   C     C_R   0.912224 0.936393 0.956133 0.109964
C22   C     C_R   0.087778 0.063587 0.043866 0.109981
C23   C     C_R   0.587790 0.436493 0.543855 0.109984
C24   C     C_R   0.412210 0.563509 0.456145 0.109984
C25   C     C_R   0.971794 0.945098 0.006063 0.106674
C26   C     C_R   0.028206 0.054893 0.993937 0.106657
C27   C     C_R   0.528215 0.445160 0.493929 0.106667
C28   C     C_R   0.471784 0.554839 0.506072 0.106669
H1    H     H_    0.034643 0.779787 0.164098 0.130078
H2    H     H_    0.965354 0.220215 0.835906 0.130081
H3    H     H_    0.465386 0.279966 0.335875 0.130066
H4    H     H_    0.534612 0.720026 0.664127 0.130064
H5    H     H_    0.064612 0.240155 0.920065 0.140264
H6    H     H_    0.935389 0.759820 0.079934 0.140257
H7    H     H_    0.435349 0.739930 0.579971 0.140266
H8    H     H_    0.564649 0.260062 0.420032 0.140267
C29   C     C_R   0.564301 0.170556 0.880675 0.110432
C30   C     C_R   0.435699 0.829442 0.119324 0.110433
C31   C     C_R   0.935684 0.670600 0.619307 0.110383
C32   C     C_R   0.064316 0.329399 0.380694 0.110385
C33   C     C_R   0.614656 0.030780 0.879286 -0.084779
C34   C     C_R   0.385345 0.969220 0.120715 -0.084780
C35   C     C_R   0.885343 0.530786 0.620712 -0.084811
C36   C     C_R   0.114657 0.469214 0.379288 -0.084811
C37   C     C_R   0.615423 0.877881 0.923350 -0.269062
C38   C     C_R   0.384578 0.122120 0.076651 -0.269064
C39   C     C_R   0.884590 0.377853 0.576664 -0.269043
C40   C     C_R   0.115410 0.622148 0.423336 -0.269044
C41   C     C_R   0.569392 0.863408 0.970109 0.093032
C42   C     C_R   0.430609 0.136593 0.029892 0.093033
C43   C     C_R   0.930623 0.363374 0.529908 0.093042
C44   C     C_R   0.069377 0.636625 0.470092 0.093042
C45   C     C_R   0.522624 0.006797 0.975468 0.026819
C46   C     C_R   0.477377 0.993203 0.024533 0.026819
C47   C     C_R   0.977376 0.506799 0.524532 0.026813
C48   C     C_R   0.022624 0.493201 0.475468 0.026813
C49   C     C_R   0.520642 0.162850 0.931654 0.083290
C50   C     C_R   0.479358 0.837149 0.068346 0.083291
C51   C     C_R   0.979342 0.662893 0.568327 0.083295
C52   C     C_R   0.020658 0.337106 0.431673 0.083295
C53   C     C_R   0.569993 0.707196 0.012100 -0.185274
C54   C     C_R   0.430007 0.292804 0.987900 -0.185274
C55   C     C_R   0.930038 0.207121 0.487936 -0.185300
C56   C     C_R   0.069962 0.792879 0.512064 -0.185301
C57   C     C_R   0.525545 0.693500 0.060182 -0.184248
C58   C     C_R   0.474455 0.306499 0.939817 -0.184249
C59   C     C_R   0.974489 0.193416 0.439858 -0.184255
C60   C     C_R   0.025511 0.806583 0.560143 -0.184255
H9    H     H_    0.652667 0.769181 0.921632 0.140363
H10   H     H_    0.347335 0.230821 0.078369 0.140364
H11   H     H_    0.847355 0.269127 0.578393 0.140359
H12   H     H_    0.152644 0.730874 0.421607 0.140359
H13   H     H_    0.604940 0.594384 0.007655 0.131354
H14   H     H_    0.395060 0.405614 0.992344 0.131354
H15   H     H_    0.895103 0.094282 0.492395 0.131360
H16   H     H_    0.104897 0.905717 0.507605 0.131360
H17   H     H_    0.527485 0.567810 0.090160 0.145706
H18   H     H_    0.472513 0.432186 0.909838 0.145705
H19   H     H_    0.972566 0.067685 0.409901 0.145716
H20   H     H_    0.027435 0.932313 0.590100 0.145715
C61   C     C_3   0.149541 0.169244 0.028430 -0.796307
H21   H     H_    0.164494 0.118511 0.979746 0.199656
H22   H     H_    0.137748 0.319476 0.024045 0.213387
H23   H     H_    0.194704 0.151739 0.067478 0.210015
C62   C     C_3   0.850475 0.830655 0.971559 -0.796282
H24   H     H_    0.835519 0.881290 0.020259 0.199638
H25   H     H_    0.805316 0.848164 0.932514 0.210045
H26   H     H_    0.862290 0.680420 0.975918 0.213383
C63   C     C_3   0.350434 0.669080 0.471591 -0.796311
H27   H     H_    0.335494 0.618306 0.520274 0.199661
H28   H     H_    0.362208 0.819322 0.475980 0.213392
H29   H     H_    0.305272 0.651544 0.432542 0.209984
C64   C     C_3   0.649567 0.330929 0.528409 -0.796310
H30   H     H_    0.664504 0.381700 0.479724 0.199663
H31   H     H_    0.694730 0.348475 0.567455 0.209980
H32   H     H_    0.637796 0.180685 0.524022 0.213392
C65   C     C_3   0.553143 0.318484 0.825579 -0.764495
H33   H     H_    0.574066 0.279621 0.778659 0.211542
H34   H     H_    0.498232 0.337160 0.807781 0.192634
H35   H     H_    0.575483 0.451841 0.845771 0.208934
C66   C     C_3   0.446854 0.681511 0.174419 -0.764505
H36   H     H_    0.425933 0.720373 0.221339 0.211543
H37   H     H_    0.424512 0.548160 0.154227 0.208937
H38   H     H_    0.501764 0.662826 0.192216 0.192635
C67   C     C_3   0.946819 0.818583 0.674385 -0.764335
H39   H     H_    0.925951 0.779629 0.721329 0.211501
H40   H     H_    0.001730 0.837468 0.692149 0.192599
H41   H     H_    0.924398 0.951862 0.654192 0.208937
C68   C     C_3   0.053182 0.181414 0.325616 -0.764338
H42   H     H_    0.074049 0.220369 0.278672 0.211500
H43   H     H_    0.075605 0.048137 0.345809 0.208938
H44   H     H_    0.998271 0.162525 0.307853 0.192599

loop_
_geom_bond_atom_site_label_1
_geom_bond_atom_site_label_2
_ccdc_geom_bond_type
O17   V3    S    
C39   C43   A    
O1    C5    A    
C16   H8    S    
C55   C59   A    
O19   V1    S    
O13   V1    S    
O3    C7    A    
C40   C44   A    
O15   V3    S    
C14   C25   A    
C34   C38   A    
C45   C46   A    
O7    C3    A    
C6    C11   S    
C61   H22   S    
C50   C57   A    
C9    C18   A    
C32   C36   A    
O9    V1    S    
C38   H10   S    
C14   C18   A    
C24   C28   A    
C37   H9    S    
C62   H25   S    
C18   H1    S    
O4    C8    A    
C21   C62   S    
C39   H11   S    
C22   C61   S    
O1    V3    S    
C12   C23   A    
O2    V4    S    
O3    V1    S    
C38   C42   A    
C32   C52   A    
C65   H35   S    
C14   H6    S    
C23   C64   S    
C1    O15   A    
C58   H18   S    
C56   C60   A    
C2    O16   A    
O2    C6    A    
C68   H44   S    
C37   C41   A    
O14   V2    S    
C52   C59   A    
C21   C25   A    
C44   C56   A    
C55   H15   S    
C48   C52   A    
C63   H29   S    
O11   C7    A    
C15   C28   A    
C30   C50   A    
O12   C8    A    
C9    C22   A    
C10   C17   A    
O10   V2    S    
C11   C24   A    
O5    V1    S    
C61   H23   S    
C31   C35   A    
O7    V3    S    
C30   C34   A    
C27   C28   A    
O8    V4    S    
C54   C58   A    
C62   H26   S    
C5    C12   S    
C53   C57   A    
O18   V4    S    
C23   C27   A    
C4    C34   S    
C31   C51   A    
C36   C40   A    
C1    C35   S    
O5    C1    A    
C51   C60   A    
C66   H38   S    
C46   C50   A    
C45   C49   A    
O8    C4    A    
C7    C10   S    
C15   H7    S    
O9    C5    A    
C10   C21   A    
C42   C54   A    
C11   C20   A    
C41   C53   A    
C65   H33   S    
C56   H16   S    
C49   C58   A    
C43   C55   A    
O6    V2    S    
C68   H42   S    
C64   H32   S    
C66   H37   S    
C63   H27   S    
O16   V4    S    
C32   C68   S    
C3    O13   A    
C57   H17   S    
C44   C48   A    
C29   C65   S    
C59   H19   S    
O6    C2    A    
C30   C66   S    
C15   C19   A    
O11   V3    S    
C2    C36   S    
O12   V4    S    
C16   C27   A    
C61   H21   S    
C22   C26   A    
C8    C9    S    
C67   H41   S    
C64   H31   S    
C67   H39   S    
C29   C49   A    
C64   H30   S    
C47   C51   A    
C13   C26   A    
C20   H3    S    
O10   C6    A    
C66   H36   S    
C33   C37   A    
O20   V2    S    
C35   C39   A    
C31   C67   S    
C13   C17   A    
C54   H14   S    
O4    V2    S    
C17   H2    S    
C65   H34   S    
C53   H13   S    
C60   H20   S    
C47   C48   A    
C40   H12   S    
C29   C33   A    
C19   H4    S    
C16   C20   A    
C25   C26   A    
C42   C46   A    
C4    O14   A    
C68   H43   S    
C41   C45   A    
C12   C19   A    
C67   H40   S    
C62   H24   S    
C43   C47   A    
C13   H5    S    
C3    C33   S    
C24   C63   S    
C63   H28   S    
