data_mof_unit_34136.cif
_audit_creation_date              2012-12-11T14:17:35-0500
_audit_creation_method            fapswitch 2.2
_symmetry_space_group_name_H-M    P1
_symmetry_Int_Tables_number       1
_space_group_crystal_system       triclinic
_cell_length_a                    6.950274
_cell_length_b                    13.713824
_cell_length_c                    20.43464
_cell_angle_alpha                 102.430877
_cell_angle_beta                  90.672262
_cell_angle_gamma                 90.075252
_cell_volume                      1901.91706221

loop_
_atom_site_label
_atom_site_type_symbol
_atom_type_description
_atom_site_fract_x
_atom_site_fract_y
_atom_site_fract_z
_atom_type_partial_charge
O1    O     O_R   0.506860 0.599390 0.449240 -0.541164
O2    O     O_R   0.180220 0.594600 0.586780 -0.543442
O3    O     O_R   0.004500 0.400610 0.550760 -0.539206
C1    C     C_R   0.349402 0.616134 0.613440 0.740444
O4    O     O_R   0.177490 0.611290 0.451970 -0.543536
O5    O     O_R   0.001750 0.417420 0.414990 -0.538986
C2    C     C_R   0.345064 0.636926 0.435090 0.696234
O6    O     O_R   0.509610 0.582580 0.585010 -0.543869
O7    O     O_3   0.337420 0.436370 0.488020 -0.372195
V1    V     V_3+5 0.064680 0.511800 0.502220 1.421553
O8    O     O_R   0.671710 0.405400 0.413220 -0.546614
C3    C     C_R   0.839249 0.385209 0.386180 0.741995
O9    O     O_R   0.674440 0.388710 0.548030 -0.541468
C4    C     C_R   0.843919 0.362877 0.565263 0.696601
V2    V     V_3+5 0.564010 0.488200 0.497780 1.418156
O10   O     O_3   0.841140 0.563630 0.511980 -0.374223
C5    C     C_R   0.904199 0.114688 0.612469 -0.159060
H1    H     H_    0.899102 0.165119 0.520109 0.107849
H2    H     H_    0.933880 0.990302 0.694920 0.123799
H3    H     H_    0.928414 0.037772 0.587252 0.113877
C6    C     C_R   0.855487 0.286345 0.605243 -0.031203
C7    C     C_R   0.827698 0.312656 0.928612 -0.170507
C8    C     C_R   0.810632 0.388180 0.893266 -0.119490
C9    C     C_R   0.821355 0.366541 0.823579 -0.157673
C10   C     C_R   0.850200 0.267542 0.787067 0.076232
C11   C     C_R   0.869331 0.190436 0.823811 0.068191
C12   C     C_R   0.860540 0.242492 0.715482 0.072698
C13   C     C_R   0.891513 0.141375 0.682596 0.141032
C14   C     C_R   0.910278 0.067471 0.719750 -0.203493
C15   C     C_R   0.899058 0.091367 0.789139 -0.195552
C16   C     C_R   0.841803 0.314099 0.675109 -0.214451
C17   C     C_R   0.887162 0.186827 0.574109 -0.172223
C18   C     C_R   0.857232 0.214063 0.894735 -0.066528
H4    H     H_    0.818221 0.392129 0.696129 0.093473
H5    H     H_    0.817475 0.331117 0.982757 0.098041
H6    H     H_    0.806453 0.429187 0.799988 0.106740
H7    H     H_    0.788113 0.464355 0.920114 0.118787
H8    H     H_    0.914338 0.031148 0.815449 0.116735
C19   C     C_2   0.000147 0.303309 0.280556 -0.130904
C20   C     C_2   0.841038 0.319060 0.318614 -0.307573
H9    H     H_    0.133745 0.339908 0.300313 0.133422
H10   H     H_    0.704768 0.285220 0.300024 0.130487
C21   C     C_2   0.008618 0.238540 0.211790 -0.116103
C22   C     C_2   0.858721 0.186472 0.179325 -0.259167
H11   H     H_    0.146465 0.234452 0.187164 0.141816
H12   H     H_    0.718155 0.193141 0.201813 0.130030
C23   C     C_2   0.204258 0.791316 0.781751 -0.139443
C24   C     C_2   0.362905 0.815440 0.820059 -0.302103
H13   H     H_    0.066676 0.822227 0.800454 0.129824
H14   H     H_    0.501178 0.784773 0.802606 0.128195
C25   C     C_2   0.203212 0.722667 0.714292 -0.131438
C26   C     C_2   0.361575 0.684561 0.680180 -0.311479
H15   H     H_    0.062104 0.703713 0.691710 0.134716
H16   H     H_    0.504598 0.703267 0.700608 0.125055
C27   C     C_R   0.327665 0.887235 0.391989 -0.144306
H17   H     H_    0.328850 0.834644 0.483341 0.103572
H18   H     H_    0.354336 0.013704 0.313777 0.128722
H19   H     H_    0.321613 0.964788 0.418218 0.114770
C28   C     C_R   0.348439 0.713911 0.396460 -0.026293
C29   C     C_R   0.348225 0.689494 0.074170 -0.159761
C30   C     C_R   0.329052 0.613858 0.109041 -0.117217
C31   C     C_R   0.323217 0.636091 0.178656 -0.144540
C32   C     C_R   0.339610 0.735690 0.215766 0.077144
C33   C     C_R   0.358513 0.814141 0.180052 0.000289
C34   C     C_R   0.339063 0.759591 0.287403 0.073381
C35   C     C_R   0.333594 0.861111 0.321792 0.120705
C36   C     C_R   0.346219 0.936441 0.286534 -0.224947
C37   C     C_R   0.373165 0.914064 0.217716 -0.027364
C38   C     C_R   0.349098 0.686463 0.326515 -0.212137
C39   C     C_R   0.333890 0.813753 0.429139 -0.174688
C40   C     C_R   0.361286 0.789221 0.108293 -0.079473
H20   H     H_    0.360716 0.607883 0.304487 0.090647
H21   H     H_    0.349615 0.670212 0.019868 0.097810
H22   H     H_    0.301696 0.573560 0.201908 0.101311
H23   H     H_    0.316165 0.537099 0.081782 0.114178
O11   O     O_R   0.203230 0.917310 0.915020 -0.542853
O12   O     O_R   0.535500 0.888690 0.048040 -0.529501
O13   O     O_R   0.711080 0.082610 0.085000 -0.535682
C41   C     C_R   0.367832 0.864410 0.066717 0.715498
O14   O     O_R   0.532630 0.905370 0.913230 -0.550501
O15   O     O_R   0.708190 0.099410 0.949230 -0.544148
C42   C     C_R   0.363998 0.884177 0.886554 0.733389
O16   O     O_R   0.206120 0.900510 0.050790 -0.530193
O17   O     O_3   0.375360 0.063570 0.011990 -0.378206
V3    V     V_3+5 0.648170 0.988200 0.997780 1.454391
O18   O     O_R   0.038240 0.111390 0.951940 -0.546955
C43   C     C_R   0.868780 0.136896 0.934524 0.663938
O19   O     O_R   0.041120 0.094710 0.086750 -0.529320
C44   C     C_R   0.872643 0.118184 0.112623 0.809065
V4    V     V_3+5 0.148810 0.011930 0.002180 1.451834
O20   O     O_3   0.871750 0.936430 0.988010 -0.373282
C45   C     C_2   0.456461 0.995061 0.191420 0.733701
O21   O     O_2   0.630421 0.997067 0.184679 -0.559171
O22   O     O_R   0.340021 0.071771 0.178877 -0.660610
H24   H     H_    0.414839 0.124189 0.161633 0.273912

loop_
_geom_bond_atom_site_label_1
_geom_bond_atom_site_label_2
_ccdc_geom_bond_type
C32   C34   A    
C1    O6    A    
C40   C41   S    
V3    O20   S    
C23   H13   S    
C30   H23   S    
C7    H5    S    
C6    C16   A    
C31   C32   A    
C1    C26   S    
C33   C37   A    
C4    C6    S    
C13   C14   A    
O5    C3    A    
V2    O10   S    
C29   H21   S    
C5    H3    S    
C15   H8    S    
C33   C40   A    
O16   V4    S    
O8    V2    S    
C22   H12   S    
C8    C9    A    
O1    V2    S    
C14   C15   A    
O7    V1    S    
C20   H10   S    
C35   C36   A    
O12   V3    S    
O9    C4    A    
O22   H24   S    
O17   V4    S    
H18   C36   S    
C2    C28   S    
C26   H16   S    
O12   C41   A    
O13   C44   A    
C6    C17   A    
C12   C16   A    
C25   C26   D    
C9    C10   A    
O14   C42   A    
O18   V4    S    
O11   C42   A    
C19   C20   D    
O4    C2    A    
O18   C43   A    
C19   C21   S    
C29   C40   A    
C10   C11   A    
C8    H7    S    
C36   C37   A    
C29   C30   A    
C25   H15   S    
C3    C20   S    
C38   H20   S    
O2    C1    A    
C21   C22   D    
O14   V3    S    
C11   C18   A    
C23   C24   D    
C45   O22   S    
C16   H4    S    
C9    H6    S    
O17   V3    S    
C21   H11   S    
O15   C43   A    
O3    C4    A    
C28   C38   A    
O13   V3    S    
O19   V4    S    
C11   C15   A    
O6    V2    S    
H17   C39   S    
O9    V2    S    
H1    C17   S    
O2    V1    S    
C27   C35   A    
C7    C18   A    
O1    C2    A    
C5    C13   A    
O5    V1    S    
C23   C25   S    
O8    C3    A    
C10   C12   A    
O7    V2    S    
O4    V1    S    
O3    V1    S    
V1    O10   S    
C41   O16   A    
V4    O20   S    
C34   C38   A    
C24   H14   S    
C45   O21   D    
C37   C45   S    
C24   C42   S    
C18   C43   S    
C30   C31   A    
C27   C39   A    
C28   C39   A    
C32   C33   A    
O19   C44   A    
C19   H9    S    
C34   C35   A    
C27   H19   S    
C12   C13   A    
C5    C17   A    
C7    C8    A    
C31   H22   S    
O15   V3    S    
C22   C44   S    
O11   V4    S    
H2    C14   S    
