data_mof_unit_31177.cif
_audit_creation_date              2013-03-05T15:59:44-0500
_audit_creation_method            fapswitch 2.2
_symmetry_space_group_name_H-M    P1
_symmetry_Int_Tables_number       1
_space_group_crystal_system       triclinic
_cell_length_a                    6.966371
_cell_length_b                    14.149027
_cell_length_c                    16.031702
_cell_angle_alpha                 90.182688
_cell_angle_beta                  88.972704
_cell_angle_gamma                 90.662352
_cell_volume                      1579.83614054

loop_
_atom_site_label
_atom_site_type_symbol
_atom_site_description
_atom_site_fract_x
_atom_site_fract_y
_atom_site_fract_z
_atom_type_partial_charge
O1    O     O_R   0.638960 0.835150 0.161940 -0.542340
O2    O     O_R   0.361040 0.164850 0.838060 -0.542324
O3    O     O_R   0.309170 0.846340 0.337470 -0.590137
O4    O     O_R   0.690830 0.153660 0.662530 -0.590136
O5    O     O_R   0.138810 0.664830 0.338070 -0.607654
O6    O     O_R   0.861190 0.335170 0.661930 -0.607651
C1    C     C_R   0.478011 0.870040 0.365096 1.004699
C2    C     C_R   0.521991 0.129962 0.634906 1.004723
O7    O     O_R   0.309250 0.846350 0.162570 -0.565846
O8    O     O_R   0.690750 0.153650 0.837430 -0.565847
O9    O     O_R   0.138880 0.664840 0.161920 -0.608256
O10   O     O_R   0.861120 0.335160 0.838080 -0.608263
C3    C     C_R   0.480287 0.868117 0.133959 1.180353
C4    C     C_R   0.519715 0.131896 0.866051 1.180335
O11   O     O_R   0.638880 0.835150 0.338090 -0.575466
O12   O     O_R   0.361120 0.164850 0.661910 -0.575507
O13   O     O_3   0.472380 0.690440 0.250000 -0.317148
O14   O     O_3   0.527620 0.309560 0.750000 -0.317156
V1    V     V_3+5 0.197550 0.761040 0.250010 1.274867
V2    V     V_3+5 0.802450 0.238960 0.749990 1.274868
O15   O     O_R   0.809160 0.653640 0.162540 -0.587158
O16   O     O_R   0.190840 0.346360 0.837460 -0.587163
C5    C     C_R   0.978262 0.631328 0.133519 0.994283
C6    C     C_R   0.021738 0.368673 0.866481 0.994294
O17   O     O_R   0.809090 0.653640 0.337440 -0.611430
O18   O     O_R   0.190910 0.346360 0.662560 -0.611430
C7    C     C_R   0.976472 0.631195 0.366575 0.889327
C8    C     C_R   0.023528 0.368805 0.633425 0.889341
V3    V     V_3+5 0.697540 0.738950 0.250000 1.260078
V4    V     V_3+5 0.302460 0.261050 0.750000 1.260072
O19   O     O_3   0.972580 0.809550 0.250010 -0.201915
O20   O     O_3   0.027420 0.190450 0.749990 -0.201929
C9    C     C_3   0.075152 0.583689 0.522663 -0.110034
C10   C     C_3   0.924848 0.416311 0.477336 -0.110017
C11   C     C_3   0.903763 0.532818 0.567081 -0.120095
C12   C     C_3   0.096237 0.467181 0.432919 -0.120081
C13   C     C_3   0.014348 0.439111 0.562483 -0.097910
C14   C     C_3   0.985651 0.560889 0.437517 -0.097905
C15   C     C_3   0.185735 0.489241 0.518787 -0.107521
C16   C     C_3   0.814265 0.510758 0.481212 -0.107538
H1    H     H_    0.338892 0.480267 0.534576 0.115349
H2    H     H_    0.661108 0.519732 0.465423 0.115351
C17   C     C_3   0.918947 0.417511 0.023351 -0.052112
C18   C     C_3   0.081053 0.582489 0.976648 -0.052131
C19   C     C_3   0.092695 0.465751 0.065900 -0.107744
C20   C     C_3   0.907305 0.534249 0.934100 -0.107767
H3    H     H_    0.852181 0.349027 0.042147 0.187444
H4    H     H_    0.147819 0.650973 0.957852 0.187435
C21   C     C_3   0.988869 0.561120 0.062656 -0.157862
C22   C     C_3   0.011130 0.438880 0.937343 -0.157855
C23   C     C_3   0.814880 0.513660 0.020888 -0.092737
C24   C     C_3   0.185120 0.486340 0.979112 -0.092722
C25   C     C_3   0.621664 0.027006 0.441405 0.419395
C26   C     C_3   0.378356 0.973003 0.558599 0.419327
C27   C     C_3   0.455722 0.088171 0.474922 -0.239291
C28   C     C_3   0.544289 0.911837 0.525079 -0.239293
C29   C     C_3   0.511252 0.059926 0.564436 -0.266345
C30   C     C_3   0.488760 0.940083 0.435561 -0.266371
C31   C     C_3   0.680036 0.000115 0.530112 -0.214562
C32   C     C_3   0.319965 0.999892 0.469893 -0.214599
C33   C     C_3   0.589195 0.921058 0.976120 0.203035
C34   C     C_3   0.410803 0.078971 0.023899 0.203055
C35   C     C_3   0.411573 0.962044 0.934808 0.173885
C36   C     C_3   0.588425 0.037985 0.065214 0.173952
C37   C     C_3   0.503630 0.062606 0.936256 -0.579714
C38   C     C_3   0.496369 0.937421 0.063765 -0.579721
C39   C     C_3   0.680910 0.020912 0.978409 0.212275
C40   C     C_3   0.319089 0.979117 0.021613 0.212305
H5    H     H_    0.824696 0.559883 0.622776 0.128824
H6    H     H_    0.175304 0.440116 0.377224 0.128830
N1    N     N_R   0.318797 0.917838 0.864026 0.307431
O21   O     O_R   0.254874 0.831313 0.869129 -0.291185
O22   O     O_R   0.316205 0.961615 0.793104 -0.307824
N2    N     N_R   0.681182 0.082203 0.135998 0.307437
O23   O     O_R   0.745141 0.168720 0.130877 -0.291231
O24   O     O_R   0.683591 0.038477 0.206947 -0.307987
N3    N     N_R   0.682749 0.835268 0.946452 0.290303
O25   O     O_R   0.747293 0.830344 0.869976 -0.278897
O26   O     O_R   0.686478 0.760551 0.993347 -0.401773
N4    N     N_R   0.317243 0.164761 0.053564 0.290299
O27   O     O_R   0.252697 0.169690 0.130039 -0.278901
O28   O     O_R   0.313493 0.239472 0.006661 -0.401786
N5    N     N_R   0.874437 0.047579 0.951628 0.268318
O29   O     O_R   0.944707 0.128415 0.975837 -0.343342
O30   O     O_R   0.947869 0.007778 0.885424 -0.287237
N6    N     N_R   0.125559 0.952451 0.048393 0.268315
O31   O     O_R   0.052128 0.992251 0.114599 -0.287271
O32   O     O_R   0.055281 0.871619 0.024179 -0.343339
H7    H     H_    0.136884 0.653163 0.541228 0.144538
H8    H     H_    0.863116 0.346836 0.458772 0.144605
H9    H     H_    0.169098 0.437732 0.120566 0.150373
H10   H     H_    0.830902 0.562268 0.879434 0.150368
H11   H     H_    0.661967 0.525133 0.038360 0.137847
H12   H     H_    0.338032 0.474867 0.961639 0.137845
H13   H     H_    0.421766 0.160530 0.453520 0.170995
H14   H     H_    0.578253 0.839472 0.546472 0.170999
N7    N     N_R   0.761090 0.058179 0.378459 0.250232
O33   O     O_R   0.766505 0.146124 0.355018 -0.347612
O34   O     O_R   0.892364 0.000518 0.351493 -0.354734
N8    N     N_R   0.239059 0.941806 0.621579 0.250206
O35   O     O_R   0.234070 0.853911 0.645154 -0.347442
O36   O     O_R   0.107560 0.999374 0.648489 -0.354776
H15   H     H_    0.829627 0.000881 0.552034 0.202098
H16   H     H_    0.170381 0.999122 0.447962 0.202104

loop_
_geom_bond_atom_site_label_1
_geom_bond_atom_site_label_2
_geom_bond_distance
_ccdc_geom_bond_type
C18   C21   1.539958 S    
C38   C40   1.542483 S    
C35   C37   1.554204 S    
C39   N5    1.453556 S    
C10   C13   1.542465 S    
O13   V3    1.704861 S    
C25   C27   1.540114 S    
O4    C2    1.304072 A    
V1    O19   1.718187 S    
C21   C23   1.541386 S    
N7    O33   1.300931 A    
C25   C31   1.536336 S    
C15   H1    1.109778 S    
C26   C32   1.536339 S    
N3    O25   1.300237 A    
O9    V1    2.002430 S    
C9    C15   1.550696 S    
N2    O24   1.296995 A    
C10   C16   1.550696 S    
C34   N4    1.458734 S    
C11   C13   1.542010 S    
O3    C1    1.304107 A    
N6    O32   1.299796 A    
C29   C31   1.548656 S    
C20   H10   1.110105 S    
C7    C14   1.516062 S    
O12   V4    1.998498 S    
C40   N6    1.453561 S    
C33   C35   1.534437 S    
O7    C3    1.302975 A    
C34   C36   1.534450 S    
C9    C11   1.550347 S    
O5    C7    1.297950 A    
C33   C38   1.553978 S    
O7    V1    1.994374 S    
O6    C8    1.297951 A    
C33   N3    1.458723 S    
C37   C39   1.542479 S    
C22   C24   1.541385 S    
O3    V1    2.008446 S    
O14   V4    1.704862 S    
V4    O20   2.150529 S    
C1    C30   1.502700 S    
C10   C12   1.550348 S    
C18   C24   1.549851 S    
C16   H2    1.109777 S    
C2    O12   1.296554 A    
C27   C32   1.560733 S    
C6    C22   1.508087 S    
C26   N8    1.453884 S    
C19   H9    1.110106 S    
N8    O36   1.299843 A    
N7    O34   1.299858 A    
C18   C20   1.550400 S    
O11   V3    1.998498 S    
C3    C38   1.496813 S    
N3    O26   1.299975 A    
O17   V3    2.024222 S    
C26   C28   1.540091 S    
N2    O23   1.300192 A    
C36   C39   1.542528 S    
C27   H13   1.110235 S    
O8    C4    1.302980 A    
O8    V2    1.994373 S    
N1    O22   1.296997 A    
N6    O31   1.299509 A    
C1    O11   1.296566 A    
C19   C24   1.549654 S    
C25   N7    1.453990 S    
O15   V3    1.999852 S    
C20   C23   1.549654 S    
C36   C38   1.554220 S    
C10   H8    1.110296 S    
C9    H7    1.110297 S    
C2    C29   1.502693 S    
C33   C39   1.544447 S    
N5    O29   1.299795 A    
C19   C21   1.539822 S    
O10   V2    2.002428 S    
O1    V3    2.014456 S    
C24   H12   1.110211 S    
C17   C19   1.550400 S    
C23   H11   1.110211 S    
N4    O28   1.299975 A    
C12   H6    1.110110 S    
C35   N1    1.452259 S    
O18   V4    2.024223 S    
C27   C29   1.547880 S    
O16   C6    1.300724 A    
O1    C3    1.292942 A    
C12   C14   1.542011 S    
V2    O20   1.718187 S    
C28   H14   1.110281 S    
O10   C6    1.299528 A    
C35   C40   1.542526 S    
O16   V4    1.999853 S    
C34   C37   1.553971 S    
N5    O30   1.299505 A    
C12   C15   1.550735 S    
N4    O27   1.300231 A    
C25   C30   1.534487 S    
C17   C22   1.539956 S    
O5    V1    1.998058 S    
O17   C7    1.306800 A    
O6    V2    1.998056 S    
C20   C22   1.539822 S    
O18   C8    1.306801 A    
C9    C14   1.542466 S    
C28   C31   1.560681 S    
C34   C40   1.544443 S    
O2    V4    2.014453 S    
C31   H15   1.105644 S    
O15   C5    1.300725 A    
C11   C16   1.550736 S    
N1    O21   1.300193 A    
V3    O19   2.150530 S    
C14   C16   1.540422 S    
C17   C23   1.549851 S    
C17   H3    1.110173 S    
C8    C13   1.516063 S    
O9    C5    1.299528 A    
N8    O35   1.300850 A    
O13   V1    2.169705 S    
C4    C37   1.496816 S    
C28   C30   1.547921 S    
O14   V2    2.169705 S    
O2    C4    1.292939 A    
C5    C21   1.508086 S    
O4    V2    2.008447 S    
C11   H5    1.110111 S    
C13   C15   1.540421 S    
C36   N2    1.452288 S    
C32   H16   1.105656 S    
C30   C32   1.548738 S    
C18   H4    1.110173 S    
C26   C29   1.534432 S    
