data_mof_unit_48124.cif
_audit_creation_date              2012-12-10T17:48:48-0500
_audit_creation_method            fapswitch 2.2
_symmetry_space_group_name_H-M    P1
_symmetry_Int_Tables_number       1
_space_group_crystal_system       triclinic
_cell_length_a                    15.703948
_cell_length_b                    10.644803
_cell_length_c                    9.905726
_cell_angle_alpha                 91.836599
_cell_angle_beta                  89.993622
_cell_angle_gamma                 91.805802
_cell_volume                      1654.22172096

loop_
_atom_site_label
_atom_site_type_symbol
_atom_type_description
_atom_site_fract_x
_atom_site_fract_y
_atom_site_fract_z
_atom_type_partial_charge
C1    C     C_R   0.507584 0.260657 0.498223 0.905561
C2    C     C_R   0.586368 0.071446 0.847736 -0.462275
C3    C     C_R   0.535444 0.963381 0.873231 0.438968
C4    C     C_R   0.338421 0.499319 0.500027 0.879435
C5    C     C_R   0.490352 0.903551 0.765409 0.461854
C6    C     C_R   0.502608 0.945217 0.630892 -0.185580
C7    C     C_R   0.537206 0.065817 0.614457 -0.096173
C8    C     C_R   0.515593 0.127139 0.495354 -0.062041
C9    C     C_R   0.482548 0.060028 0.382886 -0.240331
C10   C     C_R   0.469308 0.932747 0.389102 -0.211452
C11   C     C_R   0.482218 0.873702 0.510942 -0.062938
C12   C     C_3   0.949308 0.469063 0.628303 0.359805
C13   C     C_R   0.389353 0.333731 0.135201 -0.156432
C14   C     C_R   0.334394 0.251885 0.062629 -0.194704
C15   C     C_R   0.333535 0.252497 0.922942 -0.201880
C16   C     C_R   0.492216 0.739744 0.503051 0.876058
C17   C     C_R   0.387745 0.334762 0.854995 -0.138317
C18   C     C_R   0.444878 0.418491 0.925132 0.174928
C19   C     C_R   0.445225 0.418271 0.069775 0.158755
C20   C     C_R   0.553073 0.577265 0.074148 -0.090891
C21   C     C_R   0.552921 0.577497 0.931025 -0.018051
C22   C     C_R   0.661585 0.501743 0.499973 0.918441
C23   C     C_3   0.917587 0.528797 0.496370 -0.050504
C24   C     C_3   0.047175 0.471275 0.628721 -0.475707
C25   C     C_3   0.047774 0.440246 0.364160 0.228859
C26   C     C_3   0.947348 0.440837 0.374372 0.220752
C27   C     C_1   0.750362 0.511465 0.499899 -0.230617
C28   C     C_3   0.083266 0.520375 0.492976 0.013957
C29   C     C_3   0.903618 0.454473 0.851219 -0.350171
C30   C     C_3   0.921323 0.735874 0.357954 -0.402234
C31   C     C_3   0.939732 0.877666 0.352405 -0.916097
C32   C     C_3   0.714808 0.185905 0.629587 -0.372568
C33   C     C_3   0.596410 0.929732 0.083052 -0.349520
C34   C     C_3   0.954187 0.670949 0.488870 0.666288
C35   C     C_3   0.348462 0.852538 0.776099 -0.267935
C36   C     C_3   0.082863 0.503087 0.230028 -0.336008
C37   C     C_3   0.076349 0.424390 0.097274 -0.873823
C38   C     C_3   0.079631 0.299970 0.353565 -0.339264
C39   C     C_3   0.068952 0.211284 0.471201 -0.985229
C40   C     C_3   0.849134 0.382176 0.202756 -0.349966
C41   C     C_3   0.102896 0.748654 0.599044 -0.267501
C42   C     C_3   0.106143 0.888726 0.570745 -0.902027
C43   C     C_3   0.846068 0.771863 0.629591 -0.222172
C44   C     C_3   0.056181 0.663331 0.486460 -0.113236
C45   C     C_1   0.825688 0.520834 0.498670 -0.011080
C46   C     C_1   0.174758 0.511089 0.497594 -0.037949
C47   C     C_1   0.249808 0.504329 0.499751 -0.208932
C48   C     C_R   0.588516 0.121884 0.719481 0.519716
H1    H     H_    0.925433 0.368865 0.626796 0.043196
H2    H     H_    0.290457 0.188987 0.866658 0.135449
H3    H     H_    0.382588 0.329865 0.747906 0.193147
H4    H     H_    0.596065 0.640971 0.879368 0.133662
H5    H     H_    0.925916 0.343532 0.400516 0.093239
H6    H     H_    0.081086 0.701070 0.390922 0.130079
H7    H     H_    0.898805 0.512258 0.945784 0.226555
H8    H     H_    0.955965 0.387858 0.864119 0.152633
H9    H     H_    0.842167 0.401603 0.834495 0.174817
H10   H     H_    0.917096 0.928762 0.444084 0.278975
H11   H     H_    0.008677 0.897293 0.337518 0.258493
H12   H     H_    0.071602 0.531133 0.714836 0.205164
H13   H     H_    0.906049 0.914868 0.264314 0.244086
H14   H     H_    0.948529 0.695091 0.265419 0.218942
H15   H     H_    0.851883 0.718357 0.343862 0.209193
H16   H     H_    0.699088 0.153936 0.524269 0.156362
H17   H     H_    0.747050 0.110424 0.683620 0.151892
H18   H     H_    0.760799 0.266759 0.624187 0.187081
H19   H     H_    0.603380 0.026574 0.127669 0.175576
H20   H     H_    0.654772 0.902716 0.026631 0.146337
H21   H     H_    0.589298 0.865418 0.168366 0.196618
H22   H     H_    0.334967 0.864168 0.667137 0.146997
H23   H     H_    0.466200 0.105655 0.290565 0.182846
H24   H     H_    0.338024 0.942020 0.834293 0.149342
H25   H     H_    0.301931 0.781068 0.813202 0.183058
H26   H     H_    0.125626 0.351813 0.092905 0.238041
H27   H     H_    0.012788 0.378148 0.084913 0.277973
H28   H     H_    0.087750 0.486251 0.010421 0.250501
H29   H     H_    0.051851 0.591140 0.209762 0.203078
H30   H     H_    0.151455 0.529581 0.242094 0.194561
H31   H     H_    0.122769 0.224641 0.543305 0.268326
H32   H     H_    0.006625 0.218712 0.522144 0.247980
H33   H     H_    0.072459 0.113249 0.430770 0.260137
H34   H     H_    0.622474 0.120330 0.927321 0.189304
H35   H     H_    0.045148 0.250762 0.268284 0.213085
H36   H     H_    0.148404 0.300940 0.326329 0.214430
H37   H     H_    0.814971 0.418443 0.115032 0.187830
H38   H     H_    0.800192 0.358911 0.279765 0.173432
H39   H     H_    0.881784 0.295408 0.169486 0.153326
H40   H     H_    0.134330 0.905141 0.469827 0.244484
H41   H     H_    0.041941 0.928280 0.578457 0.301862
H42   H     H_    0.147113 0.939385 0.647463 0.233479
H43   H     H_    0.073928 0.736432 0.700118 0.249155
H44   H     H_    0.170354 0.722966 0.609386 0.184040
H45   H     H_    0.449122 0.880447 0.298393 0.198866
H46   H     H_    0.815188 0.701574 0.695337 0.211838
H47   H     H_    0.807590 0.780995 0.537397 0.126491
H48   H     H_    0.843769 0.863698 0.685396 0.147601
H49   H     H_    0.596806 0.639699 0.130074 0.138904
H50   H     H_    0.070185 0.378911 0.655510 0.170677
H51   H     H_    0.386369 0.327847 0.242137 0.199701
H52   H     H_    0.292078 0.187829 0.115274 0.142554
N1    N     N_R   0.499210 0.498800 0.142780 -0.126196
N2    N     N_R   0.499180 0.498720 0.857170 -0.110801
O1    O     O_R   0.500000 0.316780 0.614690 -0.602276
O2    O     O_3   0.641552 0.225773 0.699100 -0.565419
O3    O     O_3   0.522459 0.917368 0.002027 -0.564500
O4    O     O_3   0.431356 0.809207 0.796183 -0.545582
O5    O     O_3   0.908904 0.475324 0.251120 -0.608244
O6    O     O_3   0.932957 0.744267 0.608066 -0.556272
O7    O     O_R   0.499990 0.316750 0.385360 -0.661651
O8    O     O_R   0.377150 0.500020 0.614720 -0.624893
O9    O     O_R   0.377140 0.499990 0.385380 -0.632355
O10   O     O_R   0.500010 0.683250 0.614640 -0.570901
O11   O     O_R   0.500000 0.683220 0.385310 -0.628614
O12   O     O_R   0.622860 0.500010 0.614620 -0.583490
O13   O     O_R   0.622850 0.499980 0.385280 -0.622850
O14   O     O_3   0.919556 0.536007 0.744217 -0.552873
Zn1   Zn    Zn3+2 0.500010 0.500020 0.653130 0.993045
Zn2   Zn    Zn3+2 0.499990 0.499980 0.346870 0.928705

loop_
_geom_bond_atom_site_label_1
_geom_bond_atom_site_label_2
_ccdc_geom_bond_type
C37   H26   S    
C23   C45   S    
C38   H35   S    
C1    C8    S    
C41   C42   S    
C31   H13   S    
C16   O11   A    
C17   H3    S    
C12   H1    S    
C7    C8    A    
C3    O3    S    
C25   C28   S    
C12   C23   S    
C28   C46   S    
O9    Zn2   S    
C24   H50   S    
N1    Zn2   S    
C40   H39   S    
C36   C37   S    
C36   H29   S    
C5    C6    A    
C15   H2    S    
C40   H38   S    
C48   O2    S    
C43   H46   S    
C18   C19   A    
C18   N2    A    
C23   C26   S    
C31   H11   S    
C1    O7    A    
C20   H49   S    
C35   H22   S    
C8    C9    A    
C43   H47   S    
C32   O2    S    
C9    C10   A    
C1    O1    A    
C33   H21   S    
C23   C34   S    
C37   H27   S    
C13   C14   A    
O1    Zn1   S    
O8    Zn1   S    
O7    Zn2   S    
C17   C18   A    
C5    O4    S    
C38   C39   S    
C30   C34   S    
C9    H23   S    
C34   C44   S    
C32   H16   S    
C6    C11   A    
C13   C19   A    
C20   N1    A    
C29   H7    S    
C10   H45   S    
C2    C48   A    
C25   C26   S    
C28   C44   S    
C42   H42   S    
C39   H31   S    
C40   H37   S    
C13   H51   S    
C25   C38   S    
C11   C16   S    
C16   O10   A    
C24   H12   S    
O13   Zn2   S    
C43   H48   S    
C33   O3    S    
C39   H33   S    
N2    Zn1   S    
C40   O5    S    
C21   N2    A    
C22   O13   A    
C41   H43   S    
C37   H28   S    
C29   H9    S    
C35   H24   S    
C22   C27   S    
C30   H14   S    
C41   C44   S    
C2    H34   S    
C42   H40   S    
C26   H5    S    
C31   H10   S    
C32   H18   S    
C15   C17   A    
C4    O8    A    
C46   C47   T    
C35   H25   S    
C38   H36   S    
C4    O9    A    
C24   C28   S    
C3    C5    A    
C26   O5    S    
C29   O14   S    
C14   H52   S    
C6    C7    A    
C29   H8    S    
C12   C24   S    
O10   Zn1   S    
C42   H41   S    
C34   O6    S    
C7    C48   A    
C2    C3    A    
C33   H19   S    
C36   H30   S    
C39   H32   S    
C19   N1    A    
C27   C45   T    
C30   C31   S    
C43   O6    S    
O12   Zn1   S    
C10   C11   A    
C25   C36   S    
O11   Zn2   S    
C44   H6    S    
C22   O12   A    
C41   H44   S    
C20   C21   A    
C35   O4    S    
C14   C15   A    
C30   H15   S    
C21   H4    S    
C33   H20   S    
C32   H17   S    
C12   O14   S    
C4    C47   S    
