data_mof_unit_9944.cif
_audit_creation_date              2012-12-11T17:06:26-0500
_audit_creation_method            fapswitch 2.2
_symmetry_space_group_name_H-M    P1
_symmetry_Int_Tables_number       1
_space_group_crystal_system       triclinic
_cell_length_a                    6.950139
_cell_length_b                    14.535896
_cell_length_c                    15.947162
_cell_angle_alpha                 90.474852
_cell_angle_beta                  90.078776
_cell_angle_gamma                 90.006337
_cell_volume                      1611.02906066

loop_
_atom_site_label
_atom_site_type_symbol
_atom_type_description
_atom_site_fract_x
_atom_site_fract_y
_atom_site_fract_z
_atom_type_partial_charge
O1    O     O_R   0.494400 0.415450 0.412630 -0.540133
O2    O     O_R   0.823940 0.405730 0.586760 -0.546053
O3    O     O_R   0.994240 0.584550 0.587370 -0.538829
C1    C     C_R   0.655250 0.383722 0.615443 0.692935
O4    O     O_R   0.824110 0.404430 0.413240 -0.537859
O5    O     O_R   0.994420 0.583240 0.412620 -0.542973
C2    C     C_R   0.655299 0.382415 0.384059 0.718050
O6    O     O_R   0.494230 0.416760 0.587380 -0.540306
O7    O     O_3   0.660800 0.558670 0.500000 -0.369091
V1    V     V_3+5 0.935650 0.489120 0.500000 1.409548
O8    O     O_R   0.324140 0.594270 0.413240 -0.531680
C3    C     C_R   0.154910 0.616047 0.384214 0.735188
O9    O     O_R   0.323960 0.595570 0.586760 -0.544400
C4    C     C_R   0.155263 0.617538 0.615657 0.681923
V2    V     V_3+5 0.435660 0.510880 0.500000 1.424310
O10   O     O_3   0.160640 0.441330 0.500000 -0.377555
C5    C     C_3   0.053669 0.666892 0.772197 -0.191860
C6    C     C_3   0.226576 0.714836 0.814804 0.031072
H1    H     H_    0.988796 0.600556 0.791493 0.119349
C7    C     C_3   0.121626 0.807693 0.811300 -0.011929
C8    C     C_3   0.947620 0.760831 0.768463 -0.129808
C9    C     C_3   0.038982 0.779503 0.681568 -0.127052
C10   C     C_3   0.212976 0.826855 0.725044 -0.162994
C11   C     C_3   0.319556 0.733077 0.728751 -0.180829
C12   C     C_3   0.145063 0.686611 0.686174 -0.012505
H2    H     H_    0.794339 0.772374 0.784966 0.116892
H3    H     H_    0.961413 0.805908 0.625837 0.105729
H4    H     H_    0.278310 0.893091 0.705813 0.104875
H5    H     H_    0.472911 0.721342 0.712462 0.111659
C13   C     C_R   0.264496 0.819266 0.243310 0.098160
C14   C     C_R   0.118130 0.815036 0.182847 -0.084309
C15   C     C_R   0.970173 0.750244 0.195805 -0.098985
H6    H     H_    0.850593 0.745786 0.152486 0.127783
C16   C     C_R   0.980510 0.686890 0.262246 -0.157268
H7    H     H_    0.867969 0.635972 0.268202 0.121283
C17   C     C_R   0.140439 0.685496 0.316901 -0.067804
C18   C     C_R   0.276358 0.755676 0.307768 0.057779
C19   C     C_3   0.490632 0.752950 0.304460 -0.439501
C20   C     C_3   0.478460 0.824016 0.234481 -0.175437
H8    H     H_    0.544089 0.684915 0.282483 0.188918
H9    H     H_    0.556839 0.778492 0.363781 0.176078
H10   H     H_    0.529667 0.798088 0.172695 0.126917
C21   C     C_R   0.498500 0.318707 0.744120 0.097547
C22   C     C_R   0.648036 0.317472 0.685291 -0.112726
C23   C     C_R   0.796860 0.253046 0.697322 -0.177090
H11   H     H_    0.917153 0.250277 0.654453 0.127562
C24   C     C_R   0.785150 0.187040 0.761264 -0.193425
H12   H     H_    0.897207 0.135664 0.765883 0.118688
C25   C     C_R   0.624729 0.183802 0.815192 -0.137727
C26   C     C_R   0.487385 0.253711 0.807608 0.139892
C27   C     C_3   0.273392 0.248010 0.800731 -0.204271
C28   C     C_3   0.285718 0.319788 0.731552 -0.407911
H13   H     H_    0.224309 0.179402 0.778101 0.089124
H14   H     H_    0.221879 0.387813 0.747742 0.183946
H15   H     H_    0.244423 0.292487 0.668782 0.154034
C29   C     C_R   0.501932 0.319992 0.252161 0.114919
C30   C     C_R   0.647870 0.316456 0.312818 -0.100557
C31   C     C_R   0.795809 0.251459 0.299904 -0.122733
H16   H     H_    0.915221 0.247646 0.343304 0.116714
C32   C     C_R   0.785437 0.186982 0.233491 -0.157382
H17   H     H_    0.897763 0.135841 0.227612 0.117995
C33   C     C_R   0.625593 0.184788 0.178826 -0.069460
C34   C     C_R   0.490140 0.255321 0.187679 0.079667
C35   C     C_3   0.275839 0.252999 0.190437 -0.438378
C36   C     C_3   0.287821 0.325205 0.260533 -0.196464
H18   H     H_    0.221476 0.185435 0.212191 0.179743
H19   H     H_    0.210695 0.277663 0.130955 0.196758
H20   H     H_    0.235700 0.300390 0.322167 0.105394
O11   O     O_R   0.771650 0.079500 0.908680 -0.548032
O12   O     O_R   0.441690 0.091800 0.082800 -0.535017
O13   O     O_R   0.271460 0.912980 0.083410 -0.528869
C37   C     C_R   0.610943 0.114131 0.111714 0.737491
O14   O     O_R   0.441930 0.090510 0.909280 -0.552840
O15   O     O_R   0.271690 0.911670 0.908660 -0.525810
C38   C     C_R   0.610953 0.112694 0.880741 0.682052
O16   O     O_R   0.771410 0.080810 0.083440 -0.546059
O17   O     O_3   0.605100 0.937580 0.996050 -0.359556
V3    V     V_3+5 0.330220 0.007110 0.996030 1.461757
O18   O     O_R   0.941980 0.900620 0.909250 -0.549168
C39   C     C_R   0.110807 0.878095 0.880823 0.723210
O19   O     O_R   0.941740 0.901920 0.082770 -0.540541
C40   C     C_R   0.110579 0.880147 0.111803 0.755008
V4    V     V_3+5 0.830220 0.985300 0.996000 1.439995
O20   O     O_3   0.105210 0.054870 0.996020 -0.386275
C41   C     C_2   0.333033 0.674721 0.887568 0.346293
H21   H     H_    0.403987 0.608672 0.880434 0.069437
O21   O     O_2   0.340390 0.715359 0.954737 -0.527983
C42   C     C_2   0.562363 0.916033 0.259240 0.773031
O22   O     O_2   0.459529 0.984025 0.265860 -0.577498
O23   O     O_R   0.759790 0.922980 0.274422 -0.666961
H22   H     H_    0.800261 0.987412 0.291545 0.279644
C43   C     C_2   0.172333 0.280616 0.879027 0.429445
H23   H     H_    0.055894 0.239858 0.904557 0.055128
O24   O     O_2   0.218869 0.352223 0.914229 -0.528388
C44   C     C_2   0.204570 0.416844 0.235651 0.812076
O25   O     O_2   0.307823 0.484576 0.229000 -0.565459
O26   O     O_R   0.007226 0.423698 0.220315 -0.658987
H24   H     H_    0.967230 0.487779 0.202888 0.289734

loop_
_geom_bond_atom_site_label_1
_geom_bond_atom_site_label_2
_ccdc_geom_bond_type
C19   H8    S    
C8    H2    S    
O12   V3    S    
C44   O25   D    
C1    O6    A    
O19   C40   A    
C30   C31   A    
C24   C25   A    
O17   V3    S    
C18   C19   S    
C14   C40   S    
C6    C11   S    
C17   C18   A    
O5    C3    A    
C19   C20   S    
C21   C28   S    
O17   V4    S    
C31   C32   A    
C29   C36   S    
C29   C30   A    
C32   C33   A    
C16   H7    S    
C11   H5    S    
O8    V2    S    
V4    O20   S    
C9    C12   S    
O14   V3    S    
C25   C38   S    
O1    V2    S    
C3    C17   S    
O7    V1    S    
C16   C17   A    
C28   H15   S    
C37   O16   A    
O13   C40   A    
C41   O21   D    
O15   C39   A    
C8    C9    S    
O14   C38   A    
C20   C42   S    
O16   V4    S    
O19   V4    S    
C28   H14   S    
O26   H24   S    
C20   H10   S    
C23   C24   A    
C6    C41   S    
C7    C39   S    
C27   C28   S    
C35   H19   S    
C11   C12   S    
C19   H9    S    
O4    C2    A    
C1    C22   S    
C26   C27   S    
C31   H16   S    
C41   H21   S    
C5    C8    S    
C34   C35   S    
C13   C18   A    
C32   H17   S    
C27   H13   S    
C35   H18   S    
O2    C1    A    
C21   C22   A    
C33   C34   A    
O11   V4    S    
C27   C43   S    
C24   H12   S    
C7    C10   S    
C10   C11   S    
C36   H20   S    
C43   O24   D    
C5    C6    S    
C29   C34   A    
C33   C37   S    
C10   H4    S    
C7    C8    S    
O3    C4    A    
C42   O23   S    
O6    V2    S    
C9    H3    S    
O9    V2    S    
C23   H11   S    
O2    V1    S    
C22   C23   A    
O1    C2    A    
C14   C15   A    
O5    V1    S    
O8    C3    A    
C44   O26   S    
C21   C26   A    
C5    C12   S    
C15   H6    S    
O7    V2    S    
O4    V1    S    
O3    V1    S    
V1    O10   S    
C35   C36   S    
O18   V4    S    
O23   H22   S    
C13   C14   A    
C43   H23   S    
C5    H1    S    
C13   C20   S    
O11   C38   A    
C6    C7    S    
C4    C12   S    
O18   C39   A    
V3    O20   S    
C36   C44   S    
C42   O22   D    
C25   C26   A    
O15   V3    S    
C9    C10   S    
O12   C37   A    
O9    C4    A    
C2    C30   S    
O13   V3    S    
V2    O10   S    
C15   C16   A    
