data_mof_unit_60528.cif
_audit_creation_date              2012-12-10T17:57:01-0500
_audit_creation_method            fapswitch 2.2
_symmetry_space_group_name_H-M    P1
_symmetry_Int_Tables_number       1
_space_group_crystal_system       triclinic
_cell_length_a                    18.38552
_cell_length_b                    18.298232
_cell_length_c                    25.878362
_cell_angle_alpha                 89.999511
_cell_angle_beta                  90.020307
_cell_angle_gamma                 89.991892
_cell_volume                      8706.06287479

loop_
_atom_site_label
_atom_site_type_symbol
_atom_type_description
_atom_site_fract_x
_atom_site_fract_y
_atom_site_fract_z
_atom_type_partial_charge
C1    C     C_R   0.859995 0.140180 0.249973 0.809347
C2    C     C_R   0.140021 0.140158 0.750006 0.809348
C3    C     C_R   0.139941 0.140233 0.249935 0.839553
C4    C     C_R   0.860084 0.140274 0.750101 0.839414
C5    C     C_R   0.359982 0.640159 0.749989 0.805223
C6    C     C_R   0.640054 0.640121 0.249976 0.847033
C7    C     C_R   0.640043 0.640127 0.750023 0.846122
C8    C     C_R   0.359993 0.640166 0.250012 0.804550
C9    C     C_R   0.242743 0.796771 0.208982 -0.221007
C10   C     C_R   0.757580 0.796431 0.791202 -0.221199
C11   C     C_R   0.757405 0.796558 0.208852 -0.221450
C12   C     C_R   0.242920 0.796899 0.790961 -0.221286
C13   C     C_R   0.745280 0.299364 0.710411 -0.222875
C14   C     C_R   0.253622 0.300415 0.289031 -0.220196
C15   C     C_R   0.256993 0.296976 0.709061 -0.218319
C16   C     C_R   0.742422 0.296419 0.291167 -0.221867
C17   C     C_R   0.798912 0.246191 0.709760 -0.140133
C18   C     C_R   0.199972 0.247271 0.289691 -0.143701
C19   C     C_R   0.203520 0.243565 0.708323 -0.172566
C20   C     C_R   0.795877 0.242976 0.291907 -0.168479
C21   C     C_R   0.296226 0.743363 0.208247 -0.177724
C22   C     C_R   0.704123 0.742993 0.791951 -0.159979
C23   C     C_R   0.703959 0.743111 0.208102 -0.160178
C24   C     C_R   0.296392 0.743482 0.791698 -0.178076
C25   C     C_R   0.805051 0.197210 0.750987 -0.055361
C26   C     C_R   0.195094 0.197017 0.249150 -0.055654
C27   C     C_R   0.195312 0.196806 0.750649 -0.046866
C28   C     C_R   0.804765 0.196907 0.249276 -0.046088
C29   C     C_R   0.304713 0.696836 0.250673 -0.043916
C30   C     C_R   0.695379 0.696733 0.749406 -0.053495
C31   C     C_R   0.695402 0.696708 0.250585 -0.053647
C32   C     C_R   0.304690 0.696812 0.749334 -0.044090
C33   C     C_R   0.758904 0.203289 0.793684 -0.217341
C34   C     C_R   0.242737 0.201556 0.207213 -0.211819
C35   C     C_R   0.239699 0.204724 0.794146 -0.205643
C36   C     C_R   0.761167 0.205637 0.205443 -0.211958
C37   C     C_R   0.260608 0.705000 0.294278 -0.204268
C38   C     C_R   0.739268 0.705118 0.705713 -0.206743
C39   C     C_R   0.739481 0.704941 0.294213 -0.206683
C40   C     C_R   0.260396 0.704825 0.705796 -0.204110
C41   C     C_R   0.207708 0.759052 0.295857 0.278464
C42   C     C_R   0.792145 0.759185 0.704132 0.281513
C43   C     C_R   0.792358 0.759001 0.295798 0.280010
C44   C     C_R   0.207495 0.758869 0.704213 0.276984
C45   C     C_R   0.706020 0.257332 0.795360 0.291879
C46   C     C_R   0.295779 0.255367 0.205549 0.276646
C47   C     C_R   0.292600 0.258754 0.795729 0.273989
C48   C     C_R   0.708327 0.259771 0.203861 0.290121
C49   C     C_R   0.197593 0.804771 0.252331 -0.070751
C50   C     C_R   0.802461 0.804702 0.747735 -0.071861
C51   C     C_R   0.802469 0.804687 0.252258 -0.071570
C52   C     C_R   0.197586 0.804758 0.747675 -0.070457
C53   C     C_R   0.697829 0.305043 0.752674 -0.081390
C54   C     C_R   0.302451 0.304697 0.247471 -0.075051
C55   C     C_R   0.302421 0.304741 0.752309 -0.070355
C56   C     C_R   0.697721 0.304920 0.247612 -0.078073
C57   C     C_R   0.066068 0.999965 0.026773 -0.180204
C58   C     C_R   0.933931 0.000039 0.973227 -0.179122
C59   C     C_R   0.933922 0.000039 0.026736 -0.179033
C60   C     C_R   0.066077 0.999965 0.973264 -0.180089
C61   C     C_R   0.566069 0.499982 0.526773 -0.176174
C62   C     C_R   0.433932 0.499994 0.473227 -0.175309
C63   C     C_R   0.433923 0.499994 0.526736 -0.176649
C64   C     C_R   0.566078 0.499982 0.473264 -0.177442
C65   C     C_R   0.000009 0.999991 0.946252 0.004041
C66   C     C_R   0.999990 0.999991 0.053748 0.004026
C67   C     C_R   0.500010 0.499981 0.446252 0.004104
C68   C     C_R   0.499991 0.499981 0.553748 0.004138
C69   C     C_R   0.140756 0.860394 0.250896 0.823517
C70   C     C_R   0.859253 0.860377 0.749120 0.824292
C71   C     C_R   0.859251 0.860371 0.250873 0.819761
C72   C     C_R   0.140759 0.860389 0.749110 0.818980
C73   C     C_R   0.640800 0.360447 0.750973 0.858664
C74   C     C_R   0.359279 0.360339 0.249089 0.812611
C75   C     C_R   0.359243 0.360380 0.750884 0.811967
C76   C     C_R   0.640796 0.360436 0.249083 0.857048
C77   C     C_R   0.999992 0.999973 0.109880 0.785931
C78   C     C_R   0.000008 0.999973 0.890120 0.785937
C79   C     C_R   0.499992 0.499970 0.609880 0.786046
C80   C     C_R   0.500008 0.499970 0.390120 0.786182
C81   C     C_R   0.005027 0.000260 0.390136 0.852944
C82   C     C_R   0.995017 0.000255 0.609858 0.853148
C83   C     C_R   0.501253 0.500050 0.890076 0.853715
C84   C     C_R   0.501211 0.500060 0.109925 0.852715
C85   C     C_R   0.043340 0.134142 0.455634 0.309146
C86   C     C_R   0.956485 0.134017 0.544328 0.309101
C87   C     C_R   0.644912 0.484683 0.945636 0.246593
C88   C     C_R   0.644919 0.485212 0.054497 0.248533
C89   C     C_R   0.023619 0.200038 0.479062 -0.225155
C90   C     C_R   0.976012 0.199970 0.520910 -0.225015
C91   C     C_R   0.708962 0.475308 0.973457 -0.177025
C92   C     C_R   0.708970 0.475598 0.026755 -0.175329
C93   C     C_R   0.985446 0.067499 0.525129 -0.008930
C94   C     C_R   0.014596 0.067533 0.474851 -0.009190
C95   C     C_R   0.576801 0.492290 0.027876 0.004849
C96   C     C_R   0.576804 0.492132 0.972190 0.004882
C97   C     C_R   0.012111 0.001072 0.446654 -0.069571
C98   C     C_R   0.988043 0.001048 0.553330 -0.069428
C99   C     C_R   0.508804 0.500275 0.945976 -0.029807
C100  C     C_R   0.508781 0.500346 0.054032 -0.029414
C101  C     C_R   0.003894 0.934944 0.473370 -0.153393
C102  C     C_R   0.996439 0.934938 0.526622 -0.153433
C103  C     C_R   0.444282 0.509196 0.973380 -0.183984
C104  C     C_R   0.444266 0.509193 0.026578 -0.185827
H1    H     H_    0.004032 0.883043 0.453234 0.210898
H2    H     H_    0.996409 0.883038 0.546760 0.210894
H3    H     H_    0.392952 0.515720 0.953229 0.140031
H4    H     H_    0.392922 0.515695 0.046690 0.139220
H5    H     H_    0.044193 0.251367 0.464274 0.186433
H6    H     H_    0.955264 0.251238 0.535692 0.186495
H7    H     H_    0.760337 0.469124 0.953446 0.188720
H8    H     H_    0.760352 0.469670 0.046823 0.188945
H9    H     H_    0.236139 0.831268 0.175279 0.176177
H10   H     H_    0.764373 0.830748 0.824977 0.176721
H11   H     H_    0.764041 0.830994 0.175125 0.177083
H12   H     H_    0.236474 0.831515 0.824615 0.176523
H13   H     H_    0.740506 0.335584 0.677467 0.181831
H14   H     H_    0.257255 0.337759 0.321414 0.183608
H15   H     H_    0.263361 0.331664 0.675438 0.178311
H16   H     H_    0.735450 0.330518 0.325031 0.176629
H17   H     H_    0.834808 0.242820 0.676716 0.203221
H18   H     H_    0.163003 0.245000 0.322191 0.202682
H19   H     H_    0.169428 0.238088 0.674389 0.172324
H20   H     H_    0.829382 0.236883 0.326084 0.171497
H21   H     H_    0.330095 0.737689 0.174234 0.168257
H22   H     H_    0.670458 0.737100 0.826047 0.174003
H23   H     H_    0.670147 0.737333 0.174052 0.174269
H24   H     H_    0.330410 0.737925 0.825663 0.168453
H25   H     H_    0.764800 0.166777 0.826387 0.189348
H26   H     H_    0.238008 0.163904 0.175068 0.191316
H27   H     H_    0.232334 0.169715 0.827511 0.188826
H28   H     H_    0.769141 0.171215 0.171844 0.187320
H29   H     H_    0.268209 0.670181 0.327721 0.188863
H30   H     H_    0.731489 0.670483 0.672197 0.187543
H31   H     H_    0.731860 0.670184 0.327681 0.187751
H32   H     H_    0.267838 0.669884 0.672403 0.189077
H33   H     H_    0.117724 0.999939 0.046913 0.170319
H34   H     H_    0.882275 0.000074 0.953087 0.170619
H35   H     H_    0.882264 0.000074 0.046846 0.170686
H36   H     H_    0.117736 0.999939 0.953153 0.170379
H37   H     H_    0.617725 0.499980 0.546913 0.170858
H38   H     H_    0.382276 0.500002 0.453087 0.171324
H39   H     H_    0.382264 0.500003 0.546846 0.170976
H40   H     H_    0.617737 0.499981 0.453153 0.170526
O1    O     O_3   0.000000 0.000000 0.249960 -0.501222
O2    O     O_3   0.000000 0.000000 0.750040 -0.501246
O3    O     O_3   0.500000 0.500000 0.749960 -0.497173
O4    O     O_3   0.500000 0.500000 0.250040 -0.497123
O5    O     O_R   0.914520 0.146190 0.280310 -0.643595
O6    O     O_R   0.085480 0.146190 0.719690 -0.643661
O7    O     O_R   0.085480 0.146190 0.280310 -0.618965
O8    O     O_R   0.914520 0.146190 0.719690 -0.618800
O9    O     O_R   0.414520 0.646190 0.780310 -0.649128
O10   O     O_R   0.585480 0.646190 0.219690 -0.633370
O11   O     O_R   0.585480 0.646190 0.780310 -0.633631
O12   O     O_R   0.414520 0.646190 0.219690 -0.649103
O13   O     O_R   0.085470 0.853840 0.280350 -0.592271
O14   O     O_R   0.914530 0.853840 0.719650 -0.592141
O15   O     O_R   0.914530 0.853840 0.280350 -0.591815
O16   O     O_R   0.085470 0.853840 0.719650 -0.591924
O17   O     O_R   0.585470 0.353840 0.780350 -0.579390
O18   O     O_R   0.414530 0.353840 0.219650 -0.594742
O19   O     O_R   0.414530 0.353840 0.780350 -0.594332
O20   O     O_R   0.585470 0.353840 0.219650 -0.579128
O21   O     O_R   0.853820 0.914550 0.219610 -0.652173
O22   O     O_R   0.146180 0.914550 0.780390 -0.652285
O23   O     O_R   0.146180 0.914550 0.219610 -0.650834
O24   O     O_R   0.853820 0.914550 0.780390 -0.650738
O25   O     O_R   0.353820 0.414550 0.719610 -0.653723
O26   O     O_R   0.646180 0.414550 0.280390 -0.646253
O27   O     O_R   0.646180 0.414550 0.719610 -0.646918
O28   O     O_R   0.353820 0.414550 0.280390 -0.654227
O29   O     O_R   0.146180 0.085440 0.219600 -0.646244
O30   O     O_R   0.853820 0.085440 0.780400 -0.645710
O31   O     O_R   0.853820 0.085440 0.219600 -0.642156
O32   O     O_R   0.146180 0.085440 0.780400 -0.642379
O33   O     O_R   0.646180 0.585440 0.719600 -0.635989
O34   O     O_R   0.353820 0.585440 0.280400 -0.643676
O35   O     O_R   0.353820 0.585440 0.719600 -0.643328
O36   O     O_R   0.646180 0.585440 0.280400 -0.635802
O37   O     O_R   0.939280 0.999970 0.134160 -0.648916
O38   O     O_R   0.060720 0.999970 0.865840 -0.649251
O39   O     O_R   0.060720 0.999970 0.134160 -0.650241
O40   O     O_R   0.939280 0.999970 0.865840 -0.649933
O41   O     O_R   0.439280 0.499970 0.634160 -0.648978
O42   O     O_R   0.560720 0.499970 0.365840 -0.652523
O43   O     O_R   0.560720 0.499970 0.634160 -0.651823
O44   O     O_R   0.439280 0.499970 0.365840 -0.648157
O45   O     O_R   0.000000 0.060760 0.365770 -0.618470
O46   O     O_R   0.000000 0.060760 0.634230 -0.618398
O47   O     O_R   0.500000 0.560760 0.865770 -0.635938
O48   O     O_R   0.500000 0.560760 0.134230 -0.635476
O49   O     O_R   0.000000 0.939310 0.365780 -0.614993
O50   O     O_R   0.000000 0.939310 0.634220 -0.615011
O51   O     O_R   0.500000 0.439310 0.865780 -0.571330
O52   O     O_R   0.500000 0.439310 0.134220 -0.572337
Zn1   Zn    Zn3+2 0.000000 0.913250 0.293350 1.063310
Zn2   Zn    Zn3+2 0.000000 0.913250 0.706650 1.063354
Zn3   Zn    Zn3+2 0.500000 0.413250 0.793350 1.090777
Zn4   Zn    Zn3+2 0.500000 0.413250 0.206650 1.090177
Zn5   Zn    Zn3+2 0.913230 0.999990 0.206580 0.975509
Zn6   Zn    Zn3+2 0.086770 0.999990 0.793420 0.975081
Zn7   Zn    Zn3+2 0.086770 0.999990 0.206580 0.981984
Zn8   Zn    Zn3+2 0.913230 0.999990 0.793420 0.982507
Zn9   Zn    Zn3+2 0.413230 0.499990 0.706580 0.971941
Zn10  Zn    Zn3+2 0.586770 0.499990 0.293420 1.000120
Zn11  Zn    Zn3+2 0.586770 0.499990 0.706580 1.000055
Zn12  Zn    Zn3+2 0.413230 0.499990 0.293420 0.971763
Zn13  Zn    Zn3+2 0.000000 0.086780 0.293330 1.013351
Zn14  Zn    Zn3+2 0.000000 0.086780 0.706670 1.013462
Zn15  Zn    Zn3+2 0.500000 0.586780 0.793330 1.002981
Zn16  Zn    Zn3+2 0.500000 0.586780 0.206670 1.002907
Br1   Br    Br    0.124057 0.137060 0.408423 -0.525850
Br2   Br    Br    0.875670 0.136627 0.591447 -0.528266
Br3   Br    Br    0.661381 0.489228 0.872052 -0.513045
Br4   Br    Br    0.661409 0.490897 0.128051 -0.510652
Br5   Br    Br    0.155403 0.768902 0.359932 -0.439480
Br6   Br    Br    0.844117 0.769396 0.639952 -0.438989
Br7   Br    Br    0.844631 0.768905 0.359904 -0.441990
Br8   Br    Br    0.154886 0.768412 0.640214 -0.442325
Br9   Br    Br    0.651033 0.264021 0.858516 -0.394728
Br10  Br    Br    0.353278 0.258963 0.143391 -0.425578
Br11  Br    Br    0.345335 0.268115 0.859683 -0.431214
Br12  Br    Br    0.656801 0.270615 0.139529 -0.396469

loop_
_geom_bond_atom_site_label_1
_geom_bond_atom_site_label_2
_ccdc_geom_bond_type
C2    O6    A    
C99   C103  A    
O35   Zn9   S    
C93   C94   A    
C56   C76   S    
C87   C91   A    
O12   Zn16  S    
C33   C45   A    
C9    C21   A    
C14   C18   A    
O3    Zn3   S    
C95   C96   A    
C44   Br8   S    
C57   C66   A    
O52   Zn4   S    
C35   C47   A    
C24   C32   A    
C4    C25   S    
C34   H26   S    
C39   H31   S    
C10   C22   A    
C15   C19   A    
C40   H32   S    
C19   H19   S    
C101  C102  A    
C79   O43   A    
C62   C67   A    
O49   Zn1   S    
O40   Zn8   S    
C8    C29   S    
O6    Zn14  S    
C83   O47   A    
C11   C23   A    
O5    Zn13  S    
O26   Zn10  S    
C70   O24   A    
C36   H28   S    
C59   C66   A    
O25   Zn9   S    
O36   Zn10  S    
C22   H22   S    
O13   Zn1   S    
C29   C37   A    
C33   H25   S    
C96   C99   A    
C89   H5    S    
C100  C104  A    
C7    O33   A    
C75   O19   A    
C12   C24   A    
O22   Zn6   S    
O50   Zn2   S    
C91   H7    S    
O3    Zn9   S    
O21   Zn5   S    
C5    O35   A    
C1    O31   A    
O2    Zn8   S    
C80   O42   A    
C2    O32   A    
C54   C74   S    
C86   Br2   S    
C26   C34   A    
O1    Zn13  S    
O48   Zn16  S    
C88   C92   A    
C15   H15   S    
C14   H14   S    
C18   C26   A    
C75   O25   A    
C1    C28   S    
C77   O37   A    
C1    O5    A    
C2    C27   S    
C34   C46   A    
O23   Zn7   S    
C73   O27   A    
C81   O49   A    
C19   C27   A    
O51   Zn3   S    
C10   H10   S    
O20   Zn4   S    
O4    Zn10  S    
C5    C32   S    
C55   C75   S    
C58   H34   S    
C68   C79   S    
C38   H30   S    
C6    C31   S    
C88   C95   A    
O19   Zn3   S    
C7    C30   S    
C49   C69   S    
C82   O46   A    
C21   H21   S    
C101  H1    S    
C82   C98   S    
C74   O18   A    
C16   C56   A    
C62   H38   S    
O3    Zn15  S    
C41   C49   A    
O2    Zn14  S    
C3    O29   A    
C36   C48   A    
C13   C53   A    
C88   Br4   S    
C4    O8    A    
C53   C73   S    
C20   H20   S    
O42   Zn10  S    
C84   C100  S    
C64   C67   A    
O41   Zn9   S    
O28   Zn12  S    
C9    C49   A    
O31   Zn5   S    
O4    Zn16  S    
C86   C90   A    
C47   Br11  S    
C91   C92   A    
O9    Zn15  S    
C83   O51   A    
O17   Zn3   S    
C95   C100  A    
O4    Zn4   S    
C57   C60   A    
C39   C43   A    
C48   Br12  S    
C94   C97   A    
C27   C35   A    
C58   C59   A    
C98   C102  A    
C21   C29   A    
C5    O9    A    
O24   Zn8   S    
O34   Zn12  S    
C70   O14   A    
C15   C55   A    
O2    Zn2   S    
C61   C64   A    
C76   O26   A    
C71   O15   A    
C69   O23   A    
O1    Zn1   S    
C62   C63   A    
C52   C72   S    
C86   C93   A    
C85   Br1   S    
C85   C94   A    
C58   C65   A    
C73   O17   A    
C60   H36   S    
C59   H35   S    
C16   C20   A    
C87   C96   A    
C46   C54   A    
C25   C33   A    
O30   Zn8   S    
C80   O44   A    
C57   H33   S    
O3    Zn11  S    
C81   O45   A    
C6    O10   A    
C69   O13   A    
C42   C50   A    
C8    O34   A    
C61   H37   S    
C14   C54   A    
C18   H18   S    
C60   C65   A    
C83   C99   S    
C79   O41   A    
O43   Zn11  S    
C37   H29   S    
C76   O20   A    
C90   H6    S    
C92   H8    S    
C10   C50   A    
C20   C28   A    
C35   H27   S    
C104  H4    S    
C11   H11   S    
C47   C55   A    
C17   H17   S    
C102  H2    S    
C48   C56   A    
C66   C77   S    
O8    Zn14  S    
C63   C68   A    
O44   Zn12  S    
C85   C89   A    
C65   C78   S    
C22   C30   A    
C6    O36   A    
O38   Zn6   S    
C72   O22   A    
C3    C26   S    
C43   Br7   S    
C67   C80   S    
C3    O7    A    
C42   Br6   S    
O7    Zn13  S    
C44   C52   A    
C13   H13   S    
C51   C71   S    
C38   C42   A    
O32   Zn6   S    
C64   H40   S    
C12   C52   A    
C23   H23   S    
O10   Zn16  S    
C72   O16   A    
C87   Br3   S    
C13   C17   A    
O29   Zn7   S    
C103  H3    S    
C45   Br9   S    
C16   H16   S    
O46   Zn14  S    
C17   C25   A    
O2    Zn6   S    
O45   Zn13  S    
O1    Zn5   S    
C61   C68   A    
C43   C51   A    
C50   C70   S    
C81   C97   S    
C84   O52   A    
O16   Zn2   S    
C93   C98   A    
O18   Zn4   S    
O11   Zn15  S    
O14   Zn2   S    
C31   C39   A    
C84   O48   A    
C78   O40   A    
C32   C40   A    
C37   C41   A    
C46   Br10  S    
C8    O12   A    
C9    H9    S    
C82   O50   A    
C11   C51   A    
O4    Zn12  S    
O37   Zn5   S    
C45   C53   A    
O33   Zn11  S    
C40   C44   A    
C7    O11   A    
C28   C36   A    
C71   O21   A    
O15   Zn1   S    
O1    Zn7   S    
C103  C104  A    
C24   H24   S    
C63   H39   S    
C4    O30   A    
O39   Zn7   S    
C30   C38   A    
C78   O38   A    
C89   C90   A    
O47   Zn15  S    
O27   Zn11  S    
C74   O28   A    
C97   C101  A    
C77   O39   A    
C23   C31   A    
C41   Br5   S    
C12   H12   S    
