data_mof_unit_25418.cif
_audit_creation_date              2013-03-05T16:09:36-0500
_audit_creation_method            fapswitch 2.2
_symmetry_space_group_name_H-M    P1
_symmetry_Int_Tables_number       1
_space_group_crystal_system       triclinic
_cell_length_a                    10.847184
_cell_length_b                    10.627541
_cell_length_c                    9.866519
_cell_angle_alpha                 90.545209
_cell_angle_beta                  104.668854
_cell_angle_gamma                 89.435011
_cell_volume                      1100.24595996

loop_
_atom_site_label
_atom_site_type_symbol
_atom_site_description
_atom_site_fract_x
_atom_site_fract_y
_atom_site_fract_z
_atom_type_partial_charge
O1    O     O_R   0.499990 0.316750 0.614620 -0.580108
O2    O     O_R   0.500010 0.683250 0.385380 -0.582317
O3    O     O_R   0.499990 0.316780 0.385290 -0.626828
O4    O     O_R   0.500010 0.683220 0.614710 -0.626258
C1    C     C_R   0.503702 0.260347 0.500230 0.952387
C2    C     C_R   0.495992 0.739719 0.499597 0.949607
O5    O     O_R   0.317810 0.500000 0.571850 -0.610235
O6    O     O_R   0.682190 0.500000 0.428150 -0.599050
O7    O     O_R   0.317810 0.500030 0.342520 -0.583589
O8    O     O_R   0.682190 0.499970 0.657480 -0.596128
C3    C     C_R   0.259082 0.496449 0.440628 0.884976
C4    C     C_R   0.740889 0.503382 0.559401 0.854640
Zn1   Zn    Zn3+2 0.500000 0.499980 0.653120 1.003141
Zn2   Zn    Zn3+2 0.500000 0.500020 0.346880 1.006996
C5    C     C_R   0.585898 0.571257 0.097259 0.563555
C6    C     C_R   0.416142 0.425808 0.903165 0.563844
C7    C     C_R   0.586107 0.569671 0.952506 -0.315627
C8    C     C_R   0.414452 0.429720 0.047930 -0.327438
H1    H     H_    0.879725 0.541662 0.387611 0.216753
H2    H     H_    0.121311 0.459848 0.614478 0.231186
C9    C     C_2   0.121923 0.494141 0.403997 0.325437
C10   C     C_2   0.878272 0.502559 0.596036 0.341334
C11   C     C_2   0.066427 0.484833 0.509906 -0.263748
C12   C     C_2   0.934108 0.513821 0.491257 -0.260284
H3    H     H_    0.656258 0.622534 0.916594 0.156048
H4    H     H_    0.345712 0.377449 0.086084 0.157923
C13   C     C_R   0.407591 0.068335 0.402871 -0.311608
C14   C     C_R   0.592163 0.932041 0.596482 -0.313713
H5    H     H_    0.334821 0.123487 0.331718 0.180934
H6    H     H_    0.664982 0.877198 0.667972 0.181743
C15   C     C_R   0.398097 0.939059 0.403627 0.331643
C16   C     C_R   0.601770 0.061276 0.595057 0.313938
C17   C     C_R   0.492820 0.872255 0.500793 -0.202303
C18   C     C_R   0.506817 0.127937 0.498550 -0.202863
N1    N     N_R   0.499970 0.499970 0.857200 -0.118685
N2    N     N_R   0.500030 0.500030 0.142800 -0.117963
O9    O     O_3   0.679672 0.632405 0.196950 -0.634741
C19   C     C_3   0.693611 0.759678 0.163381 0.036987
H7    H     H_    0.678273 0.818402 0.251597 0.183862
H8    H     H_    0.623278 0.793465 0.067394 0.118513
C20   C     C_3   0.829522 0.780125 0.150299 -0.343188
H9    H     H_    0.898750 0.745187 0.246043 0.274695
H10   H     H_    0.844776 0.726208 0.058824 0.209053
C21   C     C_3   0.854719 0.918995 0.132264 -0.868404
H11   H     H_    0.783914 0.957200 0.039969 0.290521
H12   H     H_    0.951731 0.930051 0.116292 0.303151
H13   H     H_    0.848536 0.973309 0.227151 0.258696
O10   O     O_3   0.330749 0.354589 0.803489 -0.630632
C22   C     C_3   0.309171 0.232698 0.849673 0.056094
H14   H     H_    0.239677 0.186595 0.761332 0.191355
H15   H     H_    0.261778 0.235743 0.936754 0.133464
C23   C     C_3   0.430674 0.150724 0.885813 -0.359610
H16   H     H_    0.476848 0.152277 0.797798 0.258621
H17   H     H_    0.499110 0.187978 0.980883 0.216221
C24   C     C_3   0.400538 0.014671 0.912466 -0.906833
H18   H     H_    0.357406 0.009862 0.003011 0.293214
H19   H     H_    0.489864 0.958152 0.936209 0.260474
H20   H     H_    0.333867 0.973679 0.818292 0.269591
O11   O     O_3   0.946370 0.470953 0.730358 -0.609217
C25   C     C_3   0.958181 0.578036 0.819108 0.091505
H21   H     H_    0.940294 0.547633 0.919555 0.170634
H22   H     H_    0.887747 0.655031 0.778973 0.103367
C26   C     C_3   0.093644 0.629465 0.847184 -0.419746
H23   H     H_    0.163421 0.551933 0.882720 0.244525
H24   H     H_    0.109275 0.668362 0.748781 0.234663
C27   C     C_3   0.116849 0.732638 0.958919 -0.787590
H25   H     H_    0.049469 0.812373 0.924851 0.266192
H26   H     H_    0.215767 0.767640 0.975967 0.279411
H27   H     H_    0.104634 0.695185 0.059409 0.311807
O12   O     O_3   0.054740 0.522495 0.268023 -0.630416
C28   C     C_3   0.990095 0.414422 0.201770 0.061578
H28   H     H_    0.903040 0.447298 0.124021 0.172620
H29   H     H_    0.956454 0.351303 0.274558 0.149613
C29   C     C_3   0.073960 0.339699 0.125513 -0.430298
H30   H     H_    0.111650 0.403652 0.057537 0.245485
H31   H     H_    0.155879 0.297539 0.203511 0.210710
C30   C     C_3   0.998491 0.234997 0.035499 -0.763228
H32   H     H_    0.957119 0.171820 0.101053 0.261087
H33   H     H_    0.062087 0.178505 0.986069 0.265491
H34   H     H_    0.920483 0.275769 0.951571 0.308458
N3    N     N_R   0.290328 0.878743 0.310810 0.202476
O13   O     O_R   0.240965 0.778671 0.350005 -0.412873
O14   O     O_R   0.228482 0.935046 0.196937 -0.459810
N4    N     N_R   0.709270 0.122329 0.687232 0.200384
O15   O     O_R   0.760857 0.219692 0.645337 -0.404730
O16   O     O_R   0.767437 0.070123 0.805059 -0.450540

loop_
_geom_bond_atom_site_label_1
_geom_bond_atom_site_label_2
_geom_bond_distance
_ccdc_geom_bond_type
C27   H26   1.110517 S    
C24   H18   1.110238 S    
C26   H24   1.111149 S    
C13   H5    1.085143 S    
C20   H9    1.111773 S    
C8    H4    1.077315 S    
C6    O10   1.391520 S    
N3    O13   1.300485 A    
C30   H32   1.109842 S    
C21   H11   1.109347 S    
O5    C3    1.290470 A    
C29   H31   1.111282 S    
C25   C26   1.530155 S    
O1    C1    1.282336 A    
N4    O16   1.300506 A    
Zn1   N1    2.013642 S    
C6    N1    1.372403 A    
Zn2   N2    2.013643 S    
C19   H7    1.111617 S    
C27   H27   1.110909 S    
C4    C10   1.441689 S    
C25   H22   1.118349 S    
O4    Zn1   1.987466 S    
C5    O9    1.385133 S    
C9    C11   1.336344 D    
C23   H17   1.110746 S    
C22   H15   1.107411 S    
C29   C30   1.525783 S    
C11   C12   1.430876 S    
C15   C17   1.406593 A    
O12   C28   1.416903 S    
C21   H13   1.111266 S    
C27   H25   1.110863 S    
C26   C27   1.524093 S    
O11   C25   1.416117 S    
C20   H10   1.110954 S    
O2    C2    1.281996 A    
N3    O14   1.301366 A    
C21   H12   1.110310 S    
C30   H33   1.109425 S    
C13   C18   1.392235 A    
C16   N4    1.440277 S    
C29   H30   1.109926 S    
C13   C15   1.378984 A    
C14   C16   1.378901 A    
N4    O15   1.300523 A    
C19   C20   1.529879 S    
O4    C2    1.280541 A    
C10   O11   1.386585 S    
C28   H29   1.116070 S    
C3    C9    1.439774 S    
C25   H21   1.108593 S    
C16   C18   1.403969 A    
O7    Zn2   1.965795 S    
O9    C19   1.414213 S    
H2    C11   1.086491 S    
O6    C4    1.290610 A    
C22   C23   1.538961 S    
C1    C18   1.407313 S    
O7    C3    1.287535 A    
O3    Zn2   1.987466 S    
O8    C4    1.286991 A    
O10   C22   1.418347 S    
C14   C17   1.393945 A    
C24   H19   1.109396 S    
C20   C21   1.523836 S    
C10   C12   1.330724 D    
O1    Zn1   1.980434 S    
C5    N2    1.369231 A    
C23   H16   1.107236 S    
C30   H34   1.110937 S    
C5    C7    1.428728 A    
O6    Zn2   1.935445 S    
O3    C1    1.279354 A    
O8    Zn1   1.965795 S    
C28   C29   1.531444 S    
C23   C24   1.525370 S    
C15   N3    1.441356 S    
C2    C17   1.408622 S    
C9    O12   1.389231 S    
C7    H3    1.081196 S    
C14   H6    1.085232 S    
H1    C12   1.085394 S    
C28   H28   1.110834 S    
C19   H8    1.114909 S    
O2    Zn2   1.980433 S    
C26   H23   1.110655 S    
O5    Zn1   1.935446 S    
C6    C8    1.433280 A    
C22   H14   1.111037 S    
C24   H20   1.111012 S    
C7    N1    1.364315 A    
C8    N2    1.362536 A    
