data_mof_unit_11533.cif
_audit_creation_date              2012-10-26T18:59:38-0400
_audit_creation_method            fapswitch 2.2
_symmetry_space_group_name_H-M    P1
_symmetry_Int_Tables_number       1
_space_group_crystal_system       triclinic
_cell_length_a                    23.515612
_cell_length_b                    10.807115
_cell_length_c                    9.541278
_cell_angle_alpha                 89.797195
_cell_angle_beta                  90.130227
_cell_angle_gamma                 90.4014
_cell_volume                      2424.70067126

loop_
_atom_site_label
_atom_site_type_symbol
_atom_type_description
_atom_site_fract_x
_atom_site_fract_y
_atom_site_fract_z
_atom_type_partial_charge
C1    C     C_R   0.500921 0.262410 0.500312 0.551368
C2    C     C_R   0.119660 0.604894 0.488901 0.400770
C3    C     C_R   0.238782 0.510252 0.372920 -0.057296
C4    C     C_R   0.390917 0.499710 0.499898 0.551274
C5    C     C_R   0.298080 0.511051 0.373004 -0.143624
C6    C     C_R   0.328301 0.498927 0.499598 0.003027
C7    C     C_R   0.298111 0.485681 0.625880 -0.145771
C8    C     C_R   0.238814 0.484271 0.625344 -0.057398
C9    C     C_R   0.209068 0.496683 0.498973 0.246292
C10   C     C_R   0.760942 0.466021 0.621650 -0.059497
C11   C     C_R   0.701673 0.466920 0.621960 -0.151709
C12   C     C_R   0.970778 0.264002 0.515896 0.002392
C13   C     C_R   0.671556 0.498926 0.499955 0.001832
C14   C     C_R   0.701705 0.529427 0.377456 -0.148337
C15   C     C_R   0.760992 0.528407 0.377354 -0.060831
C16   C     C_R   0.500611 0.737751 0.499948 0.540892
C17   C     C_R   0.790794 0.496626 0.499373 0.247351
C18   C     C_R   0.495233 0.063386 0.624940 0.022517
C19   C     C_R   0.506045 0.129475 0.501968 0.012300
C20   C     C_R   0.524311 0.065560 0.382527 -0.154033
C21   C     C_R   0.524315 0.936549 0.382620 -0.158103
C22   C     C_R   0.505517 0.871087 0.501428 0.004402
C23   C     C_R   0.030470 0.268864 0.516357 -0.111014
C24   C     C_R   0.494775 0.936060 0.624581 0.005506
C25   C     C_3   0.444541 0.929328 0.720057 -0.262329
C26   C     C_3   0.445249 0.069764 0.720836 -0.266103
C27   C     C_R   0.543089 0.555575 0.073783 0.146976
C28   C     C_R   0.609036 0.499577 0.500030 0.539908
C29   C     C_R   0.460363 0.435011 0.074452 -0.013609
C30   C     C_R   0.460256 0.435261 0.925531 -0.016322
C31   C     C_R   0.544014 0.553987 0.926395 0.165672
C32   C     C_3   0.563527 0.686944 0.920502 -0.129971
C33   C     C_3   0.559571 0.688210 0.080105 -0.268860
C34   C     C_R   0.060155 0.381167 0.507825 0.011728
C35   C     C_R   0.881030 0.603457 0.489636 0.395958
C36   C     C_R   0.878965 0.382790 0.507424 0.389808
C37   C     C_R   0.939339 0.377013 0.507201 0.032439
C38   C     C_R   0.969816 0.490891 0.498148 -0.041163
C39   C     C_R   0.940424 0.604252 0.489037 0.031619
C40   C     C_3   0.944127 0.135598 0.523215 -0.236766
C41   C     C_3   0.924907 0.091585 0.378459 -0.391019
C42   C     C_3   0.625359 0.704103 0.867576 -0.274953
C43   C     C_3   0.628424 0.780940 0.733317 -0.413298
C44   C     C_R   0.029957 0.492453 0.498249 -0.033471
C45   C     C_R   0.060007 0.605781 0.488760 0.031783
C46   C     C_R   0.029971 0.717077 0.479647 -0.126857
C47   C     C_R   0.970859 0.716313 0.479983 -0.129023
C48   C     C_R   0.119900 0.384708 0.508090 0.398376
Cu1   Cu    Cu3+1 0.500000 0.499980 0.640670 0.933541
Cu2   Cu    Cu3+1 0.500000 0.500020 0.359330 0.935593
H1    H     H_    0.679470 0.440874 0.716946 0.122088
H2    H     H_    0.427685 0.384196 0.130284 0.118160
H3    H     H_    0.054094 0.183226 0.522203 0.165241
H4    H     H_    0.427478 0.384727 0.869751 0.112882
H5    H     H_    0.531927 0.749117 0.870600 0.160634
H6    H     H_    0.600243 0.701650 0.137838 0.118377
H7    H     H_    0.523956 0.746312 0.117213 0.133374
H8    H     H_    0.949091 0.804090 0.473226 0.153750
H9    H     H_    0.215852 0.519790 0.274972 0.125198
H10   H     H_    0.320184 0.521511 0.274167 0.127283
H11   H     H_    0.320237 0.475852 0.724929 0.123129
H12   H     H_    0.679522 0.554543 0.282001 0.120898
H13   H     H_    0.215909 0.473788 0.723041 0.124952
H14   H     H_    0.783756 0.441066 0.716205 0.126886
H15   H     H_    0.901907 0.001962 0.388603 0.162914
H16   H     H_    0.896318 0.159353 0.327255 0.200580
H17   H     H_    0.962544 0.078071 0.310177 0.140798
H18   H     H_    0.975379 0.067054 0.563059 0.117562
H19   H     H_    0.909243 0.131105 0.600920 0.205742
H20   H     H_    0.606375 0.733351 0.646291 0.184007
H21   H     H_    0.608984 0.873104 0.749826 0.150474
H22   H     H_    0.673600 0.794562 0.702933 0.151454
H23   H     H_    0.783847 0.551782 0.282376 0.125327
H24   H     H_    0.651545 0.753638 0.946958 0.144328
H25   H     H_    0.645810 0.613265 0.849756 0.154770
H26   H     H_    0.052002 0.805235 0.472462 0.164592
H27   H     H_    0.536528 0.114670 0.287994 0.137102
H28   H     H_    0.537123 0.888898 0.288803 0.122088
H29   H     H_    0.406244 0.889118 0.668363 0.150204
H30   H     H_    0.455173 0.888455 0.823739 0.130050
H31   H     H_    0.407284 0.111441 0.670004 0.141478
H32   H     H_    0.456782 0.109483 0.824492 0.136502
N1    N     N_R   0.851802 0.494261 0.498757 -0.395937
N2    N     N_R   0.148182 0.495405 0.498641 -0.398935
N3    N     N_R   0.500360 0.500930 0.147930 -0.232282
N4    N     N_R   0.500360 0.500890 0.852020 -0.235973
O1    O     O_R   0.500000 0.319640 0.618810 -0.497203
O2    O     O_R   0.582120 0.500020 0.618760 -0.503457
O3    O     O_R   0.582120 0.500060 0.381180 -0.499486
O4    O     O_2   0.852466 0.711239 0.482280 -0.511513
O5    O     O_2   0.847015 0.279189 0.515417 -0.520935
O6    O     O_2   0.149562 0.278499 0.517141 -0.492434
O7    O     O_2   0.148985 0.712424 0.480023 -0.490020
O8    O     O_R   0.500010 0.319680 0.381230 -0.505264
O9    O     O_R   0.417880 0.499940 0.618820 -0.507265
O10   O     O_R   0.417880 0.499980 0.381240 -0.504248
O11   O     O_R   0.499990 0.680320 0.618770 -0.505655
O12   O     O_R   0.500000 0.680360 0.381190 -0.504185

loop_
_geom_bond_atom_site_label_1
_geom_bond_atom_site_label_2
_ccdc_geom_bond_type
C1    O1    A    
C43   H22   S    
C25   H30   S    
Cu1   O1    S    
C2    N2    A    
C19   C20   A    
C18   C26   S    
C16   O12   A    
C46   H26   S    
C7    C8    A    
C41   H17   S    
C45   C46   A    
C27   C33   S    
C30   H4    S    
C12   C23   A    
C42   H25   S    
C37   C38   A    
C20   H27   S    
C18   C24   A    
C36   C37   A    
C38   C39   A    
C16   O11   A    
C36   N1    A    
C14   H12   S    
C18   C19   A    
C12   C37   A    
C27   N3    A    
C7    H11   S    
Cu2   N3    S    
C4    O10   A    
C8    C9    A    
C21   H28   S    
C28   O2    A    
C16   C22   S    
C13   C28   S    
C28   O3    A    
C30   N4    A    
C32   H5    S    
C29   N3    A    
C33   H6    S    
C26   H32   S    
C31   N4    A    
C21   C22   A    
Cu1   O2    S    
C23   H3    S    
C2    C45   A    
C42   H24   S    
C1    C19   S    
C40   H19   S    
C27   C31   A    
C34   C44   A    
C24   C25   S    
C4    C6    S    
Cu2   O12   S    
C35   N1    A    
Cu2   O8    S    
C41   H15   S    
C8    H13   S    
C25   C26   S    
C48   N2    A    
C17   N1    S    
C12   C40   S    
C35   C39   A    
C38   C44   A    
C29   C30   A    
C3    C9    A    
C4    O9    A    
Cu2   O3    S    
C31   C32   S    
C23   C34   A    
Cu1   O9    S    
C41   H16   S    
C36   O5    S    
C40   C41   S    
C15   H23   S    
C26   H31   S    
C48   O6    S    
C22   C24   A    
C34   C48   A    
C42   C43   S    
C44   C45   A    
C39   C47   A    
C15   C17   A    
C46   C47   A    
C43   H21   S    
C5    H10   S    
C25   H29   S    
Cu1   N4    S    
C2    O7    S    
C10   H14   S    
C3    C5    A    
C1    O8    A    
C6    C7    A    
C33   H7    S    
C43   H20   S    
C32   C33   S    
C47   H8    S    
C11   C13   A    
Cu2   O10   S    
C5    C6    A    
C11   H1    S    
C10   C11   A    
C9    N2    S    
Cu1   O11   S    
C35   O4    S    
C20   C21   A    
Cu1   Cu2   S    
C40   H18   S    
C32   C42   S    
C14   C15   A    
C10   C17   A    
C13   C14   A    
C29   H2    S    
C3    H9    S    
