data_mof_unit_11854.cif
_audit_creation_date              2012-12-11T15:39:29-0500
_audit_creation_method            fapswitch 2.2
_symmetry_space_group_name_H-M    P1
_symmetry_Int_Tables_number       1
_space_group_crystal_system       triclinic
_cell_length_a                    17.302818
_cell_length_b                    24.378539
_cell_length_c                    14.893226
_cell_angle_alpha                 89.575672
_cell_angle_beta                  125.645099
_cell_angle_gamma                 90.766836
_cell_volume                      5104.74171407

loop_
_atom_site_label
_atom_site_type_symbol
_atom_type_description
_atom_site_fract_x
_atom_site_fract_y
_atom_site_fract_z
_atom_type_partial_charge
C1    C     C_R   0.350117 0.348366 0.907718 -0.145436
C2    C     C_R   0.433735 0.499861 0.631419 0.051166
C3    C     C_R   0.182947 0.859856 0.998434 0.064760
C4    C     C_3   0.498727 0.781512 0.143543 -1.058071
C5    C     C_3   0.694479 0.649479 0.790474 -1.075606
C6    C     C_3   0.998726 0.281514 0.143537 -1.058071
C7    C     C_3   0.194479 0.149479 0.790474 -1.075606
C8    C     C_3   0.323833 0.675232 0.797274 -1.064277
C9    C     C_3   0.741342 0.660905 0.198109 -1.091767
C10   C     C_3   0.823831 0.175232 0.797274 -1.064280
C11   C     C_3   0.241342 0.160905 0.198109 -1.091766
C12   C     C_R   0.949001 0.999344 0.274274 0.039096
C13   C     C_R   0.933735 0.999861 0.631419 0.051166
C14   C     C_R   0.174349 0.499612 0.725697 0.068911
C15   C     C_R   0.802199 0.499579 0.369469 0.064690
C16   C     C_R   0.674349 0.999612 0.725698 0.068914
C17   C     C_R   0.302199 0.999579 0.369469 0.064690
C18   C     C_R   0.021649 0.550195 0.628770 0.161218
C19   C     C_R   0.927679 0.549907 0.538400 0.159630
C20   C     C_R   0.521650 0.050195 0.628770 0.161217
C21   C     C_R   0.688392 0.373586 0.092011 -0.133366
C22   C     C_R   0.427679 0.049907 0.538400 0.159631
C23   C     C_R   0.071393 0.500815 0.670249 0.033862
C24   C     C_R   0.881139 0.500452 0.486935 0.033273
C25   C     C_R   0.571393 0.000815 0.670249 0.033862
C26   C     C_R   0.381139 0.000452 0.486935 0.033273
C27   C     C_R   0.017826 0.451710 0.638049 -0.197544
C28   C     C_R   0.922586 0.451476 0.545877 -0.197654
C29   C     C_R   0.517826 0.951710 0.638049 -0.197545
C30   C     C_R   0.422586 0.951476 0.545877 -0.197653
C31   C     C_3   0.940268 0.601015 0.491861 -0.520084
C32   C     C_R   0.850117 0.848366 0.907718 -0.145435
C33   C     C_3   0.042713 0.601592 0.590327 -0.521357
C34   C     C_3   0.440268 0.101015 0.491861 -0.520086
C35   C     C_3   0.542713 0.101592 0.590327 -0.521353
C36   C     C_R   0.242346 0.734093 0.920982 -0.220712
C37   C     C_R   0.848982 0.681817 0.094977 -0.221191
C38   C     C_R   0.742345 0.234090 0.920987 -0.220719
C39   C     C_R   0.348982 0.181817 0.094977 -0.221191
C40   C     C_R   0.692377 0.277061 0.919428 -0.179092
C41   C     C_R   0.392886 0.230014 0.096525 -0.176598
C42   C     C_R   0.192378 0.777063 0.919423 -0.179093
C43   C     C_R   0.188392 0.873586 0.092011 -0.133366
C44   C     C_R   0.892886 0.730014 0.096525 -0.176598
C45   C     C_R   0.740307 0.320022 0.993945 0.097106
C46   C     C_R   0.356472 0.258250 0.997530 0.093215
C47   C     C_R   0.240308 0.820022 0.993944 0.097107
C48   C     C_R   0.856472 0.758250 0.997530 0.093215
C49   C     C_R   0.442795 0.651638 0.091347 -0.223069
C50   C     C_R   0.597378 0.624909 0.907498 -0.189127
C51   C     C_R   0.942795 0.151638 0.091347 -0.223072
C52   C     C_R   0.097377 0.124909 0.907498 -0.189127
C53   C     C_R   0.839444 0.321253 0.067736 -0.229404
C54   C     C_R   0.384469 0.683282 0.999218 0.032791
C55   C     C_R   0.292142 0.231154 0.897130 -0.221149
C56   C     C_R   0.339444 0.821253 0.067738 -0.229404
C57   C     C_R   0.792142 0.731154 0.897130 -0.221148
C58   C     C_R   0.391771 0.778303 0.067426 0.309936
C59   C     C_R   0.749365 0.682138 0.896019 0.325181
C60   C     C_R   0.891770 0.278303 0.067424 0.309935
C61   C     C_R   0.249365 0.182139 0.896019 0.325181
C62   C     C_R   0.341304 0.733904 0.994833 0.117677
C63   C     C_R   0.764992 0.664337 0.995993 0.103986
C64   C     C_R   0.841303 0.233903 0.994834 0.117685
C65   C     C_R   0.688209 0.638878 0.999086 0.006561
C66   C     C_R   0.264992 0.164337 0.995993 0.103987
C67   C     C_R   0.391156 0.549030 0.462256 -0.167512
C68   C     C_R   0.392838 0.548817 0.370494 -0.166708
C69   C     C_R   0.891156 0.049030 0.462256 -0.167512
C70   C     C_R   0.892838 0.048817 0.370494 -0.166708
C71   C     C_R   0.405029 0.499162 0.333420 0.141598
C72   C     C_R   0.400159 0.499520 0.515841 0.139249
C73   C     C_R   0.905029 0.999162 0.333420 0.141598
C74   C     C_R   0.900159 0.999520 0.515841 0.139249
C75   C     C_R   0.393228 0.449535 0.372327 -0.166479
C76   C     C_R   0.884469 0.183282 0.999218 0.032789
C77   C     C_R   0.391171 0.449693 0.463813 -0.169667
C78   C     C_R   0.893228 0.949535 0.372327 -0.166479
C79   C     C_R   0.891171 0.949693 0.463813 -0.169667
C80   C     C_R   0.479970 0.453637 0.248538 -0.124403
C81   C     C_R   0.450238 0.454362 0.695837 -0.134170
C82   C     C_R   0.979970 0.953637 0.248538 -0.124403
C83   C     C_R   0.950238 0.954361 0.695837 -0.134171
C84   C     C_R   0.232743 0.545316 0.756173 -0.157318
C85   C     C_R   0.752757 0.544831 0.306729 -0.135178
C86   C     C_R   0.732743 0.045316 0.756174 -0.157325
C87   C     C_R   0.188209 0.138878 0.999086 0.006560
C88   C     C_R   0.252757 0.044831 0.306729 -0.135178
C89   C     C_R   0.480370 0.545521 0.248516 -0.122502
C90   C     C_R   0.450168 0.545485 0.695288 -0.138721
C91   C     C_R   0.980370 0.045521 0.248516 -0.122502
C92   C     C_R   0.950168 0.045484 0.695288 -0.138720
C93   C     C_R   0.230486 0.453772 0.749516 -0.118438
C94   C     C_R   0.755398 0.454150 0.304085 -0.132203
C95   C     C_R   0.730486 0.953772 0.749516 -0.118438
C96   C     C_R   0.255398 0.954150 0.304085 -0.132204
C97   C     C_R   0.356674 0.652479 0.908085 0.296022
C98   C     C_R   0.449001 0.499344 0.274274 0.039096
C99   C     C_R   0.687516 0.629099 0.092061 0.342269
C100  C     C_R   0.856675 0.152479 0.908085 0.296026
C101  C     C_R   0.187516 0.129099 0.092061 0.342268
C102  C     C_R   0.442052 0.347955 0.091046 -0.141189
C103  C     C_R   0.595475 0.375276 0.906639 -0.137259
C104  C     C_R   0.942052 0.847955 0.091046 -0.141189
C105  C     C_R   0.095475 0.875276 0.906639 -0.137258
C106  C     C_R   0.379646 0.316229 0.998869 0.073773
C107  C     C_R   0.682947 0.359856 0.998434 0.064760
C108  C     C_R   0.879646 0.816229 0.998869 0.073772
H1    H     H_    0.312210 0.334959 0.822958 0.085654
H2    H     H_    0.091821 0.595384 0.566080 0.205186
H3    H     H_    0.399275 0.135983 0.491048 0.196094
H4    H     H_    0.591821 0.095384 0.566080 0.205186
H5    H     H_    0.202477 0.699342 0.868072 0.130804
H6    H     H_    0.875725 0.661906 0.172517 0.151285
H7    H     H_    0.702476 0.199339 0.868081 0.130802
H8    H     H_    0.375725 0.161906 0.172517 0.151285
H9    H     H_    0.615421 0.274723 0.864451 0.123740
H10   H     H_    0.449850 0.246656 0.175658 0.118965
H11   H     H_    0.115423 0.774726 0.864443 0.123738
H12   H     H_    0.745345 0.364853 0.177066 0.100104
H13   H     H_    0.949850 0.746656 0.175658 0.118965
H14   H     H_    0.875288 0.355218 0.124849 0.136564
H15   H     H_    0.272673 0.248244 0.819422 0.123960
H16   H     H_    0.375289 0.855217 0.124855 0.136563
H17   H     H_    0.772673 0.748244 0.819422 0.123960
H18   H     H_    0.392124 0.588248 0.496243 0.108896
H19   H     H_    0.394708 0.587906 0.337103 0.109275
H20   H     H_    0.892124 0.088248 0.496243 0.108896
H21   H     H_    0.894708 0.087906 0.337103 0.109275
H22   H     H_    0.395687 0.410377 0.340578 0.109904
H23   H     H_    0.812210 0.834959 0.822958 0.085654
H24   H     H_    0.391995 0.410567 0.498853 0.108217
H25   H     H_    0.895687 0.910377 0.340578 0.109904
H26   H     H_    0.891995 0.910567 0.498853 0.108217
H27   H     H_    0.483712 0.665017 0.176478 0.129310
H28   H     H_    0.567135 0.630524 0.821545 0.143447
H29   H     H_    0.983712 0.165017 0.176478 0.129310
H30   H     H_    0.067134 0.130524 0.821545 0.143447
H31   H     H_    0.469381 0.410992 0.258695 0.094297
H32   H     H_    0.431619 0.412290 0.668542 0.083594
H33   H     H_    0.969381 0.910992 0.258695 0.094297
H34   H     H_    0.245345 0.864853 0.177065 0.100104
H35   H     H_    0.931619 0.912290 0.668542 0.083595
H36   H     H_    0.214519 0.587136 0.756740 0.131492
H37   H     H_    0.756732 0.584747 0.339702 0.118960
H38   H     H_    0.714519 0.087136 0.756740 0.131495
H39   H     H_    0.256732 0.084747 0.339702 0.118960
H40   H     H_    0.470575 0.587936 0.258955 0.094373
H41   H     H_    0.431570 0.587347 0.667087 0.087662
H42   H     H_    0.970576 0.087936 0.258955 0.094373
H43   H     H_    0.931570 0.087347 0.667087 0.087663
H44   H     H_    0.208585 0.411242 0.737561 0.093196
H45   H     H_    0.932618 0.593771 0.413439 0.200520
H46   H     H_    0.765193 0.411992 0.331227 0.086669
H47   H     H_    0.708585 0.911242 0.737561 0.093196
H48   H     H_    0.265193 0.911992 0.331227 0.086669
H49   H     H_    0.488816 0.333977 0.175448 0.085778
H50   H     H_    0.566966 0.368679 0.820880 0.100629
H51   H     H_    0.988816 0.833977 0.175448 0.085778
H52   H     H_    0.066966 0.868680 0.820880 0.100628
H53   H     H_    0.051566 0.412758 0.673571 0.127935
H54   H     H_    0.886678 0.412338 0.514023 0.125634
H55   H     H_    0.551566 0.912759 0.673572 0.127935
H56   H     H_    0.060845 0.636859 0.646585 0.189264
H57   H     H_    0.386678 0.912338 0.514023 0.125633
H58   H     H_    0.522851 0.776435 0.230391 0.250590
H59   H     H_    0.532794 0.750030 0.124372 0.262619
H60   H     H_    0.523373 0.822169 0.134727 0.261465
H61   H     H_    0.683408 0.606343 0.805322 0.262136
H62   H     H_    0.625537 0.669418 0.729110 0.248855
H63   H     H_    0.735877 0.647643 0.755080 0.261049
H64   H     H_    0.022854 0.276441 0.230386 0.250591
H65   H     H_    0.032793 0.250030 0.124368 0.262619
H66   H     H_    0.023370 0.322170 0.134713 0.261465
H67   H     H_    0.432618 0.093771 0.413439 0.200520
H68   H     H_    0.183408 0.106343 0.805322 0.262136
H69   H     H_    0.125537 0.169418 0.729110 0.248855
H70   H     H_    0.235876 0.147643 0.755080 0.261049
H71   H     H_    0.246846 0.684452 0.747515 0.243809
H72   H     H_    0.364150 0.713435 0.808218 0.264453
H73   H     H_    0.336399 0.645250 0.751414 0.253987
H74   H     H_    0.810502 0.641612 0.259110 0.244616
H75   H     H_    0.752651 0.703950 0.183062 0.266571
H76   H     H_    0.699227 0.662713 0.232547 0.252527
H77   H     H_    0.746848 0.184460 0.747523 0.243813
H78   H     H_    0.560845 0.136859 0.646585 0.189264
H79   H     H_    0.864157 0.213431 0.808217 0.264453
H80   H     H_    0.836383 0.145247 0.751406 0.253985
H81   H     H_    0.310502 0.141612 0.259110 0.244616
H82   H     H_    0.252651 0.203950 0.183062 0.266571
H83   H     H_    0.199227 0.162713 0.232547 0.252527
H84   H     H_    0.899275 0.635983 0.491049 0.196093
N1    N     N_R   0.394180 0.396910 0.943210 -0.038035
N2    N     N_R   0.474350 0.471570 0.793850 -0.037512
N3    N     N_R   0.025650 0.971570 0.206150 -0.040146
N4    N     N_R   0.974350 0.971570 0.793850 -0.037512
N5    N     N_R   0.319480 0.528420 0.793810 -0.038955
N6    N     N_R   0.680520 0.528420 0.206190 -0.039639
N7    N     N_R   0.819480 0.028420 0.793810 -0.038956
N8    N     N_R   0.180520 0.028420 0.206190 -0.039639
N9    N     N_R   0.525640 0.528390 0.206120 -0.039261
N10   N     N_R   0.474360 0.528390 0.793880 -0.037129
N11   N     N_R   0.025640 0.028390 0.206120 -0.039261
N12   N     N_R   0.605820 0.396910 0.056790 -0.040015
N13   N     N_R   0.974360 0.028390 0.793880 -0.037129
N14   N     N_R   0.319490 0.471590 0.793840 -0.040463
N15   N     N_R   0.680510 0.471590 0.206160 -0.040938
N16   N     N_R   0.819490 0.971590 0.793840 -0.040463
N17   N     N_R   0.180510 0.971590 0.206160 -0.040938
N18   N     N_R   0.394130 0.603080 0.943110 -0.053206
N19   N     N_R   0.605870 0.603080 0.056890 -0.054596
N20   N     N_R   0.894130 0.103080 0.943110 -0.053206
N21   N     N_R   0.105870 0.103080 0.056890 -0.054596
N22   N     N_R   0.450990 0.396900 0.056840 -0.038313
N23   N     N_R   0.894180 0.896910 0.943210 -0.038035
N24   N     N_R   0.549010 0.396900 0.943160 -0.040744
N25   N     N_R   0.950990 0.896900 0.056840 -0.038313
N26   N     N_R   0.049010 0.896900 0.943160 -0.040744
N27   N     N_R   0.105820 0.896910 0.056790 -0.040015
N28   N     N_R   0.450950 0.603070 0.056740 -0.050633
N29   N     N_R   0.549050 0.603070 0.943260 -0.052068
N30   N     N_R   0.950950 0.103070 0.056740 -0.050633
N31   N     N_R   0.049050 0.103070 0.943260 -0.052068
N32   N     N_R   0.525650 0.471570 0.206150 -0.040146
Ni1   Ni    Ni4+2 0.434860 0.434850 0.869700 0.207777
Ni2   Ni    Ni4+2 0.565140 0.434850 0.130300 0.208597
Ni3   Ni    Ni4+2 0.934860 0.934850 0.869700 0.207777
Ni4   Ni    Ni4+2 0.065140 0.934850 0.130300 0.208597
Ni5   Ni    Ni4+2 0.565130 0.565140 0.130240 0.205956
Ni6   Ni    Ni4+2 0.434870 0.565140 0.869760 0.206523
Ni7   Ni    Ni4+2 0.065130 0.065140 0.130240 0.205956
Ni8   Ni    Ni4+2 0.934870 0.065140 0.869760 0.206523

loop_
_geom_bond_atom_site_label_1
_geom_bond_atom_site_label_2
_ccdc_geom_bond_type
C8    H73   S    
C58   C62   A    
C81   H32   S    
C83   H35   S    
C63   C65   S    
C50   N29   A    
C89   H40   S    
C17   C88   A    
C90   H41   S    
C50   C65   A    
C29   H55   S    
C12   C91   A    
C36   C42   A    
C14   C84   A    
C8    C97   S    
C19   C31   S    
C15   C94   A    
N6    Ni5   S    
C28   H54   S    
C48   C57   A    
C39   C41   A    
C6    H64   S    
N5    Ni6   S    
C3    C105  A    
N8    N17   A    
C3    C43   A    
C29   C30   A    
N3    Ni4   S    
C105  N26   A    
C17   C26   S    
C56   H16   S    
N2    Ni1   S    
C38   C40   A    
C85   H37   S    
C34   C35   S    
C21   H12   S    
C53   H14   S    
N23   N25   A    
N16   Ni3   S    
C57   H17   S    
N20   Ni8   S    
C2    C72   S    
C42   H11   S    
C57   C59   A    
C105  H52   S    
N3    N11   A    
C20   C25   A    
C93   N14   A    
C51   N30   A    
C49   C54   A    
N2    N10   A    
C55   C61   A    
C44   H13   S    
C16   C25   S    
C10   H77   S    
N18   N28   A    
C7    H69   S    
C18   C19   A    
N4    N13   A    
C2    C90   A    
C7    C61   S    
C34   H67   S    
C1    C106  A    
C1    H1    S    
C81   N2    A    
C87   C101  A    
C32   N23   A    
C61   C66   A    
C102  N22   A    
C69   H20   S    
C101  N21   A    
N29   Ni6   S    
C52   H30   S    
C41   C46   A    
C31   C33   S    
C54   C97   A    
C92   N13   A    
N8    Ni7   S    
C23   C27   A    
C41   H10   S    
C14   C93   A    
N23   Ni3   S    
N21   Ni7   S    
C75   H22   S    
C94   H46   S    
C86   N7    A    
C15   C85   A    
C95   H47   S    
N9    Ni5   S    
C40   H9    S    
C49   H27   S    
N4    Ni3   S    
C45   C53   A    
C9    C99   S    
C12   C73   S    
C16   C86   A    
C34   H3    S    
C20   C35   S    
C21   N12   A    
N5    N14   A    
C9    H74   S    
N14   Ni1   S    
C82   H33   S    
C36   C62   A    
C36   H5    S    
C86   H38   S    
C102  H49   S    
C31   H45   S    
C53   C60   A    
C93   H44   S    
C38   C64   A    
C56   C58   A    
C25   C29   A    
C40   C45   A    
C22   C34   S    
C71   C98   S    
C55   H15   S    
C71   C75   A    
C97   N18   A    
C5    C59   S    
C49   N28   A    
C67   C68   A    
C6    C60   S    
N1    N22   A    
C33   H56   S    
C44   C48   A    
C51   C76   A    
C65   C99   A    
C67   H18   S    
C66   C87   S    
C78   C79   A    
C99   N19   A    
C37   H6    S    
C54   C62   S    
C70   C73   A    
C31   H84   S    
C100  N20   A    
C70   H21   S    
C18   C23   A    
C7    H70   S    
C11   H81   S    
C77   H24   S    
C14   C23   S    
C46   C55   A    
C1    N1    A    
N7    Ni8   S    
C72   C77   A    
C9    H75   S    
C80   N32   A    
C8    H72   S    
N15   Ni2   S    
C10   H80   S    
C37   C63   A    
C73   C78   A    
C7    H68   S    
C92   H43   S    
C10   H79   S    
C64   C76   S    
C12   C82   A    
C69   C74   A    
C11   C101  S    
C17   C96   A    
C10   C100  S    
C75   C77   A    
C68   H19   S    
C82   N3    A    
C21   C107  A    
C5    H62   S    
N28   Ni5   S    
C15   C24   S    
N17   Ni4   S    
C20   C22   A    
N30   Ni7   S    
C26   C30   A    
C74   C79   A    
C13   C92   A    
C22   C26   A    
N27   Ni4   S    
C39   C66   A    
C18   C33   S    
C96   H48   S    
C104  H51   S    
N12   Ni2   S    
C51   H29   S    
N26   Ni3   S    
C104  C108  A    
C67   C72   A    
N31   Ni8   S    
C5    H63   S    
C95   N16   A    
C79   H26   S    
N12   N24   A    
C16   C95   A    
C5    H61   S    
C96   N17   A    
N19   Ni5   S    
C80   C98   A    
N6    N15   A    
C83   N4    A    
C52   C87   A    
C43   N27   A    
C94   N15   A    
C24   C28   A    
C30   H57   S    
C43   H34   S    
N32   Ni2   S    
C91   H42   S    
C103  C107  A    
C103  H50   S    
C68   C71   A    
C6    H65   S    
C84   N5    A    
C76   C100  A    
C80   H31   S    
C6    H66   S    
C89   N9    A    
C13   C83   A    
C59   C63   A    
N24   Ni1   S    
C4    H59   S    
N10   Ni6   S    
C89   C98   A    
C60   C64   A    
N20   N30   A    
C11   H82   S    
C37   C44   A    
C19   C24   A    
N1    Ni1   S    
C9    H76   S    
C50   H28   S    
C27   H53   S    
N11   Ni7   S    
C38   H7    S    
N21   N31   A    
C8    H71   S    
C88   N8    A    
N26   N27   A    
C48   C108  S    
C35   H78   S    
C46   C106  S    
C3    C47   S    
N7    N16   A    
C88   H39   S    
C4    H58   S    
C102  C106  A    
C11   H83   S    
C42   C47   A    
C69   C70   A    
N22   Ni2   S    
C78   H25   S    
C104  N25   A    
N18   Ni6   S    
N25   Ni4   S    
C4    H60   S    
C85   N6    A    
C13   C74   S    
C52   N31   A    
C39   H8    S    
C32   C108  A    
C4    C58   S    
C27   C28   A    
C84   H36   S    
C2    C81   A    
N13   Ni8   S    
C33   H2    S    
N9    N32   A    
C103  N24   A    
C32   H23   S    
C91   N11   A    
C35   H4    S    
C45   C107  S    
C47   C56   A    
C90   N10   A    
N19   N29   A    
