data_mof_unit_60949.cif
_audit_creation_date              2013-03-05T16:18:42-0500
_audit_creation_method            fapswitch 2.2
_symmetry_space_group_name_H-M    P1
_symmetry_Int_Tables_number       1
_space_group_crystal_system       triclinic
_cell_length_a                    33.236124
_cell_length_b                    33.365476
_cell_length_c                    22.193158
_cell_angle_alpha                 89.986108
_cell_angle_beta                  90.000078
_cell_angle_gamma                 90.0
_cell_volume                      24610.8598832

loop_
_atom_site_label
_atom_site_type_symbol
_atom_site_description
_atom_site_fract_x
_atom_site_fract_y
_atom_site_fract_z
_atom_type_partial_charge
O1    O     O_R   0.041070 0.458950 0.550320 -0.584487
O2    O     O_R   0.958930 0.541050 0.449680 -0.584486
O3    O     O_R   0.958930 0.541050 0.550320 -0.583753
O4    O     O_R   0.041070 0.458950 0.449680 -0.583751
O5    O     O_R   0.958930 0.458950 0.449680 -0.584786
O6    O     O_R   0.041070 0.541050 0.550320 -0.584790
O7    O     O_R   0.041070 0.541050 0.449680 -0.585519
O8    O     O_R   0.958930 0.458950 0.550320 -0.585522
O9    O     O_R   0.541070 0.958950 0.550320 -0.584486
O10   O     O_R   0.458930 0.041050 0.449680 -0.584487
O11   O     O_R   0.458930 0.041050 0.550320 -0.583751
O12   O     O_R   0.541070 0.958950 0.449680 -0.583753
O13   O     O_R   0.458930 0.958950 0.449680 -0.584790
O14   O     O_R   0.541070 0.041050 0.550320 -0.584787
O15   O     O_R   0.541070 0.041050 0.449680 -0.585522
O16   O     O_R   0.458930 0.958950 0.550320 -0.585519
C1    C     C_R   0.035601 0.500001 0.320323 0.058427
C2    C     C_R   0.964399 0.499999 0.679677 0.058421
C3    C     C_R   0.964399 0.500000 0.320323 0.058336
C4    C     C_R   0.035601 0.500000 0.679677 0.058329
C5    C     C_R   0.535601 0.000001 0.320323 0.058421
C6    C     C_R   0.464399 0.999999 0.679677 0.058427
C7    C     C_R   0.464399 0.000000 0.320323 0.058329
C8    C     C_R   0.535601 1.000000 0.679677 0.058336
C9    C     C_R   0.054706 0.445414 0.500006 0.816727
C10   C     C_R   0.945294 0.554586 0.499994 0.816727
C11   C     C_R   0.945294 0.445414 0.500006 0.815810
C12   C     C_R   0.054706 0.554586 0.499994 0.815808
C13   C     C_R   0.554706 0.945414 0.500006 0.816727
C14   C     C_R   0.445294 0.054586 0.499994 0.816727
C15   C     C_R   0.445294 0.945414 0.500006 0.815809
C16   C     C_R   0.554706 0.054586 0.499994 0.815809
Cu1   Cu    Cu3+1 1.000000 0.500000 0.559570 0.963719
Cu2   Cu    Cu3+1 0.000000 0.500000 0.440430 0.963726
Cu3   Cu    Cu3+1 0.500000 0.000000 0.559570 0.963725
Cu4   Cu    Cu3+1 0.500000 0.000000 0.440430 0.963719
H1    H     H_    0.063658 0.500040 0.345025 0.131566
H2    H     H_    0.936342 0.499960 0.654975 0.131581
H3    H     H_    0.936342 0.499962 0.345025 0.131554
H4    H     H_    0.063658 0.500037 0.654975 0.131568
H5    H     H_    0.563658 0.000040 0.345025 0.131581
H6    H     H_    0.436342 0.999959 0.654975 0.131566
H7    H     H_    0.436342 0.999962 0.345025 0.131568
H8    H     H_    0.563658 0.000038 0.654975 0.131554
N1    N     N_R   1.000000 0.500000 0.350920 -0.173415
N2    N     N_R   1.000000 0.500000 0.649080 -0.173420
N3    N     N_R   0.500000 0.000000 0.350920 -0.173420
N4    N     N_R   0.500000 0.000000 0.649080 -0.173415
C17   C     C_R   0.166807 0.713145 0.519017 0.561652
C18   C     C_R   0.833181 0.286866 0.480919 0.561651
C19   C     C_R   0.833182 0.713135 0.519080 0.564920
C20   C     C_R   0.166820 0.286868 0.480906 0.564918
C21   C     C_R   0.666819 0.213134 0.519081 0.561651
C22   C     C_R   0.333193 0.786855 0.480983 0.561651
C23   C     C_R   0.333180 0.213132 0.519094 0.564918
C24   C     C_R   0.666818 0.786865 0.480920 0.564919
N5    N     N_R   0.176431 0.675475 0.499875 -0.474598
N6    N     N_R   0.823569 0.324525 0.500125 -0.474590
N7    N     N_R   0.823570 0.675476 0.499874 -0.474616
N8    N     N_R   0.176430 0.324524 0.500126 -0.474615
N9    N     N_R   0.676431 0.175475 0.499875 -0.474590
N10   N     N_R   0.323569 0.824525 0.500124 -0.474598
N11   N     N_R   0.323570 0.175476 0.499874 -0.474615
N12   N     N_R   0.676430 0.824524 0.500125 -0.474616
C25   C     C_R   0.214389 0.666003 0.480683 0.562375
C26   C     C_R   0.785623 0.333985 0.519382 0.562377
C27   C     C_R   0.785624 0.666015 0.480618 0.564956
C28   C     C_R   0.214373 0.333982 0.519397 0.564954
C29   C     C_R   0.714377 0.166015 0.480618 0.562377
C30   C     C_R   0.285611 0.833997 0.519317 0.562376
C31   C     C_R   0.285627 0.166018 0.480603 0.564954
C32   C     C_R   0.714376 0.833985 0.519382 0.564956
C33   C     C_R   0.245050 0.695412 0.479753 -0.072924
C34   C     C_R   0.754962 0.304575 0.520315 -0.072919
C35   C     C_R   0.754963 0.695425 0.479685 -0.072648
C36   C     C_R   0.245034 0.304572 0.520330 -0.072649
C37   C     C_R   0.745038 0.195425 0.479685 -0.072919
C38   C     C_R   0.254950 0.804588 0.520247 -0.072924
C39   C     C_R   0.254966 0.195428 0.479670 -0.072649
C40   C     C_R   0.745037 0.804575 0.520315 -0.072649
C41   C     C_R   0.235271 0.734663 0.499808 -0.043092
C42   C     C_R   0.764729 0.265337 0.500193 -0.043093
C43   C     C_R   0.764729 0.734664 0.499807 -0.042092
C44   C     C_R   0.235271 0.265336 0.500193 -0.042092
C45   C     C_R   0.735271 0.234663 0.499807 -0.043093
C46   C     C_R   0.264729 0.765337 0.500192 -0.043092
C47   C     C_R   0.264729 0.234664 0.499807 -0.042092
C48   C     C_R   0.735271 0.765336 0.500193 -0.042092
C49   C     C_R   0.195992 0.743382 0.519547 -0.043651
C50   C     C_R   0.803996 0.256630 0.480387 -0.043647
C51   C     C_R   0.803996 0.743371 0.519612 -0.043277
C52   C     C_R   0.196007 0.256631 0.480373 -0.043277
C53   C     C_R   0.696004 0.243370 0.519613 -0.043648
C54   C     C_R   0.304008 0.756617 0.480453 -0.043651
C55   C     C_R   0.303993 0.243369 0.519627 -0.043277
C56   C     C_R   0.696004 0.756629 0.480388 -0.043278
C57   C     C_R   0.284924 0.687464 0.459926 0.195567
C58   C     C_R   0.715102 0.312511 0.540210 0.195570
C59   C     C_R   0.715102 0.687488 0.459791 0.197042
C60   C     C_R   0.284892 0.312506 0.540239 0.197042
C61   C     C_R   0.784898 0.187489 0.459790 0.195569
C62   C     C_R   0.215076 0.812536 0.540074 0.195567
C63   C     C_R   0.215108 0.187494 0.459761 0.197042
C64   C     C_R   0.784898 0.812512 0.540209 0.197043
C65   C     C_R   0.813554 0.217980 0.460503 -0.175795
C66   C     C_R   0.186421 0.782045 0.539364 -0.175795
C67   C     C_R   0.186451 0.217984 0.460474 -0.172826
C68   C     C_R   0.813554 0.782021 0.539496 -0.172825
C69   C     C_R   0.313579 0.717955 0.460636 -0.175795
C70   C     C_R   0.686446 0.282020 0.539497 -0.175795
C71   C     C_R   0.686446 0.717978 0.460504 -0.172825
C72   C     C_R   0.313549 0.282016 0.539526 -0.172826
O17   O     O_2   0.128903 0.721331 0.537106 -0.513187
O18   O     O_2   0.871074 0.278691 0.462769 -0.513198
O19   O     O_2   0.871075 0.721311 0.537231 -0.510813
O20   O     O_2   0.128930 0.278694 0.462741 -0.510815
O21   O     O_2   0.628926 0.221309 0.537232 -0.513199
O22   O     O_2   0.371097 0.778669 0.462894 -0.513187
O23   O     O_2   0.371070 0.221306 0.537259 -0.510816
O24   O     O_2   0.628925 0.778689 0.462770 -0.510813
O25   O     O_2   0.222029 0.628128 0.463276 -0.484753
O26   O     O_2   0.777993 0.371850 0.536847 -0.484764
O27   O     O_2   0.777995 0.628151 0.463152 -0.483594
O28   O     O_2   0.222000 0.371844 0.536876 -0.483592
O29   O     O_2   0.722007 0.128150 0.463152 -0.484765
O30   O     O_2   0.277971 0.871872 0.536724 -0.484753
O31   O     O_2   0.277999 0.128156 0.463124 -0.483592
O32   O     O_2   0.722006 0.871849 0.536847 -0.483594
H9    H     H_    0.843726 0.211185 0.445133 0.211131
H10   H     H_    0.156239 0.788849 0.554682 0.211130
H11   H     H_    0.156282 0.211191 0.445093 0.211275
H12   H     H_    0.843726 0.788817 0.554865 0.211275
H13   H     H_    0.343761 0.711150 0.445318 0.211130
H14   H     H_    0.656274 0.288815 0.554867 0.211131
H15   H     H_    0.656274 0.711183 0.445135 0.211275
H16   H     H_    0.343718 0.288809 0.554907 0.211275
C73   C     C_R   0.869095 0.369727 0.445460 -0.082558
C74   C     C_R   0.131002 0.630149 0.445327 -0.083585
C75   C     C_R   0.130908 0.369731 0.445460 -0.078902
C76   C     C_R   0.869021 0.630171 0.445326 -0.079859
C77   C     C_R   0.369115 0.869706 0.445460 -0.082570
C78   C     C_R   0.630981 0.130169 0.445327 -0.083578
C79   C     C_R   0.630903 0.869725 0.445460 -0.078904
C80   C     C_R   0.369025 0.130175 0.445326 -0.079857
H17   H     H_    0.857602 0.358398 0.403105 0.153209
H18   H     H_    0.142426 0.641527 0.402950 0.153631
H19   H     H_    0.142405 0.358405 0.403105 0.158059
H20   H     H_    0.857612 0.641564 0.402949 0.158471
H21   H     H_    0.357638 0.858360 0.403104 0.153195
H22   H     H_    0.642389 0.141563 0.402950 0.153650
H23   H     H_    0.642395 0.858395 0.403105 0.158057
H24   H     H_    0.357621 0.141572 0.402949 0.158475
C81   C     C_R   0.898809 0.399224 0.445367 -0.197419
C82   C     C_R   0.101288 0.600654 0.445288 -0.198581
C83   C     C_R   0.101194 0.399228 0.445367 -0.194401
C84   C     C_R   0.898733 0.600675 0.445287 -0.195663
C85   C     C_R   0.398829 0.899204 0.445367 -0.197416
C86   C     C_R   0.601268 0.100674 0.445288 -0.198593
C87   C     C_R   0.601189 0.899222 0.445367 -0.194401
C88   C     C_R   0.398738 0.100679 0.445287 -0.195665
H25   H     H_    0.909905 0.410223 0.402563 0.165928
H26   H     H_    0.090242 0.589588 0.402502 0.165606
H27   H     H_    0.090102 0.410230 0.402563 0.170827
H28   H     H_    0.909796 0.589625 0.402502 0.170521
H29   H     H_    0.409941 0.910186 0.402563 0.165938
H30   H     H_    0.590205 0.089624 0.402502 0.165621
H31   H     H_    0.590092 0.910221 0.402563 0.170830
H32   H     H_    0.409804 0.089633 0.402502 0.170524
C89   C     C_R   0.913917 0.414275 0.500026 -0.050170
C90   C     C_R   0.086083 0.585725 0.499974 -0.050169
C91   C     C_R   0.086082 0.414274 0.500026 -0.054909
C92   C     C_R   0.913918 0.585726 0.499973 -0.054909
C93   C     C_R   0.413917 0.914275 0.500026 -0.050169
C94   C     C_R   0.586083 0.085725 0.499974 -0.050171
C95   C     C_R   0.586082 0.914274 0.500026 -0.054909
C96   C     C_R   0.413918 0.085725 0.499973 -0.054909
C97   C     C_R   0.898732 0.399326 0.554712 -0.198593
C98   C     C_R   0.101171 0.600796 0.554633 -0.197416
C99   C     C_R   0.101261 0.399320 0.554712 -0.195666
C100  C     C_R   0.898811 0.600778 0.554633 -0.194401
C101  C     C_R   0.398712 0.899346 0.554712 -0.198581
C102  C     C_R   0.601190 0.100776 0.554633 -0.197419
C103  C     C_R   0.601267 0.899325 0.554712 -0.195664
C104  C     C_R   0.398807 0.100773 0.554633 -0.194401
H33   H     H_    0.909795 0.410376 0.597498 0.165622
H34   H     H_    0.090058 0.589814 0.597437 0.165938
H35   H     H_    0.090195 0.410366 0.597498 0.170525
H36   H     H_    0.909907 0.589779 0.597437 0.170830
H37   H     H_    0.409759 0.910412 0.597498 0.165606
H38   H     H_    0.590094 0.089777 0.597437 0.165928
H39   H     H_    0.590204 0.910375 0.597498 0.170521
H40   H     H_    0.409899 0.089771 0.597437 0.170828
C105  C     C_R   0.869019 0.369830 0.554673 -0.083578
C106  C     C_R   0.130885 0.630294 0.554540 -0.082571
C107  C     C_R   0.130974 0.369824 0.554673 -0.079858
C108  C     C_R   0.869097 0.630275 0.554540 -0.078904
C109  C     C_R   0.368998 0.869850 0.554673 -0.083585
C110  C     C_R   0.630905 0.130273 0.554540 -0.082557
C111  C     C_R   0.630979 0.869829 0.554673 -0.079859
C112  C     C_R   0.369092 0.130270 0.554539 -0.078901
H41   H     H_    0.857611 0.358436 0.597050 0.153650
H42   H     H_    0.142361 0.641640 0.596896 0.153196
H43   H     H_    0.142378 0.358426 0.597050 0.158474
H44   H     H_    0.857604 0.641605 0.596895 0.158057
H45   H     H_    0.357574 0.858473 0.597049 0.153631
H46   H     H_    0.642398 0.141603 0.596895 0.153209
H47   H     H_    0.642388 0.858436 0.597050 0.158471
H48   H     H_    0.357596 0.141596 0.596895 0.158060
C113  C     C_R   0.854114 0.354925 0.500082 0.337623
C114  C     C_R   0.145886 0.645075 0.499919 0.337645
C115  C     C_R   0.145885 0.354924 0.500082 0.332616
C116  C     C_R   0.854115 0.645076 0.499918 0.332621
C117  C     C_R   0.354114 0.854925 0.500081 0.337645
C118  C     C_R   0.645886 0.145075 0.499918 0.337622
C119  C     C_R   0.645884 0.854924 0.500082 0.332621
C120  C     C_R   0.354115 0.145076 0.499918 0.332615
C121  C     C_R   1.000000 0.500000 0.224473 0.316761
C122  C     C_R   1.000000 0.500000 0.775527 0.316757
C123  C     C_R   0.500000 0.000000 0.224473 0.316757
C124  C     C_R   0.500000 1.000000 0.775527 0.316761
C125  C     C_R   0.016761 0.468417 0.871898 0.627778
C126  C     C_R   0.983239 0.531583 0.128101 0.627777
C127  C     C_R   0.983239 0.531583 0.871875 0.628096
C128  C     C_R   0.016761 0.468417 0.128125 0.628096
C129  C     C_R   0.516761 0.968417 0.871898 0.627778
C130  C     C_R   0.483239 0.031583 0.128101 0.627778
C131  C     C_R   0.483239 0.031583 0.871875 0.628095
C132  C     C_R   0.516761 0.968417 0.128125 0.628095
N13   N     N_R   1.000000 0.500000 0.841141 -0.476210
N14   N     N_R   1.000000 0.500000 0.158859 -0.476210
N15   N     N_R   0.500000 1.000000 0.841141 -0.476210
N16   N     N_R   0.500000 0.000000 0.158859 -0.476209
C133  C     C_R   0.982740 0.532232 0.935775 -0.193587
C134  C     C_R   0.017260 0.467768 0.064225 -0.193588
C135  C     C_R   0.017260 0.467768 0.935798 -0.193272
C136  C     C_R   0.982740 0.532232 0.064201 -0.193273
C137  C     C_R   0.482740 0.032232 0.935775 -0.193588
C138  C     C_R   0.517260 0.967768 0.064225 -0.193587
C139  C     C_R   0.517260 0.967768 0.935798 -0.193273
C140  C     C_R   0.482740 0.032231 0.064201 -0.193273
C141  C     C_R   1.000000 0.500000 0.967866 -0.170459
C142  C     C_R   1.000000 0.500000 0.032134 -0.170458
C143  C     C_R   0.500000 0.000000 0.967866 -0.170459
C144  C     C_R   0.500000 0.000000 0.032134 -0.170460
C145  C     C_R   0.965590 0.564244 0.968438 0.578666
C146  C     C_R   0.034410 0.435756 0.031562 0.578667
C147  C     C_R   0.034410 0.435756 0.968485 0.578422
C148  C     C_R   0.965590 0.564244 0.031515 0.578422
C149  C     C_R   0.465589 0.064243 0.968437 0.578668
C150  C     C_R   0.534411 0.935757 0.031562 0.578667
C151  C     C_R   0.534411 0.935757 0.968485 0.578422
C152  C     C_R   0.465589 0.064243 0.031515 0.578422
O33   O     O_2   0.032527 0.437493 0.840708 -0.440244
O34   O     O_2   0.967473 0.562507 0.159292 -0.440244
O35   O     O_2   0.967473 0.562507 0.840662 -0.439029
O36   O     O_2   0.032527 0.437493 0.159338 -0.439025
O37   O     O_2   0.532527 0.937493 0.840708 -0.440244
O38   O     O_2   0.467473 0.062507 0.159292 -0.440245
O39   O     O_2   0.467473 0.062507 0.840662 -0.439026
O40   O     O_2   0.532527 0.937493 0.159338 -0.439029
C153  C     C_R   0.036263 0.499999 0.257026 -0.204946
C154  C     C_R   0.963737 0.500001 0.742973 -0.204944
C155  C     C_R   0.963737 0.500002 0.257026 -0.204673
C156  C     C_R   0.036263 0.499998 0.742974 -0.204676
C157  C     C_R   0.536263 0.999999 0.257026 -0.204943
C158  C     C_R   0.463737 0.000001 0.742973 -0.204946
C159  C     C_R   0.463736 0.000002 0.257026 -0.204676
C160  C     C_R   0.536263 0.999998 0.742974 -0.204673
H49   H     H_    0.064805 0.500183 0.233523 0.162333
H50   H     H_    0.935195 0.499817 0.766477 0.162338
H51   H     H_    0.935195 0.499817 0.233523 0.162370
H52   H     H_    0.064805 0.500182 0.766477 0.162374
H53   H     H_    0.564805 0.000184 0.233523 0.162339
H54   H     H_    0.435195 0.999816 0.766477 0.162333
H55   H     H_    0.435194 0.999817 0.233523 0.162374
H56   H     H_    0.564805 0.000183 0.766477 0.162371
I1    I     I_    0.307362 0.631641 0.427090 -0.160930
I2    I     I_    0.692685 0.368313 0.573159 -0.160941
I3    I     I_    0.692686 0.631686 0.426844 -0.152151
I4    I     I_    0.307303 0.368304 0.573212 -0.152137
I5    I     I_    0.807315 0.131687 0.426841 -0.160941
I6    I     I_    0.192638 0.868359 0.572910 -0.160930
I7    I     I_    0.192696 0.131696 0.426788 -0.152137
I8    I     I_    0.807314 0.868314 0.573156 -0.152151
F1    F     F_    0.948556 0.595937 0.939730 -0.547087
F2    F     F_    0.051444 0.404063 0.060270 -0.547085
F3    F     F_    0.051444 0.404063 0.939801 -0.547545
F4    F     F_    0.948556 0.595937 0.060199 -0.547545
F5    F     F_    0.448555 0.095936 0.939730 -0.547086
F6    F     F_    0.551445 0.904064 0.060270 -0.547087
F7    F     F_    0.551445 0.904064 0.939801 -0.547546
F8    F     F_    0.448555 0.095936 0.060199 -0.547545

loop_
_geom_bond_atom_site_label_1
_geom_bond_atom_site_label_2
_geom_bond_distance
_ccdc_geom_bond_type
C78   H22   1.082869 S    
C17   O17   1.350127 S    
C48   C56   1.407442 A    
C151  F7    1.358044 S    
C121  C155  1.405199 A    
C108  C116  1.400374 A    
O12   C13   1.287069 A    
C38   C62   1.421372 A    
C121  N14   1.456186 S    
C122  C156  1.405199 A    
C29   C37   1.414836 A    
C62   I6    2.134709 S    
N12   C119  1.435077 S    
C109  H45   1.082872 S    
Cu3   Cu4   2.644091 S    
C102  C110  1.394250 A    
C44   C47   1.416355 A    
C64   C68   1.393680 A    
C123  N16   1.456189 S    
C124  C158  1.405199 A    
C76   H20   1.082870 S    
C31   C39   1.414837 A    
O4    C9    1.287069 A    
O1    Cu1   1.944603 S    
O15   C16   1.287041 A    
C34   C58   1.421366 A    
C99   C107  1.394191 A    
O16   C15   1.287041 A    
C33   C57   1.421372 A    
C85   C93   1.405760 A    
C98   C106  1.394255 A    
C59   I3    2.134700 S    
C75   H19   1.082860 S    
C129  N15   1.373459 A    
C97   C105  1.394193 A    
C40   C64   1.421367 A    
C42   C45   1.416355 A    
C123  C159  1.405199 A    
C73   H17   1.082860 S    
C30   C38   1.414838 A    
C78   C86   1.394191 A    
C2    C154  1.404924 A    
C83   C91   1.405756 A    
C55   C72   1.399618 A    
O16   Cu3   1.944605 S    
C4    H4    1.081713 S    
C21   O21   1.350118 S    
C107  H43   1.082871 S    
C80   C88   1.394191 A    
O3    Cu1   1.944533 S    
C74   C114  1.400324 A    
C143  C144  1.426303 A    
C26   C34   1.414834 A    
C138  C144  1.411557 A    
C140  C144  1.411553 A    
C97   H33   1.083022 S    
N10   C30   1.368541 A    
Cu4   N3    1.986510 S    
C66   H10   1.083233 S    
C141  C142  1.426303 A    
C136  C142  1.411554 A    
C135  C147  1.411233 A    
C128  C134  1.418401 A    
C90   C98   1.405759 A    
C135  C141  1.411556 A    
C127  C133  1.418399 A    
C57   I1    2.134709 S    
C5    C157  1.404924 A    
C46   C54   1.407448 A    
C130  C140  1.418400 A    
N7    C27   1.368544 A    
O5    C11   1.287070 A    
C45   C53   1.407441 A    
C18   C50   1.399597 A    
O6    C12   1.287070 A    
C132  O40   1.348593 S    
C134  C146  1.411231 A    
O11   C14   1.287069 A    
C94   C102  1.405755 A    
C104  C112  1.394248 A    
C4    N2    1.364231 A    
C47   C55   1.407442 A    
C49   C66   1.399624 A    
C13   C95   1.472063 S    
O10   Cu4   1.944603 S    
C26   O26   1.345700 S    
C93   C101  1.405761 A    
C59   C71   1.393680 A    
C112  C120  1.400371 A    
C25   O25   1.345707 S    
N11   C120  1.435079 S    
O12   Cu4   1.944533 S    
C140  C152  1.411232 A    
C20   N8    1.364850 A    
C11   C89   1.472063 S    
C153  H49   1.082592 S    
C41   C46   1.416358 A    
C100  C108  1.394250 A    
O9    C13   1.287039 A    
C53   C70   1.399617 A    
O8    Cu1   1.944605 S    
C130  O38   1.348591 S    
C19   C51   1.399602 A    
C92   C100  1.405758 A    
C155  H51   1.082591 S    
C43   C48   1.416357 A    
C80   H24   1.082871 S    
C37   C45   1.420953 A    
C112  H48   1.082862 S    
C87   C95   1.405759 A    
C39   C47   1.420953 A    
C138  C150  1.411232 A    
C7    C159  1.404924 A    
O1    C9    1.287039 A    
Cu1   N2    1.986510 S    
C88   C96   1.405760 A    
C39   C63   1.421364 A    
C9    C91   1.472063 S    
C23   N11   1.364850 A    
C101  H37   1.083023 S    
C58   C70   1.393678 A    
C34   C42   1.420953 A    
C129  O37   1.348589 S    
C81   C89   1.405754 A    
Cu3   N4    1.986510 S    
C2    N2    1.364234 A    
C89   C97   1.405758 A    
C137  C149  1.411231 A    
C71   H15   1.083225 S    
N6    C26   1.368539 A    
C102  H38   1.083022 S    
C24   O24   1.350124 S    
C125  O33   1.348593 S    
C20   O20   1.350121 S    
C76   C84   1.394191 A    
C61   C65   1.393678 A    
C157  H53   1.082592 S    
C56   C71   1.399618 A    
O4    Cu2   1.944533 S    
C36   C44   1.420954 A    
C88   H32   1.083026 S    
C121  C153  1.405199 A    
C72   H16   1.083225 S    
C1    C153  1.404924 A    
C139  C151  1.411232 A    
C18   N6    1.364850 A    
C76   C116  1.400326 A    
C77   C117  1.400366 A    
C99   H35   1.083024 S    
C7    N3    1.364234 A    
C78   C118  1.400323 A    
O13   Cu4   1.944536 S    
C23   C55   1.399601 A    
C111  H47   1.082872 S    
C58   I2    2.134695 S    
C25   C33   1.414838 A    
C85   H29   1.083022 S    
O14   Cu3   1.944531 S    
C80   C120  1.400327 A    
C150  F6    1.358046 S    
C137  C143  1.411554 A    
C146  C147  1.399893 A    
C65   H9    1.083223 S    
C31   O31   1.345703 S    
C83   H27   1.083023 S    
C150  C151  1.399891 A    
C68   H12   1.083226 S    
C3    C155  1.404924 A    
C125  N13   1.373456 A    
C84   C92   1.405762 A    
C128  O36   1.348591 S    
C19   O19   1.350123 S    
O7    C12   1.287041 A    
C8    C160  1.404924 A    
C73   C113  1.400369 A    
C152  F8    1.358044 S    
C8    N4    1.364231 A    
C122  N13   1.456189 S    
C107  C115  1.400327 A    
C127  N13   1.373459 A    
C128  N14   1.373459 A    
C110  H46   1.082862 S    
C106  C114  1.400367 A    
C57   C69   1.393681 A    
C108  H44   1.082861 S    
C6    C158  1.404924 A    
C52   C67   1.399620 A    
C105  C113  1.400323 A    
C136  C148  1.411233 A    
C75   C83   1.394250 A    
C159  H55   1.082591 S    
O5    Cu2   1.944536 S    
C160  H56   1.082591 S    
C24   N12   1.364853 A    
Cu1   Cu2   2.644091 S    
C126  O34   1.348592 S    
C73   C81   1.394250 A    
C63   I7    2.134698 S    
Cu2   N1    1.986510 S    
C1    H1    1.081712 S    
C28   C36   1.414834 A    
C122  C154  1.405199 A    
N8    C28   1.368541 A    
N11   C31   1.368541 A    
C100  H36   1.083025 S    
C3    H3    1.081713 S    
C33   C41   1.420962 A    
C5    H5    1.081712 S    
C28   O28   1.345703 S    
C77   C85   1.394250 A    
C8    H8    1.081713 S    
C32   O32   1.345703 S    
C6    N4    1.364234 A    
C60   C72   1.393680 A    
C22   O22   1.350129 S    
C129  C139  1.418402 A    
O7    Cu2   1.944601 S    
C111  C119  1.400326 A    
O10   C14   1.287039 A    
C146  F2    1.358047 S    
C106  H42   1.082862 S    
C27   C35   1.414834 A    
N9    C118  1.435077 S    
C21   N9    1.364851 A    
C154  H50   1.082592 S    
C110  C118  1.400368 A    
O15   Cu4   1.944601 S    
C132  N16   1.373456 A    
C133  C145  1.411232 A    
C145  F1    1.358047 S    
N7    C116  1.435077 S    
C86   H30   1.083021 S    
C147  F3    1.358045 S    
C148  F4    1.358047 S    
C15   C93   1.472072 S    
N6    C113  1.435077 S    
N9    C29   1.368541 A    
C96   C104  1.405757 A    
C10   C92   1.472063 S    
C5    N3    1.364231 A    
N5    C114  1.435072 S    
C149  C152  1.399893 A    
C17   C49   1.399602 A    
C79   H23   1.082863 S    
C124  N15   1.456186 S    
O2    Cu2   1.944603 S    
C123  C157  1.405199 A    
C95   C103  1.405764 A    
C27   O27   1.345701 S    
C51   C68   1.399621 A    
C82   H26   1.083023 S    
C124  C160  1.405199 A    
C50   C65   1.399620 A    
C1    N1    1.364231 A    
C86   C94   1.405761 A    
O2    C10   1.287039 A    
C17   N5    1.364854 A    
C139  C143  1.411555 A    
C3    N1    1.364234 A    
C79   C87   1.394250 A    
C40   C48   1.420955 A    
C103  H39   1.083025 S    
C131  O39   1.348591 S    
C36   C60   1.421367 A    
O3    C10   1.287069 A    
C43   C51   1.407444 A    
C77   H21   1.082865 S    
C54   C69   1.399624 A    
C42   C50   1.407440 A    
O6    Cu1   1.944531 S    
C61   I5    2.134699 S    
C74   H18   1.082872 S    
C75   C115  1.400371 A    
C91   C99   1.405759 A    
C67   H11   1.083225 S    
O11   Cu3   1.944533 S    
C132  C138  1.418399 A    
C2    H2    1.081712 S    
C41   C49   1.407448 A    
C32   C40   1.414836 A    
C4    C156  1.404924 A    
C84   H28   1.083027 S    
C134  C142  1.411558 A    
C64   I8    2.134701 S    
C82   C90   1.405764 A    
C30   O30   1.345707 S    
C104  H40   1.083024 S    
C6    H6    1.081712 S    
C105  H41   1.082868 S    
C16   C94   1.472063 S    
C158  H54   1.082592 S    
C130  N16   1.373459 A    
C125  C135  1.418402 A    
C133  C141  1.411555 A    
N10   C117  1.435072 S    
C87   H31   1.083023 S    
C37   C61   1.421362 A    
C62   C66   1.393681 A    
C24   C56   1.399599 A    
C35   C43   1.420954 A    
N12   C32   1.368544 A    
C69   H13   1.083232 S    
C35   C59   1.421368 A    
O13   C15   1.287070 A    
N8    C115  1.435079 S    
C103  C111  1.394191 A    
C22   C54   1.399602 A    
C70   H14   1.083227 S    
C79   C119  1.400374 A    
C29   O29   1.345698 S    
C98   H34   1.083023 S    
C127  O35   1.348591 S    
C23   O23   1.350121 S    
C109  C117  1.400320 A    
C19   N7    1.364851 A    
C126  N14   1.373459 A    
C126  C136  1.418402 A    
C156  H52   1.082591 S    
C38   C46   1.420962 A    
C145  C148  1.399891 A    
C81   H25   1.083020 S    
O9    Cu3   1.944603 S    
O8    C11   1.287041 A    
C149  F5    1.358046 S    
C22   N10   1.364853 A    
C63   C67   1.393680 A    
C44   C52   1.407441 A    
C18   O18   1.350121 S    
C74   C82   1.394191 A    
C7    H7    1.081713 S    
O14   C16   1.287070 A    
C21   C53   1.399600 A    
C14   C96   1.472063 S    
C20   C52   1.399597 A    
C60   I4    2.134697 S    
C12   C90   1.472072 S    
C131  N15   1.373458 A    
N5    C25   1.368542 A    
C101  C109  1.394195 A    
C131  C137  1.418401 A    
