data_mof_unit_7532.cif
_audit_creation_date              2012-12-11T17:36:23-0500
_audit_creation_method            fapswitch 2.2
_symmetry_space_group_name_H-M    P1
_symmetry_Int_Tables_number       1
_space_group_crystal_system       triclinic
_cell_length_a                    25.989519
_cell_length_b                    6.914917
_cell_length_c                    21.565599
_cell_angle_alpha                 90.362364
_cell_angle_beta                  96.133972
_cell_angle_gamma                 90.162345
_cell_volume                      3853.37933807

loop_
_atom_site_label
_atom_site_type_symbol
_atom_type_description
_atom_site_fract_x
_atom_site_fract_y
_atom_site_fract_z
_atom_type_partial_charge
O1    O     O_R   0.208650 0.594520 0.175450 -0.522297
O2    O     O_R   0.791350 0.405480 0.824550 -0.548927
O3    O     O_R   0.291350 0.094520 0.324550 -0.547725
O4    O     O_R   0.708650 0.905480 0.675450 -0.550998
O5    O     O_R   0.192980 0.260780 0.300160 -0.519910
O6    O     O_R   0.807020 0.739220 0.699840 -0.519026
O7    O     O_R   0.307020 0.760780 0.199840 -0.502662
O8    O     O_R   0.692980 0.239220 0.800160 -0.517611
C1    C     C_R   0.179937 0.433417 0.319974 0.807282
C2    C     C_R   0.819493 0.566574 0.679385 0.814865
C3    C     C_R   0.322283 0.933299 0.182826 0.780214
C4    C     C_R   0.679555 0.066797 0.819572 0.807040
O9    O     O_R   0.202550 0.264660 0.174420 -0.537790
O10   O     O_R   0.797450 0.735340 0.825580 -0.531656
O11   O     O_R   0.297450 0.764660 0.325580 -0.548048
O12   O     O_R   0.702550 0.235340 0.674420 -0.525224
O13   O     O_R   0.300990 0.096480 0.197920 -0.548278
O14   O     O_R   0.699010 0.903520 0.802080 -0.547609
O15   O     O_R   0.199010 0.596480 0.302080 -0.540277
O16   O     O_R   0.800990 0.403520 0.697920 -0.547329
C5    C     C_R   0.191071 0.432686 0.150922 0.804122
C6    C     C_R   0.809353 0.566783 0.848764 0.787173
C7    C     C_R   0.309123 0.934274 0.349058 0.743728
C8    C     C_R   0.691248 0.065249 0.650822 0.781791
O17   O     O_3   0.282290 0.427760 0.257860 -0.386998
O18   O     O_3   0.717710 0.572240 0.742140 -0.371388
O19   O     O_3   0.217710 0.927760 0.242140 -0.358825
O20   O     O_3   0.782290 0.072240 0.757860 -0.372315
V1    V     V_3+5 0.244010 0.152080 0.248540 1.494806
V2    V     V_3+5 0.755990 0.847920 0.751460 1.495588
V3    V     V_3+5 0.255990 0.652080 0.251460 1.507787
V4    V     V_3+5 0.744010 0.347920 0.748540 1.506311
C9    C     C_R   0.658078 0.047966 0.590871 -0.130433
C10   C     C_R   0.343167 0.944035 0.408835 -0.113248
C11   C     C_R   0.843404 0.557333 0.908250 -0.129448
C12   C     C_R   0.157460 0.434988 0.091087 -0.137520
C13   C     C_R   0.650462 0.952297 0.482426 -0.164671
C14   C     C_R   0.351712 0.945723 0.521516 -0.161806
C15   C     C_R   0.851581 0.543252 0.020645 -0.160199
C16   C     C_R   0.145674 0.349045 0.981839 -0.160777
C17   C     C_R   0.680662 0.990774 0.538117 -0.286183
C18   C     C_R   0.321157 0.934858 0.464741 -0.287148
C19   C     C_R   0.821014 0.553572 0.963925 -0.292299
C20   C     C_R   0.176902 0.361602 0.038151 -0.260578
C21   C     C_R   0.603952 0.064356 0.587678 0.558406
C22   C     C_R   0.397238 0.961064 0.410332 0.531249
C23   C     C_R   0.897600 0.547090 0.909593 0.557942
C24   C     C_R   0.105360 0.492516 0.087689 0.558533
C25   C     C_R   0.571477 0.004610 0.532736 -0.045749
C26   C     C_R   0.430149 0.958273 0.468214 -0.032738
C27   C     C_R   0.929841 0.517885 0.967147 -0.047670
C28   C     C_R   0.070772 0.459936 0.032051 -0.041889
C29   C     C_R   0.595873 0.956610 0.478423 0.028493
C30   C     C_R   0.406175 0.959336 0.524698 0.028674
C31   C     C_R   0.905992 0.526156 0.023729 0.030427
C32   C     C_R   0.092535 0.397020 0.977396 0.027679
C33   C     C_R   0.516076 0.988696 0.530022 0.014642
C34   C     C_R   0.485716 0.956627 0.471867 0.017578
C35   C     C_R   0.984513 0.480251 0.970490 0.016487
C36   C     C_R   0.015612 0.484606 0.029064 0.018389
C37   C     C_R   0.511610 0.906173 0.420081 -0.102676
C38   C     C_R   0.490740 0.984316 0.584501 -0.089080
C39   C     C_R   0.990259 0.492575 0.083501 -0.090733
C40   C     C_R   0.007849 0.419196 0.917775 -0.089092
C41   C     C_R   0.565697 0.907523 0.421729 0.111354
C42   C     C_R   0.436731 0.970530 0.583249 0.110081
C43   C     C_R   0.936429 0.513000 0.082250 0.111333
C44   C     C_R   0.060874 0.377560 0.919830 0.111990
H1    H     H_    0.279874 0.922566 0.464944 0.132780
H2    H     H_    0.722131 0.975666 0.539747 0.127807
H3    H     H_    0.216905 0.315795 0.040242 0.136823
H4    H     H_    0.779501 0.561594 0.963785 0.128829
H5    H     H_    0.670887 0.912464 0.443196 0.122916
H6    H     H_    0.331628 0.941651 0.562847 0.127199
H7    H     H_    0.831461 0.545692 0.061963 0.124052
H8    H     H_    0.163799 0.295630 0.942326 0.128113
H9    H     H_    0.489878 0.848274 0.379210 0.209145
H10   H     H_    0.513261 0.975110 0.628869 0.211449
H11   H     H_    0.011868 0.465308 0.127607 0.212422
H12   H     H_    0.983923 0.386208 0.875528 0.209158
C45   C     C_R   0.428845 0.795014 0.080363 0.505154
C46   C     C_R   0.550720 0.147171 0.885032 0.540210
C47   C     C_R   0.054908 0.342649 0.392733 0.540436
C48   C     C_R   0.942669 0.653328 0.602828 0.538770
C49   C     C_R   0.390015 0.779217 0.121024 0.472971
C50   C     C_R   0.592390 0.163819 0.849178 0.509942
C51   C     C_R   0.095198 0.327469 0.354813 0.504533
C52   C     C_R   0.903801 0.667410 0.642760 0.517338
C53   C     C_R   0.366062 0.946255 0.142203 -0.282562
C54   C     C_R   0.637495 0.052681 0.862448 -0.325998
C55   C     C_R   0.138998 0.448565 0.364176 -0.318252
C56   C     C_R   0.858915 0.552252 0.633318 -0.325733
C57   C     C_R   0.386364 0.126536 0.124741 0.082729
C58   C     C_R   0.640744 0.925521 0.915143 0.034772
C59   C     C_R   0.141977 0.587347 0.414249 0.045212
C60   C     C_R   0.852860 0.423558 0.580428 0.030043
C61   C     C_R   0.406082 0.129207 0.065925 -0.007728
C62   C     C_R   0.600124 0.925005 0.955315 0.070884
C63   C     C_R   0.100988 0.599707 0.453547 0.078288
C64   C     C_R   0.890183 0.426443 0.536137 0.068581
C65   C     C_R   0.435330 0.969675 0.049508 -0.126297
C66   C     C_R   0.553864 0.027805 0.937517 -0.171847
C67   C     C_R   0.057211 0.477870 0.441569 -0.164002
C68   C     C_R   0.936518 0.532950 0.550080 -0.173977
C69   C     C_1   0.474714 0.990202 0.006507 0.085446
C70   C     C_1   0.509466 0.009981 0.973522 0.108198
C71   C     C_1   0.013987 0.493938 0.479110 0.096923
C72   C     C_1   0.978924 0.513210 0.511453 0.095589
C73   C     C_3   0.591908 0.855281 0.363506 -0.372440
C74   C     C_3   0.556417 0.814876 0.303387 -0.738242
H13   H     H_    0.532760 0.682897 0.308288 0.230358
H14   H     H_    0.530990 0.940875 0.291096 0.244922
H15   H     H_    0.580396 0.789380 0.264493 0.216723
H16   H     H_    0.617583 0.977307 0.353341 0.182755
H17   H     H_    0.616203 0.724871 0.373589 0.182643
C75   C     C_3   0.410975 0.967879 0.643949 -0.411241
C76   C     C_3   0.446620 0.985842 0.705076 -0.627545
H18   H     H_    0.473012 0.859718 0.711156 0.234189
H19   H     H_    0.469253 0.122613 0.706271 0.271124
H20   H     H_    0.422829 0.988339 0.744898 0.226991
H21   H     H_    0.383254 0.090192 0.643133 0.189759
H22   H     H_    0.388911 0.830491 0.645868 0.189427
C77   C     C_3   0.910699 0.520077 0.142951 -0.405056
C78   C     C_3   0.946435 0.511305 0.204144 -0.654955
H23   H     H_    0.966889 0.370392 0.208376 0.250355
H24   H     H_    0.974770 0.632487 0.207154 0.254889
H25   H     H_    0.922945 0.524914 0.244043 0.219349
H26   H     H_    0.888606 0.657255 0.144046 0.189074
H27   H     H_    0.883013 0.397252 0.142931 0.184607
C79   C     C_3   0.084343 0.310581 0.861125 -0.399772
C80   C     C_3   0.048140 0.302916 0.800250 -0.649422
H28   H     H_    0.017344 0.192578 0.803063 0.247165
H29   H     H_    0.030739 0.447066 0.789558 0.258099
H30   H     H_    0.070629 0.261104 0.761302 0.223413
H31   H     H_    0.116502 0.410635 0.853146 0.188313
H32   H     H_    0.100607 0.163318 0.869311 0.192019
F1    F     F_    0.416150 0.994898 0.355309 -0.755815
F2    F     F_    0.584575 0.147320 0.637401 -0.682495
F3    F     F_    0.090404 0.588276 0.137862 -0.699290
F4    F     F_    0.917728 0.580872 0.855117 -0.688237
F5    F     F_    0.459177 0.641621 0.070287 -0.720812
F6    F     F_    0.506986 0.249986 0.868619 -0.646671
F7    F     F_    0.012934 0.225252 0.381269 -0.655372
F8    F     F_    0.986721 0.758872 0.615657 -0.652013
F9    F     F_    0.376666 0.603578 0.140673 -0.715384
F10   F     F_    0.587414 0.282174 0.798887 -0.617156
F11   F     F_    0.090368 0.197711 0.306990 -0.636268
F12   F     F_    0.911474 0.786944 0.693139 -0.619605
C81   C     C_3   0.423630 0.226312 0.174466 -0.314604
C82   C     C_3   0.400856 0.285006 0.233938 -0.534306
H33   H     H_    0.367406 0.381180 0.223091 0.279350
H34   H     H_    0.389004 0.155977 0.258852 0.241390
H35   H     H_    0.430537 0.364106 0.265312 0.200082
H36   H     H_    0.456662 0.127424 0.187611 0.152444
H37   H     H_    0.440864 0.357006 0.155159 0.265164
C83   C     C_3   0.685003 0.781485 0.925904 -0.338970
C84   C     C_3   0.670493 0.589922 0.892389 -0.588583
H38   H     H_    0.634274 0.530111 0.907203 0.216666
H39   H     H_    0.663945 0.608905 0.841281 0.265592
H40   H     H_    0.701748 0.482546 0.902910 0.157833
H41   H     H_    0.721265 0.840147 0.910598 0.159126
H42   H     H_    0.695869 0.751088 0.975720 0.159655
C85   C     C_3   0.188055 0.723488 0.425809 -0.366258
C86   C     C_3   0.175472 0.919399 0.395027 -0.586667
H43   H     H_    0.209186 0.018164 0.402454 0.161915
H44   H     H_    0.164851 0.901506 0.344193 0.276481
H45   H     H_    0.142482 0.989919 0.414497 0.202204
H46   H     H_    0.199697 0.742888 0.476430 0.165241
H47   H     H_    0.223324 0.661840 0.408940 0.166509
C87   C     C_3   0.810141 0.271391 0.574210 -0.342447
C88   C     C_3   0.828879 0.087033 0.608454 -0.581350
H48   H     H_    0.864690 0.032594 0.591003 0.217484
H49   H     H_    0.837980 0.112936 0.659104 0.266585
H50   H     H_    0.798922 0.972636 0.601426 0.157511
H51   H     H_    0.774253 0.325792 0.591570 0.162310
H52   H     H_    0.797436 0.232421 0.525243 0.163618
C89   C     C_3   0.397978 0.301389 0.023520 -0.230959
C90   C     C_3   0.363304 0.248738 0.964134 -0.762171
H53   H     H_    0.381715 0.136118 0.937030 0.248778
H54   H     H_    0.325262 0.194624 0.975924 0.218500
H55   H     H_    0.356755 0.379061 0.934549 0.231907
H56   H     H_    0.378648 0.419212 0.046886 0.254226
H57   H     H_    0.435729 0.354542 0.010759 0.247486
C91   C     C_3   0.606163 0.827770 0.019238 -0.315056
C92   C     C_3   0.585706 0.620036 0.017295 -0.647049
H58   H     H_    0.550654 0.604141 0.983327 0.262366
H59   H     H_    0.615956 0.518059 0.005326 0.191749
H60   H     H_    0.575323 0.579609 0.064152 0.228769
H61   H     H_    0.646391 0.833923 0.041904 0.152346
H62   H     H_    0.584923 0.911998 0.052337 0.173560
C93   C     C_3   0.103495 0.737496 0.509620 -0.291330
C94   C     C_3   0.122099 0.632103 0.569829 -0.702726
H63   H     H_    0.161440 0.572486 0.567112 0.205004
H64   H     H_    0.123646 0.734756 0.609794 0.235149
H65   H     H_    0.095307 0.512111 0.578316 0.242784
H66   H     H_    0.128763 0.864268 0.505525 0.172178
H67   H     H_    0.064951 0.802230 0.513837 0.214801
C95   C     C_3   0.880390 0.327823 0.472257 -0.307791
C96   C     C_3   0.899203 0.118540 0.472511 -0.652124
H68   H     H_    0.936173 0.102153 0.502982 0.251239
H69   H     H_    0.869544 0.019880 0.488028 0.192955
H70   H     H_    0.905722 0.074282 0.424387 0.236661
H71   H     H_    0.839240 0.336744 0.452883 0.151255
H72   H     H_    0.900428 0.408849 0.437490 0.189685

loop_
_geom_bond_atom_site_label_1
_geom_bond_atom_site_label_2
_ccdc_geom_bond_type
O17   V3    S    
C63   C67   A    
C88   H48   S    
O1    C5    A    
C84   H38   S    
C51   C55   A    
O19   V1    S    
C9    C21   A    
O3    C7    A    
C79   H31   S    
C10   C18   A    
C64   C68   A    
C46   F6    S    
C80   H30   S    
C11   C23   A    
C1    C55   S    
C90   H53   S    
C92   H58   S    
C25   C33   A    
C77   C78   S    
C5    C12   S    
C39   H11   S    
C75   C76   S    
O7    C3    A    
C6    C11   S    
C88   H49   S    
C35   C40   A    
C19   H4    S    
C75   H22   S    
C36   C39   A    
C40   C44   A    
O9    V1    S    
C86   H43   S    
C49   F9    S    
C14   C18   A    
C76   H19   S    
O16   V4    S    
O4    C8    A    
C59   C63   A    
C90   H54   S    
C92   H59   S    
C87   C88   S    
C48   F8    S    
C89   H56   S    
O1    V3    S    
O13   V1    S    
C91   C92   S    
C20   H3    S    
O2    V4    S    
O3    V1    S    
C93   H66   S    
C28   C36   A    
C74   H13   S    
C85   C86   S    
C57   C81   S    
C96   H68   S    
C1    O15   A    
C62   C91   S    
C15   C31   A    
C52   C56   A    
C37   H9    S    
C16   C32   A    
C82   H35   S    
C23   F4    S    
O2    C6    A    
C96   H70   S    
C71   C72   T    
C66   C70   S    
C95   C96   S    
C10   C22   A    
C15   H7    S    
C11   C19   A    
C27   C31   A    
C83   H42   S    
C45   C49   A    
C13   C29   A    
C34   C37   A    
O11   C7    A    
O15   V3    S    
C35   C36   A    
O12   C8    A    
C60   C87   S    
C77   H27   S    
O17   V1    S    
C17   H2    S    
C40   H12   S    
O10   V2    S    
C50   F10   S    
C54   C58   A    
O5    V1    S    
C87   H51   S    
C56   C60   A    
C65   C69   S    
C88   H50   S    
C39   C43   A    
O7    V3    S    
C75   H21   S    
C38   C42   A    
O19   V3    S    
C93   C94   S    
O8    V4    S    
C94   H65   S    
C93   H67   S    
O20   V4    S    
C50   C54   A    
C76   H20   S    
C2    O16   A    
C49   C53   A    
O18   V4    S    
C92   H60   S    
C23   C27   A    
C33   C38   A    
C32   C44   A    
C55   C59   A    
C53   C57   A    
O4    V2    S    
C16   H8    S    
C26   C34   A    
C81   H36   S    
O5    C1    A    
C59   C85   S    
C3    C53   S    
C61   C89   S    
C14   C30   A    
C24   C28   A    
O8    C4    A    
C7    C10   S    
C45   F5    S    
C21   C25   A    
C46   C66   A    
O9    C5    A    
C26   C30   A    
C44   C79   S    
C74   H15   S    
C41   C73   S    
C81   H37   S    
C47   C67   A    
C73   H16   S    
C22   F1    S    
O14   V2    S    
C63   C93   S    
C58   C83   S    
O6    V2    S    
C83   H41   S    
O18   V2    S    
C84   H40   S    
C78   H25   S    
C95   H72   S    
C48   C68   A    
C82   H34   S    
C12   C20   A    
C27   C35   A    
C80   H28   S    
C57   C61   A    
C68   C72   S    
C29   C41   A    
C78   H24   S    
C14   H6    S    
C4    C54   S    
C13   H5    S    
C3    O13   A    
C24   F3    S    
C91   H61   S    
C38   H10   S    
C86   H45   S    
C79   H32   S    
C48   C52   A    
C80   H29   S    
C43   C77   S    
C47   C51   A    
O6    C2    A    
C31   C43   A    
O11   V3    S    
C30   C42   A    
O12   V4    S    
C69   C70   T    
C22   C26   A    
C76   H18   S    
C8    C9    S    
C46   C50   A    
C67   C71   S    
C9    C17   A    
C94   H63   S    
O10   C6    A    
C86   H44   S    
C79   C80   S    
C42   C75   S    
C85   H46   S    
C62   C66   A    
C81   C82   S    
C47   F7    S    
C52   F12   S    
C77   H26   S    
C25   C29   A    
C60   C64   A    
O20   V2    S    
C21   F2    S    
C12   C24   A    
C91   H62   S    
C18   H1    S    
C13   C17   A    
C85   H47   S    
C74   H14   S    
C90   H55   S    
C73   H17   S    
C2    C56   S    
C37   C41   A    
C16   C20   A    
C87   H52   S    
C83   C84   S    
C15   C19   A    
C84   H39   S    
C89   C90   S    
C51   F11   S    
C4    O14   A    
C95   H71   S    
C96   H69   S    
C58   C62   A    
C82   H33   S    
C45   C65   A    
C89   H57   S    
C33   C34   A    
C73   C74   S    
C61   C65   A    
C28   C32   A    
C94   H64   S    
C78   H23   S    
C64   C95   S    
