data_mof_unit_42993.cif
_audit_creation_date              2013-03-05T15:55:19-0500
_audit_creation_method            fapswitch 2.2
_symmetry_space_group_name_H-M    P1
_symmetry_Int_Tables_number       1
_space_group_crystal_system       triclinic
_cell_length_a                    27.717981
_cell_length_b                    10.675969
_cell_length_c                    9.876501
_cell_angle_alpha                 89.75623
_cell_angle_beta                  89.837959
_cell_angle_gamma                 91.567869
_cell_volume                      2921.48439305

loop_
_atom_site_label
_atom_site_type_symbol
_atom_site_description
_atom_site_fract_x
_atom_site_fract_y
_atom_site_fract_z
_atom_type_partial_charge
O1    O     O_R   0.500000 0.316780 0.614690 -0.651701
O2    O     O_R   0.500000 0.316750 0.385360 -0.641249
C1    C     C_R   0.503414 0.259718 0.500934 0.866870
O3    O     O_R   0.428760 0.500030 0.614650 -0.632016
O4    O     O_R   0.428750 0.500010 0.385320 -0.645683
C2    C     C_R   0.406032 0.498670 0.500082 0.857580
Zn1   Zn    Zn3+2 0.500000 0.500020 0.653130 0.943185
Zn2   Zn    Zn3+2 0.500000 0.499980 0.346870 0.948087
O5    O     O_R   0.500000 0.683250 0.614640 -0.615993
O6    O     O_R   0.500000 0.683220 0.385310 -0.615507
O7    O     O_R   0.571250 0.499990 0.614680 -0.622233
O8    O     O_R   0.571240 0.499970 0.385350 -0.611526
C3    C     C_R   0.493726 0.738498 0.500500 0.905890
C4    C     C_R   0.593944 0.500665 0.499814 0.903278
C5    C     C_R   0.175643 0.386048 0.513434 0.521134
O9    O     O_2   0.198772 0.277757 0.532905 -0.534186
N1    N     N_R   0.201493 0.495207 0.496471 -0.363419
C6    C     C_R   0.179934 0.606936 0.474741 0.533286
C7    C     C_R   0.277307 0.482671 0.620720 -0.094775
C8    C     C_R   0.327466 0.484052 0.621878 -0.200600
C9    C     C_R   0.328376 0.503225 0.376403 -0.214514
C10   C     C_R   0.278300 0.501781 0.375641 -0.094318
C11   C     C_R   0.252830 0.492270 0.497691 0.312225
C12   C     C_R   0.101748 0.499794 0.488492 -0.083935
C13   C     C_R   0.125342 0.386081 0.509667 -0.031688
C14   C     C_R   0.098609 0.273793 0.520690 -0.153461
C15   C     C_R   0.129225 0.612617 0.469074 -0.086563
C16   C     C_R   0.353322 0.495443 0.499680 -0.037975
H1    H     H_    0.347455 0.511284 0.280725 0.169668
H2    H     H_    0.259180 0.508881 0.280511 0.142875
H3    H     H_    0.116841 0.185409 0.527286 0.213956
C17   C     C_R   0.646621 0.502697 0.499204 -0.082259
C18   C     C_R   0.973102 0.395235 0.534266 0.039006
C19   C     C_R   0.976012 0.610947 0.445371 0.059020
C20   C     C_R   0.949313 0.504078 0.491289 0.084052
C21   C     C_R   0.945785 0.300714 0.602287 -0.197680
C22   C     C_R   0.895823 0.304150 0.608653 -0.119895
C23   C     C_R   0.871683 0.404717 0.551968 -0.024979
C24   C     C_R   0.898369 0.506477 0.495915 -0.054318
C25   C     C_R   0.874109 0.610843 0.445284 -0.028229
C26   C     C_R   0.823656 0.609946 0.448369 0.547590
N2    N     N_R   0.798567 0.508304 0.499271 -0.352756
C27   C     C_R   0.821304 0.407417 0.552217 0.538482
C28   C     C_R   0.721948 0.481490 0.377604 0.215856
C29   C     C_R   0.671770 0.479988 0.378648 -0.225896
C30   C     C_R   0.672153 0.527710 0.618945 -0.199964
C31   C     C_R   0.722250 0.530431 0.617892 -0.117741
C32   C     C_R   0.747182 0.507449 0.497722 0.260420
O10   O     O_2   0.795129 0.309806 0.603653 -0.534868
C33   C     C_R   0.023642 0.387585 0.514361 -0.002328
C34   C     C_R   0.050671 0.500038 0.486527 0.067666
C35   C     C_R   0.026944 0.612441 0.455799 0.014992
C36   C     C_R   0.048484 0.272651 0.518470 -0.029224
H4    H     H_    0.652569 0.459640 0.285602 0.180703
H5    H     H_    0.876250 0.227982 0.659000 0.197329
H6    H     H_    0.962560 0.225500 0.656308 0.163488
O11   O     O_2   0.208003 0.710920 0.459233 -0.504396
C37   C     C_R   0.104863 0.725362 0.445112 0.233100
H7    H     H_    0.345894 0.476590 0.718056 0.172357
H8    H     H_    0.257417 0.475274 0.715111 0.143178
C38   C     C_R   0.950687 0.713170 0.392006 -0.202710
C39   C     C_R   0.900593 0.712756 0.391821 -0.118528
O12   O     O_2   0.799738 0.709330 0.400777 -0.530608
C40   C     C_R   0.054796 0.723570 0.438467 -0.248862
H9    H     H_    0.968635 0.793562 0.345988 0.160213
H10   H     H_    0.653486 0.545930 0.713027 0.171644
H11   H     H_    0.882714 0.793071 0.349868 0.198160
H12   H     H_    0.741844 0.550014 0.710474 0.162989
H13   H     H_    0.038282 0.812725 0.424039 0.176300
H14   H     H_    0.499168 0.111606 0.284571 0.171305
C41   C     C_R   0.520382 0.108342 0.752993 -0.146590
H15   H     H_    0.543201 0.191934 0.757638 0.171280
C42   C     C_R   0.508537 0.049098 0.875043 -0.150893
H16   H     H_    0.520199 0.090088 0.969969 0.151454
C43   C     C_R   0.479077 0.941673 0.874903 -0.190700
H17   H     H_    0.466313 0.902743 0.970452 0.139955
C44   C     C_R   0.465899 0.885520 0.752217 0.025965
C45   C     C_R   0.484050 0.936368 0.627846 0.050027
C46   C     C_R   0.503729 0.058245 0.628415 0.082437
C47   C     C_R   0.504849 0.125071 0.503925 -0.108994
C48   C     C_R   0.497926 0.062751 0.380991 -0.207611
H18   H     H_    0.489169 0.887967 0.283801 0.169249
C49   C     C_R   0.490145 0.935698 0.380438 -0.190483
C50   C     C_R   0.485402 0.871039 0.503065 -0.131642
C51   C     C_R   0.437270 0.334212 0.141533 -0.168546
H19   H     H_    0.434645 0.329255 0.248829 0.209377
C52   C     C_R   0.406741 0.251850 0.071607 -0.200997
H20   H     H_    0.382787 0.187907 0.126649 0.165466
C53   C     C_R   0.406737 0.252005 0.931515 -0.180226
H21   H     H_    0.382842 0.188067 0.877229 0.164536
C54   C     C_R   0.437280 0.334479 0.860633 -0.151772
H22   H     H_    0.434824 0.329615 0.753374 0.206353
C55   C     C_R   0.469117 0.418249 0.928171 0.160997
C56   C     C_R   0.469121 0.418213 0.072983 0.144167
N3    N     N_R   0.499540 0.498800 0.142780 -0.143642
C57   C     C_R   0.529484 0.578701 0.070486 0.003527
H23   H     H_    0.553177 0.642255 0.871330 0.157546
C58   C     C_R   0.529361 0.578484 0.927106 -0.154160
N4    N     N_R   0.499520 0.498720 0.857170 -0.127564
I1    I     I_    0.137355 0.907308 0.415243 -0.244411
C59   C     C_1   0.427921 0.790275 0.756473 0.189487
N5    N     N_1   0.397095 0.715140 0.761337 -0.190817
C60   C     C_1   0.561681 0.664415 0.139795 0.231570
N6    N     N_1   0.587679 0.733618 0.195067 -0.184938
I2    I     I_    0.757937 0.440260 0.194118 -0.295988
C61   C     C_1   0.024770 0.151417 0.500915 0.185444
N7    N     N_1   0.005925 0.054321 0.486456 -0.208167

loop_
_geom_bond_atom_site_label_1
_geom_bond_atom_site_label_2
_geom_bond_distance
_ccdc_geom_bond_type
C52   H20   1.082764 S    
C55   C56   1.430230 A    
C26   N2    1.365994 A    
C44   C59   1.443833 S    
N3    C57   1.370792 A    
C12   C15   1.419384 A    
C41   C46   1.417144 A    
H23   C58   1.083008 S    
C44   C45   1.425672 A    
Zn1   O7    2.010040 S    
C3    C50   1.440226 S    
N1    C11   1.424245 S    
Zn1   N4    2.015193 S    
C39   H11   1.083456 S    
C21   C22   1.387598 A    
C30   H10   1.083189 S    
C51   H19   1.062989 S    
C23   C24   1.407985 A    
O7    C4    1.295529 A    
C5    C13   1.394862 A    
C61   N7    1.157489 T    
C5    O9    1.350520 S    
C18   C21   1.411559 A    
C25   C39   1.396673 A    
C5    N1    1.360718 A    
C19   C20   1.415107 A    
C42   H16   1.082780 S    
H14   C48   1.083833 S    
O5    C3    1.284529 A    
C36   C61   1.446830 S    
C2    C16   1.460504 S    
C31   C32   1.397680 A    
C57   C58   1.416119 A    
C53   C54   1.390213 A    
C55   N4    1.375458 A    
C12   C34   1.416021 A    
C14   H3    1.084299 S    
C9    C10   1.387706 A    
C42   C43   1.389553 A    
C38   C39   1.388394 A    
Zn2   N3    2.015862 S    
O3    Zn1   2.011930 S    
C1    C47   1.439301 S    
C48   C49   1.367649 A    
C33   C34   1.423009 A    
C51   C52   1.390665 A    
C37   C40   1.389094 A    
C33   C36   1.423852 A    
C34   C35   1.416289 A    
C59   N5    1.156607 T    
C37   I1    2.137554 S    
C12   C13   1.409703 A    
O3    C2    1.296572 A    
C35   C40   1.407219 A    
C54   H22   1.063114 S    
C41   C42   1.393131 A    
C45   C46   1.397069 A    
C27   O10   1.349991 S    
C8    C16   1.405016 A    
C18   C33   1.418646 A    
C28   I2    2.119790 S    
C9    H1    1.083518 S    
O6    C3    1.297320 A    
C19   C38   1.414445 A    
O1    C1    1.284804 A    
C20   C24   1.413616 A    
C43   H17   1.084055 S    
C22   C23   1.396480 A    
C21   H6    1.078816 S    
C38   H9    1.078285 S    
C54   C55   1.410219 A    
C51   C56   1.410724 A    
C6    O11   1.346028 S    
C49   C50   1.395584 A    
Zn2   O8    2.011927 S    
N1    C6    1.365103 A    
C17   C29   1.403352 A    
N2    C32   1.424177 S    
C40   H13   1.076506 S    
C8    H7    1.083451 S    
C43   C44   1.399194 A    
C25   C26   1.398460 A    
C9    C16   1.405157 A    
O8    C4    1.295366 A    
C29   H4    1.083089 S    
H18   C49   1.083911 S    
C52   C53   1.383604 A    
N2    C27   1.365636 A    
C26   O12   1.349912 S    
C14   C36   1.389328 A    
C31   H12   1.083042 S    
C24   C25   1.407783 A    
C28   C29   1.390506 A    
C7    C11   1.398081 A    
Zn1   O5    1.991166 S    
C30   C31   1.388122 A    
C10   H2    1.083419 S    
O1    Zn1   1.994349 S    
C17   C30   1.402779 A    
O2    Zn2   1.991164 S    
C6    C15   1.409773 A    
C4    C17   1.459674 S    
C47   C48   1.398166 A    
C15   C37   1.415541 A    
O4    Zn2   2.010042 S    
C7    H8    1.083207 S    
C19   C35   1.415437 A    
C7    C8    1.390075 A    
O2    C1    1.296334 A    
C13   C14   1.395634 A    
C41   H15   1.080820 S    
O4    C2    1.294897 A    
C18   C20   1.415818 A    
C56   N3    1.376567 A    
C46   C47   1.418731 A    
C22   H5    1.083390 S    
C45   C50   1.419548 A    
C23   C27   1.397480 A    
Zn2   O6    1.994349 S    
C58   N4    1.362378 A    
C57   C60   1.437535 S    
C60   N6    1.157422 T    
C10   C11   1.397134 A    
C53   H21   1.082791 S    
C28   C32   1.403674 A    
