data_mof_unit_59780.cif
_audit_creation_date              2012-12-10T18:56:29-0500
_audit_creation_method            fapswitch 2.2
_symmetry_space_group_name_H-M    P1
_symmetry_Int_Tables_number       1
_space_group_crystal_system       triclinic
_cell_length_a                    10.689813
_cell_length_b                    9.957325
_cell_length_c                    19.247786
_cell_angle_alpha                 89.034201
_cell_angle_beta                  91.482046
_cell_angle_gamma                 89.634829
_cell_volume                      2047.74788452

loop_
_atom_site_label
_atom_site_type_symbol
_atom_type_description
_atom_site_fract_x
_atom_site_fract_y
_atom_site_fract_z
_atom_type_partial_charge
C1    C     C_R   0.872345 0.499736 0.500251 -0.041655
C2    C     C_R   0.739725 0.499737 0.500503 0.925370
C3    C     C_R   0.500096 0.500947 0.366370 0.911985
C4    C     C_R   0.499902 0.499054 0.633629 0.911911
C5    C     C_R   0.066082 0.385567 0.523273 -0.015227
C6    C     C_R   0.933917 0.614432 0.476725 -0.015252
C7    C     C_R   0.937961 0.385358 0.523383 -0.188775
C8    C     C_R   0.062038 0.614641 0.476616 -0.188738
C9    C     C_R   0.614575 0.468278 0.745541 -0.075295
C10   C     C_R   0.385397 0.531827 0.254475 -0.075227
C11   C     C_R   0.609799 0.471492 0.256665 -0.012515
C12   C     C_R   0.127654 0.500263 0.499747 -0.041689
C13   C     C_R   0.390169 0.528608 0.743315 -0.012497
C14   C     C_R   0.617308 0.474072 0.818673 0.150335
C15   C     C_R   0.382661 0.526220 0.181338 0.150337
C16   C     C_R   0.608484 0.470690 0.183769 0.102689
C17   C     C_R   0.391479 0.529567 0.816210 0.102677
C18   C     C_R   0.505208 0.503329 0.853004 0.030511
C19   C     C_R   0.494754 0.497011 0.146989 0.030522
C20   C     C_R   0.586372 0.069363 0.539872 -0.020920
C21   C     C_R   0.413627 0.930636 0.460129 -0.020972
C22   C     C_R   0.415281 0.074877 0.459719 0.015710
C23   C     C_R   0.510639 0.622874 0.963981 -0.194791
C24   C     C_R   0.584719 0.925123 0.540281 0.015696
C25   C     C_R   0.501262 0.497182 0.708861 -0.219324
C26   C     C_R   0.498710 0.502846 0.291140 -0.219415
C27   C     C_2   0.681280 0.140660 0.583033 0.411159
C28   C     C_2   0.318718 0.859340 0.416969 0.411209
C29   C     C_2   0.332152 0.153215 0.411862 0.582659
C30   C     C_2   0.667846 0.846784 0.588139 0.582686
C31   C     C_2   0.729819 0.438424 0.706011 0.415990
C32   C     C_2   0.270152 0.561551 0.294029 0.415831
C33   C     C_2   0.727022 0.439111 0.296825 0.427364
C34   C     C_R   0.489295 0.377490 0.036011 -0.194752
C35   C     C_2   0.272944 0.560887 0.703135 0.427384
C36   C     C_3   0.739974 0.453872 0.859358 -0.789513
C37   C     C_3   0.260001 0.546575 0.140668 -0.789552
C38   C     C_3   0.727449 0.446728 0.143800 -0.885562
C39   C     C_3   0.272513 0.553624 0.856164 -0.885556
C40   C     C_R   0.505917 0.621314 0.035857 -0.182460
C41   C     C_R   0.494021 0.379050 0.964136 -0.182397
C42   C     C_R   0.495440 0.498621 0.071553 0.143645
C43   C     C_R   0.504498 0.501742 0.928440 0.143653
C44   C     C_R   0.260275 0.500263 0.499497 0.925349
H1    H     H_    0.116654 0.297134 0.542274 0.206284
H2    H     H_    0.337099 0.761760 0.397155 0.124202
H3    H     H_    0.366823 0.189761 0.362669 0.020744
H4    H     H_    0.633176 0.810240 0.637332 0.020758
H5    H     H_    0.742538 0.484031 0.655130 0.033459
H6    H     H_    0.257421 0.515753 0.344865 0.033543
H7    H     H_    0.782499 0.351757 0.284017 0.075903
H8    H     H_    0.217441 0.648249 0.715898 0.075912
H9    H     H_    0.813251 0.519170 0.837167 0.249330
H10   H     H_    0.734996 0.480131 0.914907 0.221369
H11   H     H_    0.769701 0.347074 0.857201 0.271909
H12   H     H_    0.883346 0.702865 0.457724 0.206269
H13   H     H_    0.186714 0.481206 0.162794 0.249315
H14   H     H_    0.230280 0.653362 0.142929 0.271927
H15   H     H_    0.264977 0.520535 0.085089 0.221381
H16   H     H_    0.813875 0.442040 0.176651 0.236999
H17   H     H_    0.719844 0.350994 0.115332 0.241359
H18   H     H_    0.741088 0.530306 0.105890 0.254885
H19   H     H_    0.186089 0.558274 0.823310 0.236986
H20   H     H_    0.258858 0.470117 0.894113 0.254890
H21   H     H_    0.280131 0.649407 0.884586 0.241361
H22   H     H_    0.890717 0.296901 0.542077 0.207280
H23   H     H_    0.109283 0.703098 0.457922 0.207305
H24   H     H_    0.518476 0.717606 0.935972 0.145190
H25   H     H_    0.481463 0.282757 0.064019 0.145173
H26   H     H_    0.511100 0.714777 0.063765 0.149843
H27   H     H_    0.488846 0.285585 0.936229 0.149838
H28   H     H_    0.662904 0.238246 0.602842 0.124143
N1    N     N_R   0.500000 0.857200 0.500000 -0.175436
N2    N     N_R   0.500000 0.142800 0.500000 -0.175430
O1    O     O_R   0.316770 0.614620 0.500000 -0.650573
O2    O     O_2   0.215839 0.908259 0.403471 -0.537678
O3    O     O_2   0.223515 0.174830 0.426436 -0.536693
O4    O     O_2   0.776483 0.825168 0.573565 -0.536695
O5    O     O_2   0.809408 0.359373 0.728349 -0.542811
O6    O     O_2   0.190580 0.640695 0.271764 -0.542814
O7    O     O_2   0.764200 0.512091 0.343121 -0.575508
O8    O     O_2   0.235794 0.487816 0.656872 -0.575522
O9    O     O_R   0.683230 0.385380 0.500000 -0.650552
O10   O     O_R   0.683230 0.614620 0.500000 -0.595476
O11   O     O_R   0.316770 0.385380 0.500000 -0.595462
O12   O     O_R   0.500030 0.614710 0.398180 -0.629686
O13   O     O_R   0.499970 0.385290 0.601820 -0.629681
O14   O     O_R   0.499970 0.614710 0.601820 -0.650906
O15   O     O_R   0.500030 0.385290 0.398180 -0.650895
O16   O     O_2   0.784155 0.091737 0.596537 -0.537715
Zn1   Zn    Zn3+2 0.500000 0.653120 0.500000 0.964684
Zn2   Zn    Zn3+2 0.500000 0.346880 0.500000 0.964701

loop_
_geom_bond_atom_site_label_1
_geom_bond_atom_site_label_2
_ccdc_geom_bond_type
C22   C29   S    
C39   H21   S    
C14   C18   A    
C2    O10   A    
C34   C42   A    
C4    C25   S    
C9    C25   A    
C4    O13   A    
C15   C19   A    
O9    Zn2   S    
C28   H2    S    
C40   H26   S    
C29   H3    S    
C30   H4    S    
C13   C35   S    
C10   C15   A    
C14   C36   S    
C24   N1    A    
C23   C40   A    
C21   N1    A    
C23   C43   A    
C27   O16   D    
C1    C2    S    
C17   C39   S    
N2    Zn2   S    
C15   C37   S    
C36   H9    S    
C35   O8    D    
C20   C24   A    
O10   Zn1   S    
C37   H14   S    
C19   C42   S    
O1    Zn1   S    
C41   H27   S    
C38   H17   S    
C10   C26   A    
C40   C42   A    
C21   C22   A    
C3    O12   A    
C41   C43   A    
C13   C25   A    
C2    O9    A    
C34   C41   A    
C31   H5    S    
O11   Zn2   S    
C1    C6    A    
C11   C33   S    
N1    Zn1   S    
C5    C12   A    
C5    C7    A    
C6    C8    A    
C11   C26   A    
C5    H1    S    
C23   H24   S    
C44   O1    A    
C9    C14   A    
C39   H20   S    
C32   O6    D    
C11   C16   A    
O14   Zn1   S    
C8    C12   A    
C17   C18   A    
C20   N2    A    
O15   Zn2   S    
C34   H25   S    
C32   H6    S    
C37   H15   S    
C38   H16   S    
C21   C28   S    
C22   N2    A    
C44   O11   A    
C28   O2    D    
C1    C7    A    
C3    C26   S    
C6    H12   S    
C31   O5    D    
C4    O14   A    
C20   C27   S    
C33   H7    S    
C39   H19   S    
C13   C17   A    
C3    O15   A    
C12   C44   S    
C36   H11   S    
C18   C43   S    
C7    H22   S    
C16   C19   A    
C24   C30   S    
C36   H10   S    
C9    C31   S    
C30   O4    D    
C10   C32   S    
C29   O3    D    
C8    H23   S    
O12   Zn1   S    
C35   H8    S    
O13   Zn2   S    
C33   O7    D    
C37   H13   S    
C27   H28   S    
C16   C38   S    
C38   H18   S    
