data_mof_unit_35187.cif
_audit_creation_date              2012-12-10T17:56:44-0500
_audit_creation_method            fapswitch 2.2
_symmetry_space_group_name_H-M    P1
_symmetry_Int_Tables_number       1
_space_group_crystal_system       triclinic
_cell_length_a                    10.887277
_cell_length_b                    9.562168
_cell_length_c                    10.85586
_cell_angle_alpha                 88.821412
_cell_angle_beta                  92.763691
_cell_angle_gamma                 89.293685
_cell_volume                      1128.50615476

loop_
_atom_site_label
_atom_site_type_symbol
_atom_type_description
_atom_site_fract_x
_atom_site_fract_y
_atom_site_fract_z
_atom_type_partial_charge
C1    C     C_R   0.262221 0.500286 0.502784 0.942384
C2    C     C_R   0.737667 0.499104 0.499038 0.941459
C3    C     C_R   0.933546 0.621546 0.473242 0.549015
C4    C     C_R   0.060256 0.623943 0.483335 0.491747
C5    C     C_R   0.419588 0.080184 0.425517 -0.004259
C6    C     C_R   0.580533 0.072620 0.575209 0.005050
C7    C     C_R   0.414862 0.932251 0.426536 -0.000939
C8    C     C_R   0.581519 0.924570 0.575743 0.092162
C9    C     C_R   0.504991 0.502461 0.261962 0.812116
C10   C     C_R   0.489799 0.499222 0.736647 0.779100
C11   C     C_R   0.489668 0.771818 0.103968 -0.100888
C12   C     C_R   0.383458 0.737389 0.869186 -0.084997
C13   C     C_R   0.437776 0.886569 0.038219 -0.143541
C14   C     C_R   0.379040 0.867891 0.923476 -0.077417
C15   C     C_R   0.445954 0.623224 0.930563 0.089535
C16   C     C_R   0.481579 0.634900 0.056322 0.093453
C17   C     C_R   0.507521 0.509159 0.126774 -0.106723
C18   C     C_R   0.476803 0.498989 0.869855 -0.097418
C19   C     C_R   0.522006 0.382544 0.065877 -0.200800
C20   C     C_R   0.512275 0.378829 0.938624 -0.187019
C21   C     C_R   0.066145 0.374226 0.528460 0.514154
C22   C     C_R   0.938691 0.373562 0.526801 0.506146
C23   C     C_R   0.871388 0.497484 0.498658 -0.510277
C24   C     C_R   0.128212 0.499828 0.505908 -0.519062
Cu1   Cu    Cu3+1 0.500000 0.640660 0.500000 1.028978
Cu2   Cu    Cu3+1 0.500000 0.359340 0.500000 1.016977
H1    H     H_    0.544138 0.286007 0.116586 0.171092
H2    H     H_    0.533580 0.281695 0.894100 0.173771
H3    H     H_    0.538782 0.794727 0.189474 0.178621
H4    H     H_    0.337993 0.726999 0.779095 0.160799
H5    H     H_    0.441638 0.989765 0.077362 0.129949
H6    H     H_    0.334390 0.955666 0.874341 0.159309
H7    H     H_    0.356417 0.142881 0.366606 0.170402
H8    H     H_    0.644148 0.127853 0.635991 0.164258
N1    N     N_R   0.500000 0.852070 0.500000 -0.239520
N2    N     N_R   0.500000 0.147940 0.500000 -0.188935
O1    O     O_R   0.319640 0.618740 0.499990 -0.527957
O2    O     O_R   0.680360 0.618740 0.500010 -0.533301
O3    O     O_R   0.319620 0.381170 0.499990 -0.532587
O4    O     O_R   0.680380 0.381170 0.500010 -0.535477
O5    O     O_R   0.500000 0.618810 0.319650 -0.561776
O6    O     O_R   0.500000 0.618810 0.680350 -0.589257
O7    O     O_R   0.499970 0.381240 0.319640 -0.602985
O8    O     O_R   0.500030 0.381240 0.680360 -0.590670
F1    F     F_    0.128016 0.252254 0.555132 -0.562969
F2    F     F_    0.882039 0.251606 0.553505 -0.573065
F3    F     F_    0.872593 0.740906 0.435902 -0.548071
F4    F     F_    0.115127 0.748970 0.471760 -0.566256
C25   C     C_2   0.306795 0.877670 0.352422 0.951627
O9    O     O_2   0.213525 0.950577 0.339531 -0.505658
O10   O     O_R   0.308964 0.751363 0.291707 -0.730839
H9    H     H_    0.229389 0.731808 0.243015 0.337274
C26   C     C_2   0.668599 0.854138 0.665022 0.895795
O11   O     O_2   0.775123 0.835147 0.638697 -0.491007
O12   O     O_R   0.633328 0.825416 0.784694 -0.774130
H10   H     H_    0.702050 0.781019 0.839078 0.332629

loop_
_geom_bond_atom_site_label_1
_geom_bond_atom_site_label_2
_ccdc_geom_bond_type
Cu1   O6    S    
C8    C26   S    
C15   C18   A    
O12   H10   S    
C13   C14   A    
Cu1   O2    S    
C10   O6    A    
C19   H1    S    
C11   C16   A    
C2    O2    A    
C9    O5    A    
C19   C20   A    
C1    C24   S    
C12   C15   A    
C1    O1    A    
Cu1   O1    S    
C12   C14   A    
Cu2   O8    S    
Cu1   O5    S    
C26   O11   D    
C11   H3    S    
C11   C13   A    
Cu2   O4    S    
C7    N1    A    
Cu1   N1    S    
C3    F3    S    
C9    C17   S    
C22   F2    S    
C10   C18   S    
Cu2   O7    S    
C21   F1    S    
C26   O12   S    
C4    C24   A    
Cu2   O3    S    
C9    O7    A    
C15   C16   A    
C1    O3    A    
C10   O8    A    
O10   H9    S    
C5    N2    A    
C2    O4    A    
C14   H6    S    
C7    C25   S    
C18   C20   A    
C25   O9    D    
C4    F4    S    
C21   C24   A    
Cu2   N2    S    
C2    C23   S    
C5    C7    A    
C22   C23   A    
C17   C19   A    
C6    C8    A    
C20   H2    S    
C12   H4    S    
Cu1   Cu2   S    
C21   C22   A    
C3    C23   A    
C13   H5    S    
C3    C4    A    
C6    H8    S    
C6    N2    A    
C16   C17   A    
C25   O10   S    
C8    N1    A    
C5    H7    S    
