data_mof_unit_46115.cif
_audit_creation_date              2012-12-11T14:44:32-0500
_audit_creation_method            fapswitch 2.2
_symmetry_space_group_name_H-M    P1
_symmetry_Int_Tables_number       1
_space_group_crystal_system       triclinic
_cell_length_a                    19.956507
_cell_length_b                    7.223839
_cell_length_c                    19.690677
_cell_angle_alpha                 90.005601
_cell_angle_beta                  98.354184
_cell_angle_gamma                 90.008569
_cell_volume                      2808.53752111

loop_
_atom_site_label
_atom_site_type_symbol
_atom_type_description
_atom_site_fract_x
_atom_site_fract_y
_atom_site_fract_z
_atom_type_partial_charge
O1    O     O_R   0.673210 0.377390 0.686390 -0.535540
O2    O     O_R   0.326790 0.622610 0.313610 -0.536343
O3    O     O_R   0.826790 0.877390 0.813610 -0.535655
O4    O     O_R   0.173210 0.122610 0.186390 -0.535240
O5    O     O_R   0.810750 0.706450 0.681250 -0.540870
O6    O     O_R   0.189250 0.293550 0.318750 -0.541092
O7    O     O_R   0.689250 0.206450 0.818750 -0.541286
O8    O     O_R   0.310750 0.793550 0.181250 -0.541274
C1    C     C_R   0.831390 0.538426 0.665581 0.700311
C2    C     C_R   0.168653 0.461583 0.334460 0.700562
C3    C     C_R   0.668653 0.038411 0.834464 0.699505
C4    C     C_R   0.331396 0.961575 0.165590 0.699317
O9    O     O_R   0.672750 0.707060 0.678240 -0.538267
O10   O     O_R   0.327250 0.292940 0.321760 -0.539555
O11   O     O_R   0.827250 0.207060 0.821760 -0.539432
O12   O     O_R   0.172750 0.792940 0.178240 -0.539095
O13   O     O_R   0.687800 0.877990 0.810580 -0.539599
O14   O     O_R   0.312200 0.122010 0.189420 -0.539228
O15   O     O_R   0.812200 0.377990 0.689420 -0.539478
O16   O     O_R   0.187800 0.622010 0.310580 -0.539225
C5    C     C_R   0.648246 0.540085 0.661264 0.713811
C6    C     C_R   0.351766 0.459925 0.338674 0.713503
C7    C     C_R   0.851791 0.040123 0.838678 0.712722
C8    C     C_R   0.148212 0.959877 0.161321 0.714047
O17   O     O_3   0.755100 0.544060 0.793420 -0.376323
O18   O     O_3   0.244900 0.455940 0.206580 -0.375510
O19   O     O_3   0.744900 0.044060 0.706580 -0.375123
O20   O     O_3   0.255100 0.955940 0.293420 -0.376178
V1    V     V_3+5 0.749050 0.818670 0.741950 1.398457
V2    V     V_3+5 0.250950 0.181330 0.258050 1.393155
V3    V     V_3+5 0.750950 0.318670 0.758050 1.395166
V4    V     V_3+5 0.249050 0.681330 0.241950 1.392647
C9    C     C_R   0.087318 0.956050 0.107354 -0.148283
C10   C     C_R   0.912691 0.043952 0.892639 -0.147675
C11   C     C_R   0.412735 0.456289 0.392492 -0.149743
C12   C     C_R   0.587442 0.543875 0.607156 -0.146968
C13   C     C_R   0.006163 0.224831 0.955322 0.472189
C14   C     C_R   0.993866 0.775168 0.044656 0.471974
C15   C     C_R   0.494084 0.724903 0.544405 0.465975
C16   C     C_R   0.507626 0.277271 0.453875 0.488429
C17   C     C_R   0.952488 0.205905 0.901203 -0.242039
C18   C     C_R   0.047518 0.794106 0.098789 -0.241504
C19   C     C_R   0.547583 0.705682 0.598661 -0.239853
C20   C     C_R   0.453148 0.295554 0.400290 -0.236240
C21   C     C_R   0.928015 0.898652 0.939554 -0.204237
C22   C     C_R   0.072008 0.101334 0.060426 -0.203908
C23   C     C_R   0.572577 0.399334 0.559782 -0.202624
C24   C     C_R   0.427791 0.600871 0.439712 -0.214315
C25   C     C_R   0.980503 0.917421 0.995808 -0.017087
C26   C     C_R   0.019517 0.082576 0.004172 -0.016644
C27   C     C_R   0.520079 0.418019 0.503502 -0.017927
C28   C     C_R   0.480549 0.582353 0.495679 -0.016846
H1    H     H_    0.102865 0.225336 0.066190 0.175797
H2    H     H_    0.897166 0.774634 0.933785 0.175557
H3    H     H_    0.396623 0.724287 0.434320 0.175468
H4    H     H_    0.603778 0.275997 0.565286 0.175315
H5    H     H_    0.058746 0.678575 0.133654 0.143282
H6    H     H_    0.941227 0.321451 0.866353 0.142974
H7    H     H_    0.442080 0.181163 0.364884 0.143664
H8    H     H_    0.558796 0.821156 0.633569 0.142630
C29   C     C_R   0.578781 0.868015 0.886469 -0.218867
C30   C     C_R   0.421430 0.131811 0.113768 -0.217787
C31   C     C_R   0.921375 0.368137 0.613705 -0.219048
C32   C     C_R   0.078790 0.631958 0.386461 -0.218799
C33   C     C_R   0.618916 0.027815 0.883811 -0.079704
C34   C     C_R   0.381233 0.972099 0.116351 -0.079753
C35   C     C_R   0.881221 0.527890 0.616328 -0.079892
C36   C     C_R   0.118912 0.472168 0.383799 -0.079875
C37   C     C_R   0.610943 0.176485 0.928253 -0.224263
C38   C     C_R   0.389252 0.823380 0.071950 -0.224285
C39   C     C_R   0.889282 0.676633 0.571958 -0.223865
C40   C     C_R   0.110921 0.323499 0.428227 -0.224277
C41   C     C_R   0.564168 0.165707 0.975062 0.089855
C42   C     C_R   0.436088 0.834075 0.025208 0.089787
C43   C     C_R   0.936105 0.665914 0.525203 0.089545
C44   C     C_R   0.064140 0.334271 0.475027 0.089837
C45   C     C_R   0.523924 0.005491 0.976878 0.054963
C46   C     C_R   0.476347 0.994268 0.023411 0.054801
C47   C     C_R   0.976333 0.505703 0.523382 0.054943
C48   C     C_R   0.023911 0.494481 0.476852 0.054974
C49   C     C_R   0.531158 0.856461 0.932241 0.088231
C50   C     C_R   0.469106 0.143302 0.068046 0.088196
C51   C     C_R   0.969060 0.356656 0.567991 0.088172
C52   C     C_R   0.031166 0.643510 0.432229 0.088223
C53   C     C_R   0.556961 0.312244 0.020250 -0.188216
C54   C     C_R   0.443317 0.687500 0.980046 -0.188021
C55   C     C_R   0.943354 0.812485 0.480053 -0.188066
C56   C     C_R   0.056913 0.187736 0.520201 -0.188097
C57   C     C_R   0.509832 0.301231 0.066268 -0.196448
C58   C     C_R   0.490454 0.698498 0.934040 -0.196758
C59   C     C_R   0.990483 0.801472 0.434040 -0.196792
C60   C     C_R   0.009770 0.198732 0.566205 -0.196829
H9    H     H_    0.641654 0.299907 0.927028 0.129847
H10   H     H_    0.358515 0.699995 0.073140 0.130020
H11   H     H_    0.858588 0.800060 0.573183 0.130572
H12   H     H_    0.141621 0.200083 0.426996 0.129904
H13   H     H_    0.587624 0.435936 0.019834 0.135162
H14   H     H_    0.412652 0.563812 0.980459 0.135192
H15   H     H_    0.912711 0.936183 0.480481 0.135010
H16   H     H_    0.087567 0.064055 0.519782 0.135232
H17   H     H_    0.505042 0.416828 0.100315 0.131356
H18   H     H_    0.495249 0.582891 0.899999 0.131357
H19   H     H_    0.995291 0.917075 0.400008 0.131339
H20   H     H_    0.004961 0.083130 0.600236 0.131367
O21   O     O_3   0.040776 0.390878 0.964710 -0.529585
C61   C     C_3   0.086230 0.405167 0.916438 0.085130
H21   H     H_    0.058641 0.410578 0.863099 0.109507
H22   H     H_    0.122325 0.286506 0.921389 0.104181
C62   C     C_3   0.126712 0.583216 0.929910 -0.685308
H23   H     H_    0.155155 0.581911 0.982780 0.219199
H24   H     H_    0.163186 0.596332 0.892631 0.166351
H25   H     H_    0.092077 0.704415 0.924295 0.224539
O22   O     O_3   0.959299 0.609067 0.035278 -0.529532
C63   C     C_3   0.913451 0.595475 0.083182 0.084884
H26   H     H_    0.877192 0.713759 0.077572 0.104286
H27   H     H_    0.940665 0.591467 0.136698 0.109386
C64   C     C_3   0.873288 0.416826 0.069965 -0.685442
H28   H     H_    0.908091 0.296019 0.076282 0.224428
H29   H     H_    0.836460 0.404299 0.106909 0.166291
H30   H     H_    0.845271 0.416695 0.016909 0.219330
O23   O     O_3   0.460334 0.892103 0.534401 -0.531145
C65   C     C_3   0.414210 0.908519 0.581925 0.084063
H31   H     H_    0.441172 0.913630 0.635526 0.109836
H32   H     H_    0.377591 0.791024 0.576598 0.105010
C66   C     C_3   0.374606 0.087731 0.567757 -0.686851
H33   H     H_    0.346901 0.086837 0.514568 0.219515
H34   H     H_    0.337547 0.102376 0.604372 0.166756
H35   H     H_    0.409733 0.207870 0.573842 0.224316
O24   O     O_3   0.544755 0.114429 0.462045 -0.536219
C67   C     C_3   0.578324 0.079615 0.404695 0.086250
H36   H     H_    0.633768 0.084330 0.422236 0.131017
H37   H     H_    0.567656 0.181610 0.361883 0.085550
C68   C     C_3   0.560069 0.886569 0.376978 -0.690625
H38   H     H_    0.504666 0.876615 0.359875 0.217502
H39   H     H_    0.587018 0.857192 0.332645 0.166691
H40   H     H_    0.575181 0.781601 0.417514 0.228351
H41   H     H_    0.583908 0.752966 0.852240 0.126830
H42   H     H_    0.416288 0.246856 0.147995 0.127114
H43   H     H_    0.916200 0.253061 0.647901 0.126921
H44   H     H_    0.083932 0.747005 0.352242 0.126978

loop_
_geom_bond_atom_site_label_1
_geom_bond_atom_site_label_2
_ccdc_geom_bond_type
O17   V3    S    
C24   H3    S    
C39   C43   A    
C16   O24   S    
O1    C5    A    
C55   C59   A    
O19   V1    S    
O13   V1    S    
O3    C7    A    
C40   C44   A    
O15   V3    S    
C63   H26   S    
C5    C12   S    
C34   C38   A    
C45   C46   A    
O7    C3    A    
C6    C11   S    
C50   C57   A    
C9    C18   A    
C32   C36   A    
O9    V1    S    
C38   H10   S    
C17   H6    S    
C14   C18   A    
C37   H9    S    
C64   H29   S    
O16   V4    S    
O4    C8    A    
C39   H11   S    
C61   H21   S    
C20   H7    S    
O1    V3    S    
C12   C23   A    
O2    V4    S    
O3    V1    S    
C38   C42   A    
C32   C52   A    
C1    O15   A    
C58   H18   S    
C56   C60   A    
C2    O16   A    
O2    C6    A    
C66   H35   S    
C37   C41   A    
O14   V2    S    
C52   C59   A    
C45   C49   A    
C44   C56   A    
C16   C20   A    
C55   H15   S    
C48   C52   A    
O11   C7    A    
C15   C28   A    
C30   C50   A    
O12   C8    A    
C9    C22   A    
C10   C17   A    
O10   V2    S    
C11   C24   A    
C18   H5    S    
O5    V1    S    
C31   C35   A    
O7    V3    S    
C30   C34   A    
C27   C28   A    
O8    V4    S    
C54   C58   A    
C62   H25   S    
C14   C25   A    
C14   O22   S    
C53   C57   A    
O18   V4    S    
C23   C27   A    
C13   O21   S    
C4    C34   S    
C30   H42   S    
C31   C51   A    
C36   C40   A    
C67   H37   S    
C1    C35   S    
O5    C1    A    
C51   C60   A    
C68   H40   S    
C46   C50   A    
C63   H27   S    
C21   C25   A    
O8    C4    A    
C7    C10   S    
O9    C5    A    
C10   C21   A    
C42   C54   A    
C11   C20   A    
C41   C53   A    
O23   C65   S    
C56   H16   S    
C19   H8    S    
C49   C58   A    
C43   C55   A    
O6    V2    S    
C21   H2    S    
C68   H38   S    
C64   H30   S    
C67   C68   S    
C65   H32   S    
C66   H34   S    
O22   C63   S    
C32   H44   S    
C3    O13   A    
C57   H17   S    
C31   H43   S    
C44   C48   A    
C59   H19   S    
O6    C2    A    
C15   C19   A    
O11   V3    S    
C2    C36   S    
O12   V4    S    
C16   C27   A    
O21   C61   S    
C22   C26   A    
C8    C9    S    
C15   O23   S    
O10   C6    A    
C65   C66   S    
C62   H24   S    
C67   H36   S    
O24   C67   S    
C29   C49   A    
C62   H23   S    
C47   C51   A    
C13   C26   A    
C29   H41   S    
C66   H33   S    
C61   H22   S    
C33   C37   A    
C22   H1    S    
O20   V2    S    
C35   C39   A    
C13   C17   A    
C54   H14   S    
C63   C64   S    
C53   H13   S    
C60   H20   S    
C47   C48   A    
C40   H12   S    
C29   C33   A    
C24   C28   A    
C25   C26   A    
C42   C46   A    
C4    O14   A    
C68   H39   S    
C41   C45   A    
C12   C19   A    
C65   H31   S    
C64   H28   S    
C43   C47   A    
O4    V2    S    
C3    C33   S    
C23   H4    S    
C61   C62   S    
