data_mof_unit_21252.cif
_audit_creation_date              2012-10-26T19:46:28-0400
_audit_creation_method            fapswitch 2.2
_symmetry_space_group_name_H-M    P1
_symmetry_Int_Tables_number       1
_space_group_crystal_system       triclinic
_cell_length_a                    10.825711
_cell_length_b                    9.518491
_cell_length_c                    15.124377
_cell_angle_alpha                 90.358579
_cell_angle_beta                  90.174444
_cell_angle_gamma                 89.996449
_cell_volume                      1558.44510286

loop_
_atom_site_label
_atom_site_type_symbol
_atom_type_description
_atom_site_fract_x
_atom_site_fract_y
_atom_site_fract_z
_atom_type_partial_charge
C1    C     C_R   0.262078 0.500043 0.500818 0.626573
C2    C     C_R   0.936099 0.627359 0.495195 -0.108159
C3    C     C_R   0.936175 0.372906 0.507748 -0.135560
C4    C     C_R   0.063850 0.627360 0.495231 -0.118393
C5    C     C_R   0.389626 0.530554 0.095620 -0.105342
C6    C     C_R   0.410869 0.431169 0.906258 -0.107433
C7    C     C_R   0.587251 0.587301 0.905285 -0.104503
C8    C     C_R   0.610227 0.489559 0.094496 -0.106542
C9    C     C_R   0.387811 0.522615 0.187777 0.022499
C10   C     C_R   0.408762 0.427527 0.813973 0.026226
C11   C     C_R   0.590970 0.582186 0.813070 0.028642
C12   C     C_R   0.737936 0.500022 0.500455 0.602474
C13   C     C_R   0.612103 0.481255 0.186667 0.024819
C14   C     C_R   0.500064 0.498014 0.233812 -0.023103
C15   C     C_R   0.500340 0.502590 0.766640 -0.030947
C16   C     C_R   0.499705 0.512491 0.048934 -0.018915
C17   C     C_R   0.498652 0.511401 0.951898 -0.020689
C18   C     C_R   0.871787 0.500105 0.501227 0.043537
C19   C     C_R   0.128230 0.500110 0.501351 0.070254
C20   C     C_2   0.266556 0.537543 0.232902 0.567437
C21   C     C_2   0.306766 0.348261 0.770304 0.584225
C22   C     C_2   0.693625 0.657398 0.768466 0.572490
C23   C     C_R   0.501445 0.499485 0.330235 0.611032
C24   C     C_2   0.732529 0.453751 0.230812 0.567326
C25   C     C_R   0.500130 0.500521 0.669925 0.607518
C26   C     C_R   0.421628 0.073902 0.446139 0.026065
C27   C     C_R   0.578319 0.926093 0.553913 0.022326
C28   C     C_R   0.578335 0.074934 0.553894 0.025775
C29   C     C_R   0.421619 0.925060 0.446142 0.019655
C30   C     C_R   0.063926 0.372894 0.507706 -0.095004
Cu1   Cu    Cu3+1 0.500000 0.640660 0.500000 1.012673
Cu2   Cu    Cu3+1 0.500000 0.359340 0.500000 1.041572
H1    H     H_    0.358868 0.129602 0.402985 0.128207
H2    H     H_    0.887984 0.726779 0.490087 0.136308
H3    H     H_    0.888092 0.273480 0.512727 0.130864
H4    H     H_    0.111910 0.726776 0.490083 0.129557
H5    H     H_    0.094603 0.619452 0.230586 0.366210
H6    H     H_    0.188469 0.184675 0.775645 0.346138
H7    H     H_    0.810637 0.822437 0.769843 0.340709
H8    H     H_    0.826617 0.353363 0.326677 0.336989
H9    H     H_    0.641035 0.870412 0.597114 0.138155
H10   H     H_    0.641094 0.131445 0.597065 0.117841
H11   H     H_    0.358836 0.868532 0.402989 0.123579
H12   H     H_    0.304456 0.548721 0.059580 0.169844
H13   H     H_    0.342671 0.372390 0.943117 0.166272
H14   H     H_    0.655389 0.648528 0.941385 0.169579
H15   H     H_    0.694847 0.473232 0.057653 0.158577
H16   H     H_    0.112061 0.273474 0.512737 0.140121
N1    N     N_R   0.500000 0.852070 0.500000 -0.237578
N2    N     N_R   0.500000 0.147930 0.500000 -0.230983
O1    O     O_R   0.319640 0.618740 0.499990 -0.515411
O2    O     O_R   0.173144 0.618226 0.194215 -0.677921
O3    O     O_2   0.262158 0.389189 0.700739 -0.519207
O4    O     O_R   0.258300 0.228835 0.810958 -0.687242
O5    O     O_2   0.739956 0.609441 0.701134 -0.526638
O6    O     O_R   0.740477 0.781372 0.805652 -0.693163
O7    O     O_2   0.827487 0.502780 0.200035 -0.508306
O8    O     O_R   0.738806 0.367505 0.305046 -0.679186
O9    O     O_R   0.680360 0.381260 0.500010 -0.501334
O10   O     O_R   0.680360 0.618740 0.500010 -0.499312
O11   O     O_R   0.319640 0.381260 0.499990 -0.487806
O12   O     O_R   0.499990 0.618780 0.371460 -0.508073
O13   O     O_R   0.500010 0.381220 0.628540 -0.486199
O14   O     O_R   0.500010 0.618780 0.628540 -0.484057
O15   O     O_R   0.499990 0.381220 0.371460 -0.452018
O16   O     O_2   0.246505 0.476439 0.302168 -0.533042

loop_
_geom_bond_atom_site_label_1
_geom_bond_atom_site_label_2
_ccdc_geom_bond_type
Cu1   O10   S    
C6    C10   A    
C3    C30   A    
C2    C4    A    
C9    C14   A    
C4    H4    S    
C5    C9    A    
C8    C13   A    
C6    H13   S    
C26   C29   A    
C2    C18   A    
C1    O1    A    
C27   H9    S    
C26   H1    S    
Cu1   Cu2   S    
H6    O4    S    
C19   C30   A    
C3    H3    S    
C21   O4    S    
C2    H2    S    
C8    H15   S    
C24   O8    S    
C8    C16   A    
C29   N1    A    
C13   C14   A    
C29   H11   S    
C7    C11   A    
C12   O9    A    
Cu1   O12   S    
Cu2   N2    S    
C22   O5    D    
C11   C15   A    
Cu1   N1    S    
C21   O3    D    
C28   H10   S    
C14   C23   S    
Cu2   O11   S    
C10   C15   A    
C26   N2    A    
C10   C21   S    
C23   O15   A    
C9    C20   S    
C15   C25   S    
H8    O8    S    
C12   C18   S    
C12   O10   A    
C7    H14   S    
C27   N1    A    
C20   O16   D    
C16   C17   S    
C13   C24   S    
C3    C18   A    
C20   O2    S    
C25   O13   A    
C1    C19   S    
C30   H16   S    
C27   C28   A    
C6    C17   A    
H5    O2    S    
C24   O7    D    
C5    C16   A    
C22   O6    S    
C11   C22   S    
Cu2   O9    S    
C4    C19   A    
C28   N2    A    
Cu1   O14   S    
C5    H12   S    
C23   O12   A    
H7    O6    S    
Cu2   O13   S    
Cu1   O1    S    
Cu2   O15   S    
C7    C17   A    
C25   O14   A    
C1    O11   A    
