data_mof_unit_68284.cif
_audit_creation_date              2012-12-11T16:32:33-0500
_audit_creation_method            fapswitch 2.2
_symmetry_space_group_name_H-M    P1
_symmetry_Int_Tables_number       1
_space_group_crystal_system       triclinic
_cell_length_a                    7.072876
_cell_length_b                    14.040046
_cell_length_c                    16.742159
_cell_angle_alpha                 90.389952
_cell_angle_beta                  89.79893
_cell_angle_gamma                 89.847473
_cell_volume                      1662.5003197

loop_
_atom_site_label
_atom_site_type_symbol
_atom_type_description
_atom_site_fract_x
_atom_site_fract_y
_atom_site_fract_z
_atom_type_partial_charge
O1    O     O_R   0.361630 0.167340 0.164570 -0.548808
O2    O     O_R   0.638370 0.832660 0.835430 -0.546259
O3    O     O_R   0.690860 0.157560 0.338690 -0.517215
O4    O     O_R   0.309140 0.842440 0.661310 -0.516998
O5    O     O_R   0.861260 0.336420 0.339380 -0.527869
O6    O     O_R   0.138740 0.663580 0.660620 -0.520498
C1    C     C_R   0.520858 0.128895 0.363401 0.773615
C2    C     C_R   0.479367 0.870692 0.635999 0.772077
O7    O     O_R   0.691330 0.156310 0.165190 -0.546026
O8    O     O_R   0.308670 0.843690 0.834810 -0.546998
O9    O     O_R   0.861730 0.335160 0.164640 -0.537543
O10   O     O_R   0.138270 0.664840 0.835360 -0.530347
C3    C     C_R   0.521464 0.129385 0.140162 0.660795
C4    C     C_R   0.476462 0.870623 0.859890 0.663163
O11   O     O_R   0.361150 0.168600 0.339320 -0.527602
O12   O     O_R   0.638850 0.831400 0.660680 -0.529260
O13   O     O_3   0.527950 0.310560 0.252000 -0.350363
O14   O     O_3   0.472050 0.689440 0.748000 -0.350531
V1    V     V_3+5 0.802770 0.240990 0.251980 1.516505
V2    V     V_3+5 0.197230 0.759010 0.748020 1.520688
O15   O     O_R   0.191450 0.346190 0.165260 -0.532164
O16   O     O_R   0.808550 0.653810 0.834740 -0.541906
C5    C     C_R   0.024373 0.365692 0.134931 0.719667
C6    C     C_R   0.978144 0.632040 0.863644 0.723682
O17   O     O_R   0.190980 0.347440 0.338770 -0.527477
O18   O     O_R   0.809020 0.652560 0.661230 -0.533336
C7    C     C_R   0.021984 0.370578 0.366549 0.722541
C8    C     C_R   0.977697 0.630203 0.632873 0.728245
V3    V     V_3+5 0.302780 0.262760 0.251980 1.510654
V4    V     V_3+5 0.697220 0.737240 0.748020 1.504853
O19   O     O_3   0.027730 0.193200 0.251960 -0.367340
O20   O     O_3   0.972270 0.806800 0.748040 -0.368306
C9    C     C_3   0.831095 0.458789 0.487356 -0.135045
C10   C     C_3   0.167408 0.542992 0.511259 -0.125337
C11   C     C_3   0.951476 0.452546 0.563918 0.159062
C12   C     C_3   0.046418 0.549064 0.434799 0.159142
H1    H     H_    0.689499 0.427758 0.477083 0.164116
H2    H     H_    0.308532 0.574900 0.521075 0.165003
C13   C     C_3   0.987618 0.560384 0.562458 -0.086186
C14   C     C_3   0.010931 0.441188 0.436367 -0.088534
C15   C     C_3   0.867304 0.567468 0.485849 -0.156592
C16   C     C_3   0.131094 0.434138 0.513018 -0.144924
H3    H     H_    0.757221 0.621019 0.474033 0.176463
H4    H     H_    0.241766 0.380765 0.524610 0.173499
H5    H     H_    0.121116 0.306205 0.769799 0.201323
H6    H     H_    0.199057 0.685250 0.218450 0.193570
C17   C     C_R   0.974778 0.694790 0.041752 0.063112
C18   C     C_R   0.966330 0.298468 0.959019 0.062413
C19   C     C_R   0.033099 0.722629 0.119008 0.234071
C20   C     C_R   0.997877 0.269556 0.879429 0.206379
C21   C     C_R   0.125662 0.658621 0.166920 -0.197051
C22   C     C_R   0.067707 0.333333 0.825437 -0.177595
C23   C     C_R   0.150848 0.564963 0.143661 0.068512
C24   C     C_R   0.088413 0.428589 0.844214 0.061551
C25   C     C_R   0.058666 0.529750 0.074576 0.033414
C26   C     C_R   0.025098 0.464676 0.919105 0.026367
C27   C     C_R   0.002053 0.597313 0.015382 -0.010774
C28   C     C_R   0.996728 0.396955 0.982181 -0.013413
C29   C     C_R   0.021689 0.430601 0.063053 -0.118659
C30   C     C_R   0.994212 0.564452 0.933652 -0.125105
C31   C     C_3   0.339664 0.991781 0.458329 -0.212622
C32   C     C_3   0.662983 0.009660 0.541724 -0.206931
C33   C     C_3   0.480455 0.910171 0.477600 0.184759
C34   C     C_3   0.522258 0.091488 0.522273 0.197364
H7    H     H_    0.212886 0.986086 0.421736 0.200704
H8    H     H_    0.791230 0.015520 0.577741 0.201403
C35   C     C_3   0.493710 0.944347 0.565138 -0.167721
C36   C     C_3   0.508371 0.056691 0.434977 -0.169687
C37   C     C_3   0.354865 0.026450 0.545906 0.194388
C38   C     C_3   0.647633 0.975136 0.454122 0.194345
C39   C     C_R   0.454908 0.198894 0.981945 -0.247448
C40   C     C_R   0.449110 0.802492 0.019770 -0.229840
C41   C     C_R   0.457873 0.238222 0.906869 -0.138055
C42   C     C_R   0.478693 0.762186 0.093205 -0.164012
C43   C     C_R   0.475418 0.179676 0.840568 0.290928
C44   C     C_R   0.520981 0.818841 0.158538 0.290724
C45   C     C_R   0.479142 0.080788 0.847203 -0.085704
C46   C     C_R   0.526668 0.918086 0.152432 -0.101653
C47   C     C_R   0.477693 0.038546 0.922958 0.040982
C48   C     C_R   0.502010 0.961437 0.077522 0.041349
C49   C     C_R   0.476657 0.099581 0.992123 0.048306
C50   C     C_R   0.473514 0.901056 0.008992 0.065814
C51   C     C_R   0.478684 0.938079 0.931006 -0.135907
C52   C     C_R   0.505574 0.062113 0.069334 -0.134200
H9    H     H_    0.449716 0.248268 0.031724 0.138099
H10   H     H_    0.427044 0.753682 0.970487 0.129310
H11   H     H_    0.453929 0.314901 0.900593 0.169462
H12   H     H_    0.480085 0.685784 0.097533 0.180602
H13   H     H_    0.488569 0.038127 0.793211 0.131810
H14   H     H_    0.556051 0.959954 0.205459 0.138239
C53   C     C_3   0.891720 0.394099 0.635332 -0.352139
C54   C     C_3   0.968707 0.292976 0.627469 -0.604601
H15   H     H_    0.906336 0.246984 0.673895 0.281253
H16   H     H_    0.937234 0.262118 0.567893 0.255074
H17   H     H_    0.124491 0.293165 0.634606 0.254523
H18   H     H_    0.945232 0.428000 0.690379 0.188802
H19   H     H_    0.735245 0.393616 0.639040 0.240996
C55   C     C_3   0.097560 0.607691 0.362370 -0.384598
C56   C     C_3   0.041686 0.711460 0.375907 -0.577847
H20   H     H_    0.887802 0.718967 0.369007 0.272837
H21   H     H_    0.073740 0.735505 0.437508 0.243020
H22   H     H_    0.114867 0.758613 0.333089 0.270453
H23   H     H_    0.251930 0.601726 0.351193 0.234845
H24   H     H_    0.019913 0.579038 0.310036 0.196214
I1    I     I_    0.145470 0.065699 0.629375 -0.394811
I2    I     I_    0.861088 0.940545 0.371002 -0.390148
I3    I     I_    0.589454 0.748635 0.262152 -0.412457
I4    I     I_    0.512612 0.243984 0.732603 -0.425663
C57   C     C_3   0.875628 0.770152 0.993949 -0.415480
C58   C     C_3   0.011623 0.835203 0.951454 -0.618282
H25   H     H_    0.059592 0.894447 0.990442 0.231990
H26   H     H_    0.133367 0.791616 0.935537 0.236891
H27   H     H_    0.946976 0.866673 0.897697 0.247516
H28   H     H_    0.769887 0.738622 0.954017 0.199941
H29   H     H_    0.797004 0.816941 0.034656 0.229724
C59   C     C_3   0.886320 0.223157 0.012471 -0.396706
C60   C     C_3   0.037440 0.161605 0.049780 -0.616922
H30   H     H_    0.096996 0.111121 0.005255 0.232897
H31   H     H_    0.148634 0.208761 0.070777 0.230645
H32   H     H_    0.982197 0.118726 0.099703 0.245339
H33   H     H_    0.784337 0.254412 0.054071 0.203774
H34   H     H_    0.801133 0.173558 0.977367 0.221875
I5    I     I_    0.028544 0.866040 0.163158 -0.451629
I6    I     I_    0.976860 0.125884 0.836685 -0.454892
I7    I     I_    0.416467 0.512544 0.184629 -0.389334
I8    I     I_    0.303462 0.488599 0.772100 -0.381407
I9    I     I_    0.465096 0.760364 0.465050 -0.463574
I10   I     I_    0.539354 0.242508 0.527562 -0.451349

loop_
_geom_bond_atom_site_label_1
_geom_bond_atom_site_label_2
_ccdc_geom_bond_type
V4    O20   S    
C25   C29   A    
O13   V3    S    
C10   C16   S    
C48   C52   A    
V1    O19   S    
C17   C19   A    
C46   H14   S    
C5    C29   S    
C24   I8    S    
C3    C52   S    
C45   H13   S    
C59   H34   S    
C32   C35   S    
C33   I9    S    
C34   C36   S    
C44   C46   A    
O3    C1    A    
C60   H31   S    
C46   C48   A    
O12   V4    S    
C55   H23   S    
C19   I5    S    
C59   C60   S    
C32   C38   S    
C31   C33   S    
C11   C16   S    
O7    C3    A    
C58   H25   S    
C41   H11   S    
C32   C34   S    
C9    C11   S    
C53   H18   S    
C39   H9    S    
C23   I7    S    
O7    V1    S    
O6    C8    A    
O8    V2    S    
C19   C21   A    
C20   C22   A    
O3    V1    S    
O14   V4    S    
C10   C12   S    
O4    C2    A    
C18   C59   S    
C18   C20   A    
C1    C36   S    
C43   I4    S    
C2    O12   A    
O5    C7    A    
C15   H3    S    
C12   C15   S    
C16   H4    S    
C4    C51   S    
O1    V3    S    
C22   C24   A    
O11   V3    S    
C24   C26   A    
C23   C25   A    
O17   V3    S    
C33   C35   S    
C9    C14   S    
C59   H33   S    
C32   H8    S    
C10   C13   S    
C12   C14   S    
C20   I6    S    
C13   C15   S    
C38   I2    S    
C60   H32   S    
C53   C54   S    
C39   C41   A    
C37   I1    S    
C27   C30   A    
C1    O11   A    
H5    C22   S    
C34   I10   S    
C28   C29   A    
C17   C57   S    
O15   V3    S    
H6    C21   S    
C54   H17   S    
C9    H1    S    
C26   C30   A    
C21   C23   A    
C11   C13   S    
C17   C27   A    
C56   H20   S    
C33   C38   S    
C7    C14   S    
C6    C30   S    
O9    V1    S    
O10   V2    S    
C54   H16   S    
C45   C47   A    
C34   C37   S    
C53   H19   S    
C43   C45   A    
C58   H27   S    
C42   C44   A    
C57   H28   S    
C40   C42   A    
C56   H21   S    
C50   C51   A    
C44   I3    S    
O15   C5    A    
O8    C4    A    
O16   C6    A    
O1    C3    A    
C41   C43   A    
C49   C52   A    
C47   C49   A    
V2    O20   S    
C31   C37   S    
O16   V4    S    
C10   H2    S    
C14   C16   S    
C40   H10   S    
C18   C28   A    
O5    V1    S    
O17   C7    A    
O6    V2    S    
O10   C6    A    
O18   C8    A    
C8    C13   S    
O2    V4    S    
C9    C15   S    
C25   C27   A    
V3    O19   S    
C42   H12   S    
C57   C58   S    
C47   C51   A    
C31   C36   S    
C55   H24   S    
O9    C5    A    
C54   H15   S    
O13   V1    S    
C48   C50   A    
C26   C28   A    
O14   V2    S    
O2    C4    A    
C58   H26   S    
C57   H29   S    
O4    V2    S    
C31   H7    S    
C56   H22   S    
C2    C35   S    
C36   C38   S    
C55   C56   S    
C12   C55   S    
C35   C37   S    
C60   H30   S    
C40   C50   A    
C39   C49   A    
O18   V4    S    
C11   C53   S    
