data_mof_unit_14812.cif
_audit_creation_date              2012-10-26T18:59:59-0400
_audit_creation_method            fapswitch 2.2
_symmetry_space_group_name_H-M    P1
_symmetry_Int_Tables_number       1
_space_group_crystal_system       triclinic
_cell_length_a                    9.533624
_cell_length_b                    10.860107
_cell_length_c                    16.952747
_cell_angle_alpha                 89.290616
_cell_angle_beta                  92.629738
_cell_angle_gamma                 90.06781
_cell_volume                      1753.23944867

loop_
_atom_site_label
_atom_site_type_symbol
_atom_type_description
_atom_site_fract_x
_atom_site_fract_y
_atom_site_fract_z
_atom_type_partial_charge
C1    C     C_R   0.499801 0.262697 0.500035 0.557135
C2    C     C_R   0.498161 0.130142 0.500527 0.012460
C3    C     C_R   0.371196 0.064335 0.506440 -0.142384
C4    C     C_R   0.515674 0.496385 0.651276 0.556354
C5    C     C_R   0.371310 0.935184 0.506392 -0.145185
C6    C     C_R   0.498421 0.869950 0.500576 0.018537
C7    C     C_R   0.620719 0.938273 0.495332 0.007565
C8    C     C_3   0.775242 0.929271 0.486062 -0.262749
C9    C     C_3   0.775242 0.071565 0.485976 -0.063074
C10   C     C_R   0.070403 0.588713 0.459159 0.146512
C11   C     C_R   0.078154 0.419975 0.546294 0.028295
C12   C     C_R   0.639450 0.441507 0.779677 -0.159442
C13   C     C_R   0.929167 0.420040 0.546357 0.046782
C14   C     C_R   0.922840 0.588878 0.459298 0.142236
C15   C     C_3   0.909683 0.612728 0.372572 -0.254295
C16   C     C_R   0.499907 0.737342 0.499975 0.555819
C17   C     C_3   0.068397 0.611880 0.372300 -0.257676
C18   C     C_R   0.484409 0.502374 0.348666 0.565937
C19   C     C_R   0.518914 0.484158 0.737800 -0.043745
C20   C     C_R   0.395567 0.503459 0.777756 -0.153335
C21   C     C_R   0.391601 0.482911 0.859051 0.049377
C22   C     C_R   0.516403 0.447286 0.902086 0.196686
C23   C     C_R   0.611817 0.504111 0.141657 0.052972
C24   C     C_R   0.638566 0.419569 0.861413 0.049996
C25   C     C_2   0.813113 0.130433 0.408758 0.600151
C26   C     C_2   0.750667 0.491326 0.106162 0.643956
C27   C     C_2   0.765102 0.365113 0.902713 0.624164
C28   C     C_2   0.254265 0.493299 0.896498 0.643466
C29   C     C_2   0.244738 0.634455 0.094322 0.626055
C30   C     C_R   0.603836 0.482947 0.222678 -0.145031
C31   C     C_R   0.490200 0.544566 0.097469 0.197883
C32   C     C_R   0.482063 0.511125 0.261935 -0.038796
C33   C     C_R   0.365651 0.559430 0.219013 -0.158021
C34   C     C_R   0.368659 0.577917 0.137051 0.053597
C35   C     C_R   0.620486 0.062427 0.495014 0.018273
Cu1   Cu    Cu3+1 0.640670 0.499980 0.500000 0.974876
Cu2   Cu    Cu3+1 0.359330 0.500020 0.500000 0.962706
H1    H     H_    0.695042 0.447821 0.255897 0.172493
H2    H     H_    0.931487 0.256569 0.354121 0.348486
H3    H     H_    0.876085 0.353524 0.582499 0.114855
H4    H     H_    0.108655 0.532344 0.339595 0.170491
H5    H     H_    0.942859 0.413015 0.112368 0.372795
H6    H     H_    0.114160 0.702875 0.357178 0.138055
H7    H     H_    0.845828 0.263096 0.994135 0.361619
H8    H     H_    0.732697 0.420869 0.748067 0.164515
H9    H     H_    0.274329 0.587274 0.249745 0.150574
H10   H     H_    0.062124 0.571469 0.894230 0.377340
H11   H     H_    0.169160 0.736065 0.001425 0.359858
H12   H     H_    0.272268 0.887193 0.510839 0.140894
H13   H     H_    0.300418 0.531480 0.744969 0.179780
H14   H     H_    0.800632 0.887371 0.428998 0.156699
H15   H     H_    0.137008 0.353492 0.582437 0.116678
H16   H     H_    0.861928 0.534382 0.339770 0.166744
H17   H     H_    0.862942 0.704167 0.357682 0.136049
H18   H     H_    0.272130 0.111870 0.511011 0.150277
H19   H     H_    0.830488 0.887618 0.539028 0.129129
H20   H     H_    0.831192 0.111667 0.538650 0.105427
N1    N     N_2   0.522852 0.445794 0.985792 -0.144656
N2    N     N_2   0.485577 0.545825 0.013750 -0.147726
N3    N     N_R   0.147870 0.500930 0.499500 -0.231955
N4    N     N_R   0.851960 0.500890 0.499500 -0.224458
O1    O     O_R   0.618810 0.319640 0.500000 -0.495128
O2    O     O_R   0.915909 0.222215 0.408912 -0.704851
O3    O     O_2   0.778565 0.552597 0.047913 -0.450824
O4    O     O_R   0.852141 0.412685 0.141334 -0.684278
O5    O     O_2   0.880196 0.376290 0.874368 -0.506156
O6    O     O_R   0.752506 0.296857 0.972503 -0.637023
O7    O     O_2   0.230191 0.431671 0.955231 -0.454100
O8    O     O_R   0.150439 0.571329 0.863126 -0.681586
O9    O     O_2   0.128497 0.626124 0.121660 -0.502519
O10   O     O_R   0.260999 0.700708 0.024087 -0.641205
O11   O     O_R   0.381230 0.319680 0.499990 -0.506391
O12   O     O_R   0.631790 0.498830 0.613930 -0.504455
O13   O     O_R   0.394210 0.498870 0.613920 -0.507530
O14   O     O_R   0.618770 0.680320 0.500010 -0.499489
O15   O     O_R   0.381190 0.680360 0.500000 -0.508999
O16   O     O_R   0.605790 0.501130 0.386080 -0.502384
O17   O     O_R   0.368210 0.501170 0.386070 -0.500138
O18   O     O_2   0.754221 0.098910 0.346577 -0.484963

loop_
_geom_bond_atom_site_label_1
_geom_bond_atom_site_label_2
_ccdc_geom_bond_type
C2    C35   A    
Cu2   O13   S    
C16   O14   A    
C28   O8    S    
C24   C27   S    
C1    O1    A    
C8    H19   S    
C9    C25   S    
C7    C8    S    
C15   H16   S    
Cu1   Cu2   S    
C28   O7    D    
Cu1   O16   S    
C5    C6    A    
C10   C17   S    
C30   H1    S    
C1    C2    S    
C25   O2    S    
C23   C26   S    
C31   N2    S    
C26   O3    D    
H10   O8    S    
C13   H3    S    
C20   H13   S    
C11   H15   S    
C4    C19   S    
C3    H18   S    
C19   C20   A    
C8    C9    S    
H5    O4    S    
C23   C30   A    
C4    O13   A    
C25   O18   D    
C21   C22   A    
C33   H9    S    
C5    H12   S    
Cu1   O1    S    
C1    O11   A    
C15   H17   S    
C10   C14   A    
N1    N2    D    
C14   N4    A    
C29   C34   S    
C23   C31   A    
C10   N3    A    
C17   H6    S    
Cu1   O14   S    
C18   O17   A    
C33   C34   A    
C31   C34   A    
C8    H14   S    
C4    O12   A    
Cu2   O15   S    
C22   C24   A    
C18   C32   S    
H11   O10   S    
Cu1   N4    S    
C29   O9    D    
C15   C17   S    
C16   O15   A    
C26   O4    S    
C7    C35   A    
C21   C28   S    
C12   H8    S    
C3    C5    A    
C22   N1    S    
C6    C7    A    
H2    O2    S    
Cu2   O17   S    
C12   C24   A    
C32   C33   A    
C2    C3    A    
C27   O5    D    
C30   C32   A    
C11   C13   A    
C18   O16   A    
C12   C19   A    
C9    H20   S    
C17   H4    S    
Cu2   N3    S    
C27   O6    S    
Cu1   O12   S    
C6    C16   S    
C13   N4    A    
C20   C21   A    
Cu2   O11   S    
C9    C35   S    
C14   C15   S    
H7    O6    S    
C11   N3    A    
C29   O10   S    
