data_mof_unit_32492.cif
_audit_creation_date              2012-12-10T16:32:40-0500
_audit_creation_method            fapswitch 2.2
_symmetry_space_group_name_H-M    P1
_symmetry_Int_Tables_number       1
_space_group_crystal_system       triclinic
_cell_length_a                    16.92126
_cell_length_b                    16.922976
_cell_length_c                    16.924817
_cell_angle_alpha                 65.773259
_cell_angle_beta                  65.772064
_cell_angle_gamma                 65.773686
_cell_volume                      3856.07559705

loop_
_atom_site_label
_atom_site_type_symbol
_atom_type_description
_atom_site_fract_x
_atom_site_fract_y
_atom_site_fract_z
_atom_type_partial_charge
C1    C     C_R   0.586589 0.043344 0.586117 -0.125384
C2    C     C_R   0.821334 0.563799 0.033575 0.920133
C3    C     C_R   0.435959 0.967010 0.178640 0.920420
C4    C     C_R   0.564038 0.032997 0.821360 0.920418
C5    C     C_R   0.564028 0.821357 0.033016 0.920372
C6    C     C_R   0.435974 0.178643 0.966979 0.920362
C7    C     C_R   0.032985 0.564043 0.821362 0.920494
C8    C     C_R   0.967002 0.435962 0.178639 0.920492
C9    C     C_R   0.821336 0.033579 0.563798 0.920229
C10   C     C_R   0.178664 0.966414 0.436205 0.920217
C11   C     C_R   0.542266 0.021932 0.541111 0.199936
C12   C     C_R   0.413404 0.956659 0.413889 -0.125392
C13   C     C_R   0.457720 0.978071 0.458901 0.199940
C14   C     C_R   0.021881 0.542288 0.541123 0.201270
C15   C     C_R   0.978078 0.457737 0.458874 0.201255
C16   C     C_R   0.542263 0.541119 0.021920 0.198289
C17   C     C_R   0.457745 0.458882 0.978063 0.198281
C18   C     C_R   0.564376 0.932016 0.542019 -0.100725
C19   C     C_R   0.435608 0.067988 0.457995 -0.100734
C20   C     C_R   0.089903 0.477971 0.498604 -0.059962
C21   C     C_R   0.910055 0.522053 0.501395 -0.059943
C22   C     C_R   0.478074 0.498418 0.089943 -0.057652
C23   C     C_R   0.043272 0.586622 0.586131 -0.125305
C24   C     C_R   0.521934 0.501583 0.910040 -0.057645
C25   C     C_R   0.522309 0.910137 0.501113 -0.058800
C26   C     C_R   0.477675 0.089866 0.498901 -0.058803
C27   C     C_R   0.436021 0.457494 0.068066 -0.099275
C28   C     C_R   0.563987 0.542507 0.931918 -0.099263
C29   C     C_R   0.068053 0.435902 0.457676 -0.102411
C30   C     C_R   0.931905 0.564123 0.542321 -0.102386
C31   C     C_R   0.544480 0.046527 0.675748 0.332460
C32   C     C_R   0.455510 0.953497 0.324251 0.332453
C33   C     C_R   0.048024 0.675713 0.543902 0.331566
C34   C     C_R   0.956687 0.413396 0.413872 -0.125287
C35   C     C_R   0.951965 0.324293 0.456096 0.331554
C36   C     C_R   0.675692 0.543875 0.048079 0.332756
C37   C     C_R   0.324311 0.456126 0.951914 0.332749
C38   C     C_R   0.324317 0.951864 0.456130 0.331802
C39   C     C_R   0.675683 0.048117 0.543880 0.331793
C40   C     C_R   0.455539 0.324276 0.953407 0.332837
C41   C     C_R   0.544469 0.675728 0.046571 0.332835
C42   C     C_R   0.953456 0.455511 0.324259 0.331564
C43   C     C_R   0.046482 0.544510 0.675750 0.331555
C44   C     C_R   0.595202 0.048490 0.724318 -0.144182
C45   C     C_R   0.586588 0.586107 0.043347 -0.125621
C46   C     C_R   0.404793 0.951522 0.275681 -0.144192
C47   C     C_R   0.049296 0.724278 0.594943 -0.144304
C48   C     C_R   0.950704 0.275723 0.405054 -0.144314
C49   C     C_R   0.724262 0.594922 0.049346 -0.144344
C50   C     C_R   0.275739 0.405078 0.950652 -0.144352
C51   C     C_R   0.275739 0.950633 0.405078 -0.144175
C52   C     C_R   0.724262 0.049355 0.594927 -0.144181
C53   C     C_R   0.404813 0.275694 0.951466 -0.144080
C54   C     C_R   0.595190 0.724307 0.048524 -0.144085
C55   C     C_R   0.951515 0.404789 0.275681 -0.144059
C56   C     C_R   0.413419 0.413895 0.956637 -0.125616
C57   C     C_R   0.048456 0.595219 0.724322 -0.144067
C58   C     C_R   0.682060 0.054244 0.682041 -0.349011
C59   C     C_R   0.317940 0.945756 0.317961 -0.349013
C60   C     C_R   0.054201 0.682072 0.682050 -0.348129
C61   C     C_R   0.945797 0.317927 0.317947 -0.348128
C62   C     C_R   0.682051 0.682032 0.054265 -0.349908
C63   C     C_R   0.317949 0.317967 0.945734 -0.349911
C64   C     C_R   0.966450 0.178660 0.436190 0.920285
C65   C     C_R   0.033554 0.821340 0.563808 0.920271
C66   C     C_R   0.178666 0.436201 0.966426 0.920144
Cl1   Cl    Cl    0.429141 0.046924 0.723618 -0.519134
Cl2   Cl    Cl    0.429107 0.723560 0.047067 -0.516705
Cl3   Cl    Cl    0.952938 0.570869 0.276433 -0.521333
Cl4   Cl    Cl    0.046921 0.429174 0.723593 -0.521296
Cl5   Cl    Cl    0.570840 0.953143 0.276370 -0.519092
Cl6   Cl    Cl    0.053453 0.722258 0.427282 -0.518301
Cl7   Cl    Cl    0.946554 0.277744 0.572711 -0.518283
Cl8   Cl    Cl    0.722250 0.427250 0.053470 -0.513732
Cl9   Cl    Cl    0.277751 0.572750 0.946526 -0.513739
Cl10  Cl    Cl    0.277798 0.946301 0.572787 -0.515821
Cl11  Cl    Cl    0.722209 0.053644 0.427233 -0.515810
Cl12  Cl    Cl    0.570910 0.276447 0.952886 -0.516698
H1    H     H_    0.459942 0.159405 0.497875 0.155446
H2    H     H_    0.460648 0.497016 0.159551 0.156395
H3    H     H_    0.840466 0.539567 0.502653 0.154902
H4    H     H_    0.159489 0.460454 0.497350 0.154891
H5    H     H_    0.719794 0.055618 0.719838 0.225883
H6    H     H_    0.280208 0.944380 0.280163 0.225881
H7    H     H_    0.055591 0.719796 0.719845 0.226174
H8    H     H_    0.944426 0.280197 0.280148 0.226175
H9    H     H_    0.719781 0.719833 0.055648 0.225591
H10   H     H_    0.280217 0.280164 0.944358 0.225589
H11   H     H_    0.540042 0.840596 0.502140 0.155439
H12   H     H_    0.878753 0.613617 0.575193 0.143211
H13   H     H_    0.121206 0.386408 0.424804 0.143211
H14   H     H_    0.613382 0.575524 0.878768 0.145291
H15   H     H_    0.386626 0.424478 0.121216 0.145288
H16   H     H_    0.385904 0.121073 0.425360 0.143909
H17   H     H_    0.614081 0.878930 0.574653 0.143910
H18   H     H_    0.539360 0.502986 0.840432 0.156399
O1    O     O_R   0.982940 0.138950 0.510160 -0.564011
O2    O     O_R   0.982940 0.510160 0.138950 -0.562613
O3    O     O_R   0.861050 0.017060 0.489840 -0.563976
O4    O     O_R   0.138950 0.982940 0.510160 -0.563983
O5    O     O_R   0.867700 0.025880 0.612340 -0.634361
O6    O     O_R   0.132300 0.974120 0.387660 -0.634362
O7    O     O_R   0.025880 0.612340 0.867700 -0.634471
O8    O     O_R   0.974120 0.387660 0.132300 -0.634475
O9    O     O_R   0.612340 0.867700 0.025880 -0.635606
O10   O     O_R   0.387660 0.132300 0.974120 -0.635608
O11   O     O_R   0.387660 0.974120 0.132300 -0.635366
O12   O     O_R   0.017060 0.861050 0.489840 -0.564014
O13   O     O_R   0.612340 0.025880 0.867700 -0.635365
O14   O     O_R   0.132300 0.387660 0.974120 -0.635265
O15   O     O_R   0.867700 0.612340 0.025880 -0.635260
O16   O     O_R   0.974120 0.132300 0.387660 -0.634126
O17   O     O_R   0.025880 0.867700 0.612340 -0.634121
O18   O     O_R   0.138950 0.510160 0.982940 -0.562982
O19   O     O_R   0.861050 0.489840 0.017060 -0.562981
O20   O     O_R   0.510160 0.982940 0.138950 -0.561652
O21   O     O_R   0.489840 0.017060 0.861050 -0.561654
O22   O     O_R   0.489840 0.861050 0.017060 -0.561608
O23   O     O_R   0.510160 0.138950 0.982940 -0.561608
O24   O     O_R   0.017060 0.489840 0.861050 -0.562608
Zn1   Zn    Zn3+2 0.004880 0.004880 0.583590 1.121376
Zn2   Zn    Zn3+2 0.995120 0.995120 0.416410 1.121375
Zn3   Zn    Zn3+2 0.004880 0.583590 0.004880 1.122399
Zn4   Zn    Zn3+2 0.995120 0.416410 0.995120 1.122401
Zn5   Zn    Zn3+2 0.583590 0.004880 0.004880 1.123396
Zn6   Zn    Zn3+2 0.416410 0.995120 0.995120 1.123390

loop_
_geom_bond_atom_site_label_1
_geom_bond_atom_site_label_2
_ccdc_geom_bond_type
C16   C28   A    
C4    O13   A    
C11   C18   A    
C50   C63   A    
C20   H4    S    
C63   H10   S    
C40   C56   A    
C34   C42   A    
C30   H12   S    
O7    Zn3   S    
C5    O9    A    
C36   Cl8   S    
C31   Cl1   S    
C18   C25   A    
C39   Cl11  S    
C34   C35   A    
C3    O20   A    
C24   H18   S    
C46   C59   A    
C48   C64   S    
C35   C48   A    
C1    C31   A    
C23   C43   A    
O4    Zn1   S    
C19   C26   A    
C8    O2    A    
O1    Zn1   S    
C33   Cl6   S    
O14   Zn4   S    
C47   C60   A    
C37   C56   A    
C44   C58   A    
C23   C33   A    
C1    C11   S    
C49   C62   A    
C41   Cl2   S    
O21   Zn6   S    
C15   C34   S    
C39   C52   A    
C37   Cl9   S    
C9    O3    A    
C7    O7    A    
C12   C32   A    
C18   H17   S    
C13   C25   A    
C9    C52   S    
C32   C46   A    
C14   C30   A    
C10   C51   S    
C8    C55   S    
C15   C29   A    
C32   Cl5   S    
C20   C29   A    
O2    Zn3   S    
C2    O15   A    
C17   C24   A    
C31   C44   A    
C13   C19   A    
O15   Zn3   S    
C17   C27   A    
C14   C20   A    
C5    C54   S    
C10   O6    A    
C59   H6    S    
C1    C39   A    
C57   C60   A    
C38   Cl10  S    
C38   C51   A    
C4    C44   S    
C11   C26   A    
C3    O11   A    
C42   Cl3   S    
O5    Zn1   S    
C14   C23   S    
O16   Zn2   S    
C2    C49   S    
C42   C55   A    
C8    O8    A    
C2    O19   A    
C6    O10   A    
C36   C45   A    
C28   H14   S    
C65   O12   A    
C66   O14   A    
C10   O4    A    
C50   C66   S    
C17   C56   S    
C19   H16   S    
C52   C58   A    
O3    Zn2   S    
O18   Zn3   S    
O23   Zn5   S    
O13   Zn5   S    
C64   O1    A    
C21   H3    S    
C43   Cl4   S    
O20   Zn5   S    
C33   C47   A    
C40   Cl12  S    
C4    O21   A    
C27   H15   S    
C51   C59   A    
C6    C53   S    
C6    O23   A    
C29   H13   S    
C62   H9    S    
C35   Cl7   S    
C16   C22   A    
O19   Zn4   S    
C66   O18   A    
C65   O17   A    
C7    O24   A    
C24   C28   A    
O11   Zn6   S    
O12   Zn2   S    
C16   C45   S    
C60   H7    S    
O8    Zn4   S    
C54   C62   A    
C21   C30   A    
O10   Zn6   S    
C3    C46   S    
C25   H11   S    
C26   H1    S    
O9    Zn5   S    
C5    O22   A    
C22   C27   A    
C22   H2    S    
C58   H5    S    
C37   C50   A    
C53   C63   A    
C48   C61   A    
C55   C61   A    
C47   C65   S    
C12   C38   A    
C41   C54   A    
C64   O16   A    
C61   H8    S    
C43   C57   A    
C15   C21   A    
O17   Zn1   S    
C12   C13   S    
C9    O5    A    
C40   C53   A    
C41   C45   A    
O22   Zn6   S    
O6    Zn2   S    
C7    C57   S    
C36   C49   A    
O24   Zn4   S    
