data_mof_unit_38727.cif
_audit_creation_date              2012-10-26T19:59:35-0400
_audit_creation_method            fapswitch 2.2
_symmetry_space_group_name_H-M    P1
_symmetry_Int_Tables_number       1
_space_group_crystal_system       triclinic
_cell_length_a                    10.802463
_cell_length_b                    8.768393
_cell_length_c                    7.568686
_cell_angle_alpha                 102.561412
_cell_angle_beta                  97.408815
_cell_angle_gamma                 94.236492
_cell_volume                      690.048019446

loop_
_atom_site_label
_atom_site_type_symbol
_atom_type_description
_atom_site_fract_x
_atom_site_fract_y
_atom_site_fract_z
_atom_type_partial_charge
C1    C     C_R   0.499189 0.200757 0.454691 0.533357
C2    C     C_R   0.508633 0.799770 0.547013 0.522023
C3    C     C_R   0.738106 0.496364 0.504768 0.547887
C4    C     C_R   0.162842 0.734653 0.772997 -0.104081
C5    C     C_R   0.129592 0.793277 0.945455 0.005410
C6    C     C_R   0.019262 0.727712 0.989986 -0.114461
C7    C     C_R   0.937264 0.615889 0.858523 -0.006868
C8    C     C_R   0.961178 0.575879 0.674268 0.003510
C9    C     C_3   0.220524 0.906869 0.090443 -0.279911
C10   C     C_3   0.162734 0.057318 0.159152 -0.447514
C11   C     C_1   0.857120 0.512449 0.929112 0.208035
C12   C     C_R   0.084479 0.614157 0.644542 -0.010806
C13   C     C_1   0.568402 0.055049 0.764185 0.226693
C14   C     C_3   0.359176 0.347127 0.935715 -0.041282
C15   C     C_3   0.235355 0.417868 0.950289 -0.368847
C16   C     C_R   0.129281 0.520270 0.495258 -0.008144
C17   C     C_R   0.045697 0.414673 0.360086 -0.166335
C18   C     C_R   0.918858 0.404303 0.368412 -0.145235
C19   C     C_R   0.873970 0.489300 0.520015 -0.006432
C20   C     C_2   0.499409 0.033690 0.433571 -0.169132
C21   C     C_2   0.523575 0.967762 0.576985 -0.070349
C22   C     C_R   0.263123 0.507948 0.498392 0.521501
Cu1   Cu    Cu3+1 0.513920 0.517380 0.684380 0.969844
Cu2   Cu    Cu3+1 0.486080 0.482620 0.315620 0.954460
H1    H     H_    0.077700 0.336147 0.250531 0.117117
H2    H     H_    0.247380 0.851436 0.206714 0.150873
H3    H     H_    0.307514 0.937472 0.035900 0.145118
H4    H     H_    0.185207 0.370125 0.046057 0.122489
H5    H     H_    0.251336 0.547248 0.997656 0.187633
H6    H     H_    0.172637 0.384174 0.816917 0.122749
H7    H     H_    0.364791 0.303456 0.792715 0.176010
H8    H     H_    0.356316 0.240471 0.992069 0.124069
H9    H     H_    0.602095 0.621825 0.051736 0.233355
H10   H     H_    0.252780 0.777022 0.743115 0.133263
H11   H     H_    0.001559 0.756132 0.130711 0.119234
H12   H     H_    0.855768 0.323363 0.260341 0.172434
H13   H     H_    0.474839 0.961750 0.295413 0.120834
H14   H     H_    0.126716 0.106388 0.041479 0.149362
H15   H     H_    0.084344 0.034478 0.234641 0.148421
H16   H     H_    0.234813 0.144335 0.253524 0.155349
N1    N     N_2   0.465100 0.456430 0.038520 -0.131887
N2    N     N_2   0.534900 0.543570 0.961480 -0.217765
N3    N     N_1   0.792556 0.427889 0.983405 -0.268007
N4    N     N_1   0.604197 0.122844 0.913405 -0.260596
O1    O     O_R   0.509050 0.286130 0.619770 -0.504389
O2    O     O_R   0.485540 0.256780 0.308360 -0.497863
O3    O     O_R   0.331410 0.514680 0.655740 -0.526884
O4    O     O_R   0.307900 0.485330 0.344330 -0.521839
O5    O     O_R   0.514460 0.743220 0.691640 -0.507954
O6    O     O_R   0.490950 0.713870 0.380230 -0.521408
O7    O     O_R   0.692100 0.514670 0.655670 -0.489147
O8    O     O_R   0.668590 0.485320 0.344260 -0.483896

loop_
_geom_bond_atom_site_label_1
_geom_bond_atom_site_label_2
_ccdc_geom_bond_type
Cu2   O8    S    
C22   O4    A    
C3    O8    A    
C11   N3    T    
C6    C7    A    
Cu1   O1    S    
C2    O5    A    
C8    C12   A    
C4    C12   A    
C9    C10   S    
Cu1   O7    S    
C10   H14   S    
C14   H7    S    
Cu1   Cu2   S    
C17   H1    S    
C3    C19   S    
C2    C21   S    
C17   C18   A    
C13   C21   S    
C7    C8    A    
C6    H11   S    
C7    C11   S    
C20   H13   S    
C1    O1    A    
C15   H4    S    
C16   C17   A    
Cu1   N2    S    
Cu2   N1    S    
C14   N1    S    
H9    N2    S    
C9    H2    S    
C15   H5    S    
C13   N4    T    
Cu2   O6    S    
C5    C6    A    
C4    H10   S    
C1    O2    A    
Cu1   O5    S    
C8    C19   A    
Cu1   O3    S    
Cu2   O4    S    
C20   C21   D    
C9    H3    S    
C15   H6    S    
C10   H16   S    
C18   C19   A    
N1    N2    D    
C14   H8    S    
Cu2   O2    S    
C3    O7    A    
C14   C15   S    
C10   H15   S    
C1    C20   S    
C16   C22   S    
C2    O6    A    
C18   H12   S    
C22   O3    A    
C12   C16   A    
C5    C9    S    
C4    C5    A    
