data_mof_unit_34724.cif
_audit_creation_date              2012-12-11T14:40:20-0500
_audit_creation_method            fapswitch 2.2
_symmetry_space_group_name_H-M    P1
_symmetry_Int_Tables_number       1
_space_group_crystal_system       triclinic
_cell_length_a                    19.469264
_cell_length_b                    11.028576
_cell_length_c                    19.413899
_cell_angle_alpha                 89.469553
_cell_angle_beta                  97.908734
_cell_angle_gamma                 89.750042
_cell_volume                      4128.62590515

loop_
_atom_site_label
_atom_site_type_symbol
_atom_type_description
_atom_site_fract_x
_atom_site_fract_y
_atom_site_fract_z
_atom_type_partial_charge
C1    C     C_R   0.727466 0.946835 0.358774 0.522700
C2    C     C_3   0.271049 0.336428 0.559752 0.020164
C3    C     C_3   0.272133 0.170361 0.306624 -0.362560
C4    C     C_3   0.201818 0.692851 0.641869 -0.018254
C5    C     C_3   0.218339 0.613131 0.706352 -0.337081
C6    C     C_3   0.832877 0.719796 0.356364 -0.014303
C7    C     C_3   0.772158 0.670314 0.306632 -0.363043
C8    C     C_3   0.230522 0.833145 0.441581 0.007625
C9    C     C_3   0.771045 0.836431 0.559748 0.019771
C10   C     C_3   0.732164 0.466729 0.461746 -0.105119
C11   C     C_3   0.229546 0.447020 0.530070 -0.089273
C12   C     C_3   0.232152 0.966716 0.461739 -0.105269
C13   C     C_3   0.729521 0.946994 0.530052 -0.089329
C14   C     C_3   0.797866 0.440203 0.513475 -0.119302
C15   C     C_3   0.192700 0.367145 0.472723 -0.159439
C16   C     C_3   0.297863 0.940214 0.513459 -0.118447
C17   C     C_R   0.274684 0.955067 0.638226 0.543526
C18   C     C_3   0.692702 0.867089 0.472706 -0.159342
C19   C     C_3   0.796183 0.305399 0.493857 -0.083901
C20   C     C_3   0.234162 0.255486 0.503137 -0.115673
C21   C     C_3   0.296181 0.805402 0.493861 -0.084193
C22   C     C_3   0.734182 0.755460 0.503134 -0.115808
C23   C     C_3   0.748326 0.279386 0.549271 0.273267
C24   C     C_3   0.291272 0.284764 0.457782 0.263759
C25   C     C_3   0.248333 0.779411 0.549289 0.273566
C26   C     C_3   0.791292 0.784766 0.457782 0.263821
C27   C     C_3   0.751482 0.411624 0.569011 0.037404
C28   C     C_R   0.227462 0.446847 0.358780 0.523035
C29   C     C_3   0.249980 0.396195 0.427701 0.022053
C30   C     C_3   0.251489 0.911656 0.569004 0.039911
C31   C     C_3   0.749983 0.896172 0.427691 0.022133
C32   C     C_3   0.534164 0.264378 0.975755 -0.117147
C33   C     C_3   0.475978 0.275814 0.021836 -0.110238
C34   C     C_3   0.036991 0.760202 0.975580 -0.118105
C35   C     C_3   0.979313 0.778341 0.021660 -0.105172
C36   C     C_3   0.567866 0.159930 0.021991 -0.109297
C37   C     C_3   0.432487 0.180562 0.977938 -0.105951
C38   C     C_3   0.067258 0.653258 0.021938 -0.109725
C39   C     C_R   0.774673 0.455035 0.638238 0.550778
C40   C     C_3   0.932703 0.686997 0.977931 -0.110039
C41   C     C_3   0.509212 0.171809 0.067297 0.054445
C42   C     C_3   0.491157 0.169512 0.932578 0.054063
C43   C     C_3   0.009147 0.671871 0.067263 0.055617
C44   C     C_3   0.990887 0.669270 0.932574 0.053811
C45   C     C_R   0.535489 0.179894 0.337961 0.517702
C46   C     C_R   0.464548 0.180299 0.662094 0.522709
C47   C     C_R   0.035491 0.679894 0.337962 0.517954
C48   C     C_R   0.964550 0.680299 0.662096 0.523680
C49   C     C_3   0.466288 0.076224 0.024534 -0.122432
C50   C     C_3   0.682648 0.302971 0.496417 -0.146613
C51   C     C_3   0.524231 0.064769 0.977623 -0.116557
C52   C     C_3   0.963062 0.580209 0.024644 -0.127396
C53   C     C_3   0.020480 0.562033 0.977717 -0.116022
C54   C     C_1   0.773852 0.451027 0.910615 -0.006336
C55   C     C_1   0.237550 0.426180 0.095965 -0.009924
C56   C     C_1   0.256898 0.907549 0.899194 -0.011695
C57   C     C_1   0.737573 0.926054 0.095996 -0.009332
C58   C     C_1   0.742554 0.387127 0.031243 -0.048954
C59   C     C_1   0.252235 0.408320 0.965175 -0.048647
C60   C     C_1   0.232443 0.857426 0.025007 -0.051115
C61   C     C_3   0.329574 0.362932 0.516321 -0.097659
C62   C     C_1   0.752261 0.908098 0.965213 -0.049509
C63   C     C_1   0.758526 0.421274 0.965884 -0.048378
C64   C     C_1   0.245879 0.416091 0.036156 -0.048635
C65   C     C_1   0.243662 0.881324 0.956144 -0.046830
C66   C     C_1   0.745906 0.915884 0.036193 -0.048614
C67   C     C_1   0.731707 0.356195 0.087942 -0.007696
C68   C     C_1   0.256930 0.394696 0.904725 -0.008814
C69   C     C_1   0.226034 0.837843 0.084819 -0.013483
C70   C     C_1   0.756952 0.894539 0.904759 -0.009639
C71   C     C_R   0.723869 0.306004 0.367339 0.568227
C72   C     C_3   0.182647 0.802964 0.496441 -0.146806
C73   C     C_R   0.276586 0.307110 0.633313 0.558847
C74   C     C_R   0.223867 0.805995 0.367339 0.568332
C75   C     C_R   0.776586 0.807112 0.633311 0.559918
C76   C     C_R   0.722240 0.952869 0.163912 0.528302
C77   C     C_R   0.277174 0.950264 0.835296 0.540785
C78   C     C_R   0.222234 0.452893 0.163901 0.527257
C79   C     C_R   0.792659 0.489345 0.845830 0.550551
C80   C     C_R   0.529934 0.179269 0.141077 0.535888
C81   C     C_R   0.470380 0.178230 0.858784 0.539436
C82   C     C_R   0.030063 0.679295 0.141015 0.535264
C83   C     C_3   0.829572 0.862962 0.516322 -0.097642
C84   C     C_R   0.970247 0.678201 0.858822 0.534449
C85   C     C_R   0.722954 0.315352 0.155674 0.553561
C86   C     C_R   0.263882 0.360113 0.835488 0.535955
C87   C     C_R   0.221492 0.810128 0.156131 0.560987
C88   C     C_R   0.763892 0.860066 0.835505 0.530522
C89   C     C_1   0.485684 0.172622 0.594878 -0.027171
C90   C     C_1   0.513921 0.171169 0.405042 -0.020464
C91   C     C_1   0.985690 0.672623 0.594882 -0.027836
C92   C     C_1   0.013928 0.671169 0.405046 -0.020554
C93   C     C_1   0.503467 0.167655 0.464528 -0.029466
C94   C     C_3   0.730531 0.333168 0.441574 0.007775
C95   C     C_1   0.495394 0.168461 0.535230 -0.050392
C96   C     C_1   0.003476 0.667656 0.464532 -0.029412
C97   C     C_1   0.995402 0.668463 0.535234 -0.050465
C98   C     C_3   0.685324 0.438173 0.517999 -0.179601
C99   C     C_3   0.287369 0.475483 0.485647 -0.121693
C100  C     C_3   0.185322 0.938176 0.518004 -0.179388
C101  C     C_3   0.787346 0.975485 0.485637 -0.121603
C102  C     C_3   0.701764 0.192727 0.641779 -0.017717
C103  C     C_3   0.718065 0.112418 0.706044 -0.331364
C104  C     C_3   0.332857 0.219796 0.356366 -0.014493
Cr1   Cr    Cr6+3 0.765830 0.160660 0.268180 1.006944
Cr2   Cr    Cr6+3 0.384070 0.324050 0.751550 1.025834
Cr3   Cr    Cr6+3 0.115930 0.824050 0.248450 1.013805
Cr4   Cr    Cr6+3 0.884070 0.824050 0.751550 1.021085
Cr5   Cr    Cr6+3 0.234170 0.160660 0.731820 1.009197
Cr6   Cr    Cr6+3 0.265830 0.660660 0.268180 1.005971
Cr7   Cr    Cr6+3 0.734170 0.660660 0.731820 1.007771
Cr8   Cr    Cr6+3 0.612110 0.009150 0.248770 1.012823
Cr9   Cr    Cr6+3 0.387890 0.009150 0.751230 1.029931
Cr10  Cr    Cr6+3 0.112110 0.509150 0.248770 1.012135
Cr11  Cr    Cr6+3 0.887890 0.509150 0.751230 1.024917
Cr12  Cr    Cr6+3 0.615930 0.324050 0.248450 1.014437
H1    H     H_    0.636913 0.243266 0.488277 0.106057
H2    H     H_    0.198395 0.506003 0.558903 0.164950
H3    H     H_    0.223567 0.041694 0.423141 0.172157
H4    H     H_    0.698320 0.005977 0.558833 0.164803
H5    H     H_    0.344763 0.998160 0.521345 0.160608
H6    H     H_    0.635878 0.868059 0.455455 0.141950
H7    H     H_    0.844769 0.498142 0.521372 0.160476
H8    H     H_    0.135875 0.368158 0.455479 0.141929
H9    H     H_    0.843263 0.255335 0.483924 0.120175
H10   H     H_    0.209011 0.171100 0.516100 0.117565
H11   H     H_    0.343261 0.755336 0.483930 0.120177
H12   H     H_    0.385908 0.361705 0.535570 0.132546
H13   H     H_    0.709041 0.671073 0.516110 0.117377
H14   H     H_    0.623905 0.151140 0.042186 0.107566
H15   H     H_    0.376410 0.188909 0.957758 0.122197
H16   H     H_    0.122910 0.638726 0.042101 0.109344
H17   H     H_    0.876960 0.700721 0.957776 0.111659
H18   H     H_    0.562625 0.339887 0.954428 0.129772
H19   H     H_    0.455348 0.361089 0.041248 0.132341
H20   H     H_    0.067782 0.832290 0.954075 0.128207
H21   H     H_    0.961493 0.865933 0.040914 0.133485
H22   H     H_    0.438045 0.000894 0.046279 0.126538
H23   H     H_    0.136918 0.743241 0.488336 0.106035
H24   H     H_    0.544645 0.979778 0.957688 0.126904
H25   H     H_    0.932392 0.508292 0.046445 0.124738
H26   H     H_    0.038040 0.474782 0.957839 0.127703
H27   H     H_    0.652632 0.161627 0.611191 0.110538
H28   H     H_    0.692261 0.285173 0.660475 0.139667
H29   H     H_    0.769754 0.135265 0.734527 0.185753
H30   H     H_    0.678199 0.126090 0.741071 0.092141
H31   H     H_    0.717378 0.016046 0.690942 0.190614
H32   H     H_    0.380174 0.173537 0.343960 0.157639
H33   H     H_    0.341299 0.317965 0.347227 0.127932
H34   H     H_    0.885905 0.861769 0.535578 0.132553
H35   H     H_    0.221967 0.201280 0.321378 0.163998
H36   H     H_    0.275985 0.201752 0.252792 0.113557
H37   H     H_    0.273424 0.069688 0.307982 0.186267
H38   H     H_    0.152735 0.661273 0.611401 0.112031
H39   H     H_    0.192115 0.785386 0.660320 0.133678
H40   H     H_    0.269939 0.636651 0.734793 0.179922
H41   H     H_    0.178418 0.626726 0.741327 0.087554
H42   H     H_    0.217972 0.516633 0.691510 0.192783
H43   H     H_    0.880199 0.673558 0.343955 0.157579
H44   H     H_    0.841299 0.817966 0.347212 0.127889
H45   H     H_    0.640399 0.492791 0.529698 0.124604
H46   H     H_    0.721989 0.701240 0.321376 0.164024
H47   H     H_    0.776009 0.701665 0.252792 0.112971
H48   H     H_    0.773457 0.569642 0.308012 0.185836
H49   H     H_    0.310629 0.564137 0.477084 0.135436
H50   H     H_    0.140401 0.992797 0.529706 0.124333
H51   H     H_    0.810590 0.064153 0.477073 0.135449
H52   H     H_    0.723589 0.541713 0.423151 0.172163
O1    O     O_R   0.783230 0.287800 0.346510 -0.512684
O2    O     O_R   0.454570 0.285140 0.836900 -0.510643
O3    O     O_R   0.045430 0.785140 0.163100 -0.523161
O4    O     O_R   0.954570 0.785140 0.836900 -0.509780
O5    O     O_R   0.677850 0.374730 0.185500 -0.486603
O6    O     O_R   0.322150 0.374730 0.814500 -0.494053
O7    O     O_R   0.177850 0.874730 0.185500 -0.486241
O8    O     O_R   0.822150 0.874730 0.814500 -0.494309
O9    O     O_3   0.664630 0.164620 0.255130 -0.290168
O10   O     O_3   0.335370 0.164620 0.744870 -0.279538
O11   O     O_3   0.164630 0.664620 0.255130 -0.293682
O12   O     O_R   0.216770 0.287800 0.653490 -0.532064
O13   O     O_3   0.835370 0.664620 0.744870 -0.294749
O14   O     O_R   0.760130 0.037060 0.338610 -0.528321
O15   O     O_R   0.239870 0.037060 0.661390 -0.537268
O16   O     O_R   0.260130 0.537060 0.338610 -0.528190
O17   O     O_R   0.739870 0.537060 0.661390 -0.531886
O18   O     O_R   0.666620 0.921370 0.332440 -0.519822
O19   O     O_R   0.333380 0.921370 0.667560 -0.487667
O20   O     O_R   0.166620 0.421370 0.332440 -0.519552
O21   O     O_R   0.833380 0.421370 0.667560 -0.483398
O22   O     O_R   0.557170 0.082420 0.312350 -0.492084
O23   O     O_R   0.283230 0.787800 0.346510 -0.512661
O24   O     O_R   0.442830 0.082420 0.687650 -0.498714
O25   O     O_R   0.057170 0.582420 0.312350 -0.491751
O26   O     O_R   0.942830 0.582420 0.687650 -0.497691
O27   O     O_R   0.548310 0.285980 0.316250 -0.516996
O28   O     O_R   0.451690 0.285980 0.683750 -0.518156
O29   O     O_R   0.048310 0.785980 0.316250 -0.516835
O30   O     O_R   0.951690 0.785980 0.683750 -0.517664
O31   O     O_R   0.680520 0.375500 0.327470 -0.501092
O32   O     O_R   0.319480 0.375500 0.672530 -0.488910
O33   O     O_R   0.180520 0.875500 0.327470 -0.501053
O34   O     O_R   0.716770 0.787800 0.653490 -0.531530
O35   O     O_R   0.819480 0.875500 0.672530 -0.487267
O36   O     O_R   0.780350 0.286970 0.193350 -0.500345
O37   O     O_R   0.219650 0.286970 0.806650 -0.506370
O38   O     O_R   0.280350 0.786970 0.193350 -0.499964
O39   O     O_R   0.719650 0.786970 0.806650 -0.512488
O40   O     O_R   0.757460 0.036290 0.196640 -0.513029
O41   O     O_R   0.242540 0.036290 0.803360 -0.494750
O42   O     O_R   0.257460 0.536290 0.196640 -0.515027
O43   O     O_R   0.742540 0.536290 0.803360 -0.492625
O44   O     O_R   0.663740 0.920540 0.179290 -0.504642
O45   O     O_R   0.554500 0.081650 0.170370 -0.497071
O46   O     O_R   0.336260 0.920540 0.820710 -0.504527
O47   O     O_R   0.163740 0.420540 0.179290 -0.504537
O48   O     O_R   0.836260 0.420540 0.820710 -0.502796
O49   O     O_3   0.757353 0.187903 0.601338 -0.555783
O50   O     O_3   0.325391 0.191227 0.425958 -0.582529
O51   O     O_3   0.257379 0.687982 0.601388 -0.555418
O52   O     O_3   0.825428 0.691242 0.425963 -0.582449
O53   O     O_R   0.445500 0.081650 0.829630 -0.499212
O54   O     O_R   0.054500 0.581650 0.170370 -0.497199
O55   O     O_R   0.945500 0.581650 0.829630 -0.513692
O56   O     O_R   0.545430 0.285140 0.163100 -0.521581

loop_
_geom_bond_atom_site_label_1
_geom_bond_atom_site_label_2
_ccdc_geom_bond_type
C3    C104  S    
C45   O27   A    
C4    H38   S    
C23   O49   S    
C27   C98   S    
C89   C95   T    
C16   C21   S    
Cr10  O25   S    
C50   H1    S    
C68   C86   S    
C47   C92   S    
C104  H32   S    
C92   C96   T    
C57   C66   T    
C100  H50   S    
C70   C88   S    
C98   H45   S    
C41   C80   S    
C6    H43   S    
C103  H31   S    
C71   C94   S    
Cr3   O3    S    
C1    O18   A    
C61   C99   S    
C79   O43   A    
C3    H36   S    
C24   C61   S    
Cr1   O1    S    
C13   C18   S    
C90   C93   T    
C26   C83   S    
C32   C36   S    
C57   C76   S    
Cr11  O55   S    
C28   C29   S    
C17   O19   A    
C53   H26   S    
Cr4   O35   S    
C28   O20   A    
Cr8   O18   S    
C39   O21   A    
C43   C52   S    
C84   O4    A    
C54   C63   T    
C10   C94   S    
C16   C30   S    
C56   C65   T    
Cr9   O19   S    
C73   O32   A    
C30   C100  S    
Cr6   O23   S    
C3    H37   S    
Cr10  O20   S    
C62   C70   T    
C11   C99   S    
C34   C35   S    
C37   C42   S    
C10   C98   S    
Cr8   O44   S    
C24   C29   S    
C9    C13   S    
C85   O36   A    
C73   O12   A    
C11   C15   S    
C44   C53   S    
C72   H23   S    
C12   C16   S    
C27   C39   S    
C49   C51   S    
C48   C91   S    
C85   O5    A    
C71   O1    A    
C23   C27   S    
Cr1   O14   S    
C21   H11   S    
C35   C43   S    
C78   O42   A    
C69   C87   S    
C2    C61   S    
C77   O41   A    
C42   C51   S    
C83   H34   S    
C48   O26   A    
C51   H24   S    
C76   O44   A    
Cr9   O10   S    
Cr6   O16   S    
C26   C31   S    
C93   C95   S    
C18   C22   S    
Cr12  O9    S    
C55   C64   T    
C17   C30   S    
Cr2   O2    S    
C36   C41   S    
Cr6   O42   S    
C42   C81   S    
C102  H28   S    
Cr9   O46   S    
Cr5   O41   S    
C2    C11   S    
Cr5   O10   S    
C86   O37   A    
C41   C49   S    
Cr11  O13   S    
C75   O34   A    
C77   O46   A    
C15   C29   S    
C1    C31   S    
C15   C20   S    
C7    H46   S    
Cr7   O17   S    
C67   C85   S    
C15   H8    S    
C29   C99   S    
C2    C20   S    
C20   C24   S    
C34   C44   S    
C10   C14   S    
C50   C98   S    
Cr1   O9    S    
Cr5   O15   S    
Cr3   O29   S    
Cr12  O31   S    
C62   C66   S    
C50   C94   S    
C23   C50   S    
Cr2   O28   S    
C102  O49   S    
C44   C84   S    
C40   C52   S    
C7    H47   S    
C19   H9    S    
C33   C37   S    
C56   C77   S    
C37   H15   S    
C48   O30   A    
C86   O6    A    
Cr4   O13   S    
C104  H33   S    
Cr12  O56   S    
C19   C23   S    
C16   H5    S    
C87   O38   A    
C20   H10   S    
C36   H14   S    
C59   C68   T    
C80   O56   A    
C12   H3    S    
C37   C49   S    
C33   H19   S    
C45   O22   A    
C34   H20   S    
C8    C12   S    
C4    O51   S    
C104  O50   S    
C96   C97   S    
C8    C74   S    
C8    C21   S    
Cr2   O6    S    
Cr6   O38   S    
C25   C72   S    
C81   O2    A    
C91   C97   T    
Cr5   O37   S    
C45   C90   S    
C19   C94   S    
Cr9   O53   S    
C80   O45   A    
C2    C73   S    
C18   H6    S    
C6    O52   S    
Cr12  O5    S    
C60   C69   T    
C79   O48   A    
Cr11  O26   S    
C9    C83   S    
C60   C65   S    
Cr10  O11   S    
C5    H41   S    
Cr4   O4    S    
C22   H13   S    
C14   C27   S    
C25   O51   S    
C102  H27   S    
C88   O39   A    
C13   C101  S    
Cr7   O39   S    
C36   C51   S    
C13   H4    S    
C87   O7    A    
C52   C53   S    
C103  H29   S    
Cr1   O40   S    
Cr2   O32   S    
C54   C79   S    
C72   C100  S    
C40   H17   S    
C25   C30   S    
C55   C78   S    
Cr9   O24   S    
C21   C25   S    
C82   O3    A    
C75   O35   A    
C14   H7    S    
C83   C101  S    
Cr3   O11   S    
C34   C38   S    
C8    C72   S    
C14   C19   S    
C47   O25   A    
C26   O52   S    
C58   C63   S    
C46   O24   A    
C4    C5    S    
Cr1   O36   S    
C84   O55   A    
C78   O47   A    
C6    H44   S    
C1    O14   A    
C71   O31   A    
C6    C7    S    
C82   O54   A    
C74   O33   A    
C5    H40   S    
C101  H51   S    
C7    H48   S    
C3    H35   S    
C52   H25   S    
C88   O8    A    
C17   O15   A    
C33   C41   S    
C46   C89   S    
C35   C40   S    
C28   O16   A    
C38   C43   S    
C32   C33   S    
C32   H18   S    
Cr5   O12   S    
Cr8   O45   S    
C38   C53   S    
Cr3   O7    S    
Cr6   O11   S    
C31   C101  S    
Cr4   O8    S    
Cr11  O21   S    
Cr11  O48   S    
Cr7   O34   S    
C61   H12   S    
Cr3   O33   S    
Cr4   O30   S    
C102  C103  S    
C9    C22   S    
Cr7   O43   S    
C12   C100  S    
Cr8   O22   S    
C74   O23   A    
C39   O17   A    
C59   C64   S    
C58   C67   T    
C40   C44   S    
C4    H39   S    
C81   O53   A    
Cr10  O47   S    
C10   H52   S    
C5    H42   S    
C22   C26   S    
C46   O28   A    
Cr12  O27   S    
C43   C82   S    
C32   C42   S    
Cr7   O13   S    
C47   O29   A    
C18   C31   S    
C9    C75   S    
C99   H49   S    
C49   H22   S    
C11   H2    S    
Cr2   O10   S    
C35   H21   S    
C76   O40   A    
C103  H30   S    
C38   H16   S    
Cr8   O9    S    
Cr10  O54   S    
C24   O50   S    
