data_mof_unit_12847.cif
_audit_creation_date              2013-03-05T16:30:58-0500
_audit_creation_method            fapswitch 2.2
_symmetry_space_group_name_H-M    P1
_symmetry_Int_Tables_number       1
_space_group_crystal_system       triclinic
_cell_length_a                    13.035993
_cell_length_b                    10.747355
_cell_length_c                    9.617518
_cell_angle_alpha                 90.971391
_cell_angle_beta                  96.444666
_cell_angle_gamma                 91.040389
_cell_volume                      1338.45762077

loop_
_atom_site_label
_atom_site_type_symbol
_atom_site_description
_atom_site_fract_x
_atom_site_fract_y
_atom_site_fract_z
_atom_type_partial_charge
O1    O     O_R   0.500000 0.319640 0.618810 -0.543973
O2    O     O_R   0.500010 0.319680 0.381230 -0.584978
C1    C     C_R   0.499753 0.262900 0.498650 0.803296
O3    O     O_R   0.348990 0.499960 0.599490 -0.551290
O4    O     O_R   0.349000 0.500000 0.361910 -0.558023
C2    C     C_R   0.300628 0.506540 0.473253 0.829966
Cu1   Cu    Cu3+1 0.499990 0.499980 0.640670 1.020604
Cu2   Cu    Cu3+1 0.500010 0.500020 0.359330 1.040678
O5    O     O_R   0.499990 0.680320 0.618770 -0.603007
O6    O     O_R   0.500000 0.680360 0.381190 -0.538562
O7    O     O_R   0.651000 0.500000 0.638090 -0.585621
O8    O     O_R   0.651010 0.500040 0.400510 -0.591258
C3    C     C_R   0.500381 0.737372 0.500988 0.815898
C4    C     C_R   0.699227 0.498771 0.526391 0.817895
C5    C     C_R   0.811934 0.495435 0.540597 -0.067574
C6    C     C_R   0.187025 0.515111 0.456170 -0.181220
C7    C     C_R   0.021779 0.530487 0.310481 0.262915
C8    C     C_R   0.130125 0.543338 0.326537 -0.130010
C9    C     C_R   0.134340 0.493285 0.572751 -0.192173
C10   C     C_R   0.027234 0.492206 0.561374 0.090284
C11   C     C_R   0.970242 0.507800 0.429278 0.037312
C12   C     C_R   0.862714 0.508501 0.420700 -0.149238
C13   C     C_R   0.869137 0.479204 0.671004 -0.150372
C14   C     C_R   0.976392 0.476813 0.681195 -0.104041
H1    H     H_    0.817858 0.522945 0.321043 0.218624
H2    H     H_    0.831176 0.468342 0.764764 0.196096
H3    H     H_    0.019627 0.464577 0.782914 0.199698
H4    H     H_    0.176599 0.480128 0.674347 0.227406
C15   C     C_R   0.589870 0.067612 0.543228 0.078641
C16   C     C_R   0.500951 0.129830 0.493520 -0.034675
C17   C     C_R   0.415757 0.061893 0.427490 -0.085977
H5    H     H_    0.348329 0.109000 0.379788 0.146704
C18   C     C_R   0.415429 0.931968 0.430538 -0.096654
H6    H     H_    0.348386 0.879651 0.383277 0.194830
C19   C     C_R   0.499681 0.870945 0.500885 -0.098827
C20   C     C_R   0.588930 0.939591 0.548085 0.159541
C21   C     C_3   0.654852 0.941666 0.686060 -0.245480
C22   C     C_3   0.658484 0.083101 0.677451 -0.477479
H7    H     H_    0.612525 0.910273 0.772852 0.154870
H8    H     H_    0.620015 0.130539 0.760588 0.245281
H9    H     H_    0.735215 0.123519 0.660740 0.209928
C23   C     C_R   0.565524 0.577029 0.084055 0.134840
N1    N     N_R   0.500660 0.500930 0.148010 -0.237358
C24   C     C_R   0.444676 0.412722 0.063944 -0.007690
C25   C     C_R   0.444140 0.413287 0.915368 0.378106
N2    N     N_R   0.500660 0.500890 0.852110 -0.239600
C26   C     C_R   0.568126 0.573736 0.938102 0.168222
C27   C     C_3   0.583197 0.710613 0.930716 -0.531239
C28   C     C_3   0.574131 0.717269 0.087292 0.184116
H10   H     H_    0.661287 0.734292 0.901795 0.204164
H11   H     H_    0.518199 0.754939 0.866515 0.237058
C29   C     C_2   0.758318 0.882005 0.682653 0.898046
O9    O     O_2   0.776077 0.817676 0.582248 -0.583152
O10   O     O_R   0.833371 0.898775 0.797374 -0.710803
H12   H     H_    0.899269 0.853269 0.784864 0.356426
C30   C     C_2   0.386371 0.312162 0.124262 0.975710
O11   O     O_2   0.422674 0.208123 0.133339 -0.537419
O12   O     O_R   0.287077 0.332572 0.159586 -0.704764
H13   H     H_    0.254360 0.255374 0.196506 0.324979
N3    N     N_R   0.384553 0.319712 0.833164 0.138034
O13   O     O_R   0.285300 0.332485 0.809216 -0.357081
O14   O     O_R   0.421150 0.208088 0.827883 -0.335865
C31   C     C_2   0.670018 0.766209 0.176196 0.857677
O15   O     O_2   0.663872 0.847960 0.264631 -0.528569
O16   O     O_R   0.766178 0.717609 0.157236 -0.731778
H14   H     H_    0.823963 0.757357 0.223568 0.369910
N4    N     N_R   0.479051 0.780631 0.113823 0.142285
O17   O     O_R   0.391355 0.719666 0.098934 -0.350773
O18   O     O_R   0.477630 0.901720 0.114528 -0.284807
N5    N     N_R   0.964516 0.542817 0.174575 0.120122
O19   O     O_R   0.972980 0.643472 0.103061 -0.327439
O20   O     O_R   0.908954 0.449453 0.118131 -0.342530
C32   C     C_2   0.179057 0.607744 0.216215 1.015167
O21   O     O_2   0.187195 0.555349 0.104308 -0.493338
O22   O     O_R   0.205138 0.733847 0.236448 -0.759238
H15   H     H_    0.218233 0.776039 0.146600 0.378549

loop_
_geom_bond_atom_site_label_1
_geom_bond_atom_site_label_2
_geom_bond_distance
_ccdc_geom_bond_type
C31   O16   1.396168 S    
C25   N3    1.430603 S    
C28   C31   1.513655 S    
C32   O21   1.222276 D    
C9    C10   1.388034 A    
Cu2   N1    2.033530 S    
O22   H15   1.012451 S    
Cu1   Cu2   2.705829 S    
C25   N2    1.376330 A    
C29   O9    1.223687 D    
Cu1   O7    1.971502 S    
C15   C20   1.377349 A    
C21   C22   1.523875 S    
C20   C21   1.497396 S    
C3    C19   1.435768 S    
C16   C17   1.402255 A    
O7    C4    1.304190 A    
C30   O11   1.222730 D    
N3    O14   1.301363 A    
C13   H2    1.083177 S    
O5    C3    1.297649 A    
N2    C26   1.363886 A    
C27   H11   1.110557 S    
C26   C27   1.484533 S    
C12   H1    1.080364 S    
C15   C22   1.490730 S    
C13   C14   1.391338 A    
C14   H3    1.084102 S    
N5    O19   1.301300 A    
C5    C13   1.400602 A    
C7    N5    1.440027 S    
C11   C12   1.395057 A    
C32   O22   1.396315 S    
O3    Cu1   1.963813 S    
C29   O10   1.396995 S    
C7    C8    1.407485 A    
C5    C12   1.400370 A    
N4    O17   1.299842 A    
Cu1   N2    2.032424 S    
C10   C14   1.403046 A    
C22   H9    1.112532 S    
O3    C2    1.307358 A    
C21   C29   1.507323 S    
O12   H13   1.013649 S    
C7    C11   1.411389 A    
N3    O13   1.298693 A    
N4    O18   1.301771 A    
C19   C20   1.393874 A    
C1    C16   1.430590 S    
N1    C24   1.378923 A    
C15   C16   1.390648 A    
C24   C30   1.474002 S    
C17   H5    1.083015 S    
Cu2   O8    1.963814 S    
C17   C18   1.397086 A    
C18   H6    1.082073 S    
C9    H4    1.079299 S    
Cu2   O6    1.946003 S    
C27   C28   1.524262 S    
O8    C4    1.300395 A    
C8    C32   1.473976 S    
C23   N1    1.367816 A    
C24   C25   1.428276 A    
Cu1   O5    1.953135 S    
O10   H12   1.013945 S    
C28   N4    1.469980 S    
O1    Cu1   1.946006 S    
O2    Cu2   1.953135 S    
O6    C3    1.295223 A    
O4    Cu2   1.971500 S    
O2    C1    1.292991 A    
C21   H7    1.105097 S    
C22   H8    1.111844 S    
O4    C2    1.303806 A    
C6    C9    1.399930 A    
C27   H10   1.111285 S    
C18   C19   1.403047 A    
C30   O12   1.394812 S    
C23   C26   1.407778 A    
C23   C28   1.508874 S    
C2    C6    1.476307 S    
C31   O15   1.222402 D    
C10   C11   1.412056 A    
C6    C8    1.417732 A    
O16   H14   1.013953 S    
C4    C5    1.461381 S    
N5    O20   1.301163 A    
O1    C1    1.297144 A    
