data_mof_unit_13369.cif
_audit_creation_date              2012-12-10T19:47:43-0500
_audit_creation_method            fapswitch 2.2
_symmetry_space_group_name_H-M    P1
_symmetry_Int_Tables_number       1
_space_group_crystal_system       triclinic
_cell_length_a                    18.565956
_cell_length_b                    18.328172
_cell_length_c                    18.193022
_cell_angle_alpha                 119.870705
_cell_angle_beta                  90.323449
_cell_angle_gamma                 119.748886
_cell_volume                      4390.24613642

loop_
_atom_site_label
_atom_site_type_symbol
_atom_type_description
_atom_site_fract_x
_atom_site_fract_y
_atom_site_fract_z
_atom_type_partial_charge
C1    C     C_R   0.639563 0.779731 0.640378 0.785776
C2    C     C_R   0.226000 0.945221 0.151698 0.427064
C3    C     C_3   0.659590 0.252610 0.523584 0.116753
C4    C     C_3   0.735111 0.252591 0.490265 -0.353090
C5    C     C_3   0.711503 0.144135 0.426259 -0.975069
C6    C     C_R   0.190542 0.891235 0.191761 -0.246767
C7    C     C_R   0.358525 0.220075 0.359398 0.868257
C8    C     C_R   0.203378 0.948899 0.282413 -0.225243
C9    C     C_3   0.186330 0.936437 0.356874 0.853824
C10   C     C_3   0.261044 0.054310 0.420083 0.823147
C11   C     C_R   0.773668 0.584546 0.332409 -0.108819
C12   C     C_R   0.690671 0.496683 0.299931 -0.147393
C13   C     C_R   0.658763 0.412226 0.209691 0.507372
C14   C     C_R   0.716854 0.415892 0.159664 -0.326007
C15   C     C_3   0.666444 0.386951 0.660959 0.785063
C16   C     C_R   0.804602 0.503428 0.197213 -0.187340
C17   C     C_R   0.829915 0.591079 0.283275 0.015397
C18   C     C_3   0.907253 0.669973 0.371769 0.911734
C19   C     C_R   0.361642 0.501208 0.641950 0.905753
C20   C     C_3   0.840978 0.656353 0.422173 -0.566295
C21   C     C_R   0.786208 0.945867 0.737447 0.136192
C22   C     C_R   0.694830 0.891665 0.702602 -0.072364
C23   C     C_R   0.657273 0.947306 0.732641 -0.222990
C24   C     C_R   0.711312 0.054927 0.786685 -0.234080
C25   C     C_R   0.803675 0.108397 0.811672 -0.070668
C26   C     C_3   0.699165 0.503141 0.702119 -0.256070
C27   C     C_R   0.839548 0.052163 0.791353 0.127944
C28   C     C_3   0.909258 0.056616 0.749839 -0.477374
C29   C     C_3   0.850624 0.939742 0.690217 -0.480669
C30   C     C_R   0.301198 0.585341 0.338629 -0.028245
C31   C     C_R   0.638515 0.497158 0.359004 0.856865
C32   C     C_R   0.314454 0.507552 0.300369 -0.224183
C33   C     C_R   0.285292 0.439775 0.205270 0.468210
C34   C     C_R   0.228880 0.439101 0.153692 -0.335615
C35   C     C_R   0.205860 0.508797 0.194886 -0.106991
C36   C     C_R   0.248371 0.586531 0.286523 -0.064847
C37   C     C_3   0.802585 0.502952 0.801500 -0.279663
C38   C     C_3   0.214473 0.626700 0.360739 0.308211
C39   C     C_3   0.273168 0.624860 0.418382 0.305732
C40   C     C_R   0.258823 0.539601 0.704612 -0.129814
C41   C     C_R   0.312673 0.507598 0.705404 -0.180908
C42   C     C_R   0.320613 0.486564 0.769725 0.382280
C43   C     C_R   0.360126 0.500343 0.358249 0.831863
C44   C     C_R   0.268313 0.492865 0.827495 0.403987
C45   C     C_R   0.204963 0.510817 0.814503 -0.215374
C46   C     C_R   0.204950 0.538660 0.756160 -0.148188
C47   C     C_3   0.132945 0.505634 0.683882 0.363235
C48   C     C_3   0.765501 0.563568 0.861996 0.205644
C49   C     C_3   0.193563 0.507251 0.626912 0.352245
C50   C     C_R   0.860743 0.501541 0.140978 0.811030
C51   C     C_R   0.140779 0.501146 0.861053 0.875018
C52   C     C_R   0.140059 0.779929 0.139508 0.866264
C53   C     C_R   0.860208 0.220189 0.860834 0.780587
C54   C     C_R   0.141888 0.501106 0.141028 0.867177
C55   C     C_R   0.640988 0.500125 0.641495 0.955058
C56   C     C_R   0.859415 0.500585 0.858677 0.897149
C57   C     C_3   0.795017 0.556401 0.697272 -0.617734
C58   C     C_3   0.858858 0.558812 0.757174 0.894634
C59   C     C_3   0.724913 0.388585 0.725329 0.210089
C60   C     C_3   0.713572 0.578288 0.806671 0.808802
C61   C     C_3   0.660739 0.240660 0.726306 -0.218571
C62   C     C_3   0.592091 0.593375 0.801650 -0.300620
C63   C     C_3   0.747825 0.566055 0.991624 -0.211023
C64   C     C_3   0.235957 0.142703 0.172692 0.156287
C65   C     C_3   0.151221 0.070137 0.092310 -0.433075
C66   C     C_3   0.099740 0.116959 0.103796 -0.936168
C67   C     C_3   0.169668 0.869948 0.001038 -0.179716
C68   C     C_3   0.033202 0.850165 0.285477 -0.264213
C69   C     C_3   0.160981 0.814702 0.388898 0.186948
C70   C     C_R   0.262544 0.051818 0.335913 -0.194399
C71   C     C_3   0.212548 0.868427 0.486451 -0.426273
C72   C     C_3   0.162990 0.809821 0.526106 -0.934542
C73   C     C_3   0.281593 0.188808 0.564709 0.232890
C74   C     C_3   0.271059 0.142940 0.618666 -0.438619
C75   C     C_3   0.291216 0.218722 0.718077 -0.922846
C76   C     C_3   0.390738 0.053424 0.419410 0.099570
C77   C     C_3   0.442753 0.036904 0.467429 -0.317625
C78   C     C_3   0.481229 0.983176 0.406590 -0.986845
C79   C     C_3   0.526136 0.291521 0.094641 -0.278253
C80   C     C_3   0.924463 0.542615 0.359036 0.092997
C81   C     C_R   0.297250 0.108950 0.300758 -0.259250
C82   C     C_3   0.956425 0.546450 0.439405 -0.350777
C83   C     C_3   0.906783 0.439046 0.419038 -0.997204
C84   C     C_3   0.994588 0.852648 0.478353 0.109865
C85   C     C_3   0.961206 0.919453 0.495636 -0.332177
C86   C     C_3   0.013945 0.021767 0.588077 -0.953290
C87   C     C_3   0.954084 0.543620 0.671368 -0.247979
C88   C     C_3   0.369967 0.393374 0.130081 0.119186
C89   C     C_3   0.336032 0.352242 0.031378 -0.378621
C90   C     C_3   0.406516 0.358356 0.987197 -0.981094
C91   C     C_3   0.087230 0.465380 0.320568 -0.380568
C92   C     C_R   0.268784 0.053128 0.204592 0.407245
C93   C     C_3   0.327146 0.748687 0.571051 -0.314485
C94   C     C_3   0.419398 0.485440 0.849566 -0.308802
C95   C     C_3   0.315683 0.560916 0.976986 -0.315737
C96   C     C_3   0.051006 0.329367 0.637361 -0.159420
C97   C     C_3   0.968814 0.738977 0.815346 -0.403571
C98   C     C_3   0.117441 0.389932 0.474472 -0.306724
C99   C     C_3   0.809700 0.768825 0.922075 0.069933
C100  C     C_3   0.753348 0.777127 0.983157 -0.359205
C101  C     C_3   0.811325 0.863232 0.081507 -1.000563
C102  C     C_3   0.533358 0.330392 0.702098 -0.165092
H1    H     H_    0.818634 0.633245 0.714761 0.235178
H2    H     H_    0.825113 0.906566 0.617871 0.205820
H3    H     H_    0.270355 0.581905 0.003499 0.168955
H4    H     H_    0.032112 0.321873 0.692167 0.133265
H5    H     H_    0.114580 0.338131 0.637602 0.184463
H6    H     H_    0.000532 0.255842 0.572873 0.169722
H7    H     H_    0.939318 0.782700 0.840920 0.190206
H8    H     H_    0.962906 0.711965 0.744627 0.150660
H9    H     H_    0.040037 0.793944 0.854457 0.170084
H10   H     H_    0.163967 0.435577 0.452403 0.140458
H11   H     H_    0.066659 0.406055 0.487426 0.167049
H12   H     H_    0.082958 0.307434 0.418632 0.187817
H13   H     H_    0.878755 0.904937 0.704225 0.204795
H14   H     H_    0.837985 0.837685 0.921063 0.157388
H15   H     H_    0.869576 0.780515 0.952285 0.140262
H16   H     H_    0.710932 0.795349 0.963697 0.212361
H17   H     H_    0.711192 0.704741 0.977642 0.262307
H18   H     H_    0.853375 0.846552 0.104315 0.258712
H19   H     H_    0.769174 0.869385 0.124102 0.269613
H20   H     H_    0.853973 0.937957 0.090186 0.271271
H21   H     H_    0.493469 0.356787 0.694448 0.193709
H22   H     H_    0.578331 0.383455 0.771425 0.259130
H23   H     H_    0.487167 0.255360 0.691621 0.158710
H24   H     H_    0.198764 0.379407 0.082084 0.193121
H25   H     H_    0.601016 0.208856 0.465048 0.173595
H26   H     H_    0.642919 0.214044 0.558112 0.132986
H27   H     H_    0.752264 0.290910 0.455055 0.236068
H28   H     H_    0.794086 0.296952 0.548763 0.253485
H29   H     H_    0.690676 0.102499 0.458560 0.266615
H30   H     H_    0.770024 0.148508 0.408618 0.272522
H31   H     H_    0.657952 0.101108 0.363308 0.266616
H32   H     H_    0.238143 0.706199 0.386098 0.120657
H33   H     H_    0.240403 0.568650 0.435781 0.066871
H34   H     H_    0.124332 0.568345 0.705876 0.026832
H35   H     H_    0.218520 0.569083 0.615907 0.012934
H36   H     H_    0.824965 0.638041 0.916564 0.077250
H37   H     H_    0.757982 0.352860 0.687125 0.102392
H38   H     H_    0.722425 0.244793 0.723535 0.143240
H39   H     H_    0.794939 0.518612 0.627015 0.236881
H40   H     H_    0.608805 0.181628 0.659285 0.130547
H41   H     H_    0.636614 0.215387 0.770483 0.186041
H42   H     H_    0.627963 0.639783 0.775717 0.173368
H43   H     H_    0.582400 0.641202 0.862651 0.151365
H44   H     H_    0.525879 0.529802 0.750702 0.222078
H45   H     H_    0.753706 0.639440 0.029338 0.128780
H46   H     H_    0.813516 0.581660 0.009768 0.126694
H47   H     H_    0.704292 0.518045 0.013432 0.186962
H48   H     H_    0.277062 0.215547 0.178081 0.226781
H49   H     H_    0.218766 0.162897 0.235523 0.108582
H50   H     H_    0.694651 0.348032 0.092965 0.186626
H51   H     H_    0.167610 0.054082 0.029763 0.225050
H52   H     H_    0.108670 0.997092 0.086199 0.203996
H53   H     H_    0.081958 0.133637 0.165757 0.257007
H54   H     H_    0.038172 0.061775 0.045074 0.254337
H55   H     H_    0.139348 0.189153 0.107907 0.297029
H56   H     H_    0.105890 0.848675 0.013791 0.136468
H57   H     H_    0.155883 0.801312 0.936562 0.189877
H58   H     H_    0.195193 0.932502 0.991669 0.160338
H59   H     H_    0.017639 0.771675 0.246528 0.197123
H60   H     H_    0.044908 0.881939 0.245007 0.128632
H61   H     H_    0.839433 0.618178 0.454654 0.192961
H62   H     H_    0.973386 0.843538 0.300374 0.202393
H63   H     H_    0.150821 0.739148 0.346608 0.200002
H64   H     H_    0.093797 0.794395 0.380574 0.230108
H65   H     H_    0.275700 0.876130 0.489781 0.230394
H66   H     H_    0.226745 0.945820 0.527949 0.224892
H67   H     H_    0.147210 0.731325 0.485153 0.295504
H68   H     H_    0.101480 0.805168 0.529272 0.278211
H69   H     H_    0.204846 0.850448 0.595563 0.246009
H70   H     H_    0.259463 0.240527 0.592144 0.184579
H71   H     H_    0.351899 0.237797 0.572700 0.189360
H72   H     H_    0.836075 0.721825 0.463855 0.194318
H73   H     H_    0.202949 0.073784 0.590722 0.231365
H74   H     H_    0.316878 0.119956 0.613889 0.239843
H75   H     H_    0.362023 0.282906 0.749188 0.269048
H76   H     H_    0.276845 0.179459 0.752261 0.257325
H77   H     H_    0.250131 0.248601 0.727397 0.301453
H78   H     H_    0.437198 0.118082 0.415033 0.147296
H79   H     H_    0.351142 0.982406 0.350034 0.173724
H80   H     H_    0.495631 0.111979 0.528881 0.230551
H81   H     H_    0.399539 0.989120 0.489260 0.235495
H82   H     H_    0.427619 0.901886 0.352652 0.280681
H83   H     H_    0.586516 0.908220 0.711147 0.179930
H84   H     H_    0.527467 0.984216 0.446699 0.268300
H85   H     H_    0.516797 0.022240 0.374913 0.260439
H86   H     H_    0.534819 0.357792 0.097753 0.136822
H87   H     H_    0.455369 0.238360 0.081949 0.204298
H88   H     H_    0.542807 0.248622 0.037195 0.157850
H89   H     H_    0.943161 0.501594 0.302686 0.197370
H90   H     H_    0.851418 0.495378 0.335659 0.124992
H91   H     H_    0.027748 0.579738 0.455930 0.248125
H92   H     H_    0.946403 0.596264 0.499242 0.205063
H93   H     H_    0.836360 0.408383 0.410916 0.271110
H94   H     H_    0.680543 0.095685 0.805091 0.170168
H95   H     H_    0.935664 0.442563 0.475164 0.256635
H96   H     H_    0.911411 0.385844 0.356497 0.263727
H97   H     H_    0.066443 0.899746 0.492534 0.197321
H98   H     H_    0.986102 0.831712 0.527102 0.103397
H99   H     H_    0.966032 0.935825 0.444087 0.250542
H100  H     H_    0.890872 0.877628 0.490029 0.194409
H101  H     H_    0.017027 0.009405 0.641546 0.270675
H102  H     H_    0.982262 0.062641 0.600255 0.256151
H103  H     H_    0.081421 0.071364 0.590735 0.282876
H104  H     H_    0.016922 0.611043 0.727602 0.192083
H105  H     H_    0.917598 0.091817 0.712677 0.204457
H106  H     H_    0.932383 0.562664 0.630591 0.129307
H107  H     H_    0.967055 0.486644 0.625824 0.199735
H108  H     H_    0.403455 0.358802 0.134223 0.179475
H109  H     H_    0.421010 0.478305 0.171674 0.110340
H110  H     H_    0.277885 0.270774 0.993113 0.238737
H111  H     H_    0.315786 0.398297 0.027583 0.221941
H112  H     H_    0.467073 0.438268 0.026360 0.263462
H113  H     H_    0.381472 0.334400 0.918127 0.271800
H114  H     H_    0.422432 0.305479 0.982082 0.258931
H115  H     H_    0.085328 0.470564 0.383760 0.161311
H116  H     H_    0.971062 0.089193 0.798338 0.210755
H117  H     H_    0.123367 0.431708 0.288216 0.159197
H118  H     H_    0.018519 0.410962 0.273593 0.191562
H119  H     H_    0.331899 0.702864 0.591533 0.183242
H120  H     H_    0.261565 0.735770 0.566208 0.142554
H121  H     H_    0.377809 0.831226 0.624400 0.186345
H122  H     H_    0.380034 0.440640 0.875423 0.233378
H123  H     H_    0.451491 0.569366 0.898704 0.149728
H124  H     H_    0.471908 0.472587 0.841460 0.198716
H125  H     H_    0.339655 0.547122 0.021530 0.178790
H126  H     H_    0.374015 0.627431 0.982198 0.126917
O1    O     O_3   0.500000 0.500000 0.500000 -0.505683
O2    O     O_R   0.945140 0.268320 0.884430 -0.640422
O3    O     O_R   0.116800 0.560590 0.177500 -0.619330
O4    O     O_R   0.676800 0.731580 0.616070 -0.643097
O5    O     O_R   0.822390 0.439230 0.883130 -0.589811
O6    O     O_R   0.116800 0.439160 0.056060 -0.657877
O7    O     O_R   0.943840 0.560660 0.883130 -0.601524
O8    O     O_R   0.115490 0.731510 0.054770 -0.622885
O9    O     O_R   0.823160 0.268340 0.883890 -0.655121
O10   O     O_R   0.945140 0.560620 0.176740 -0.640946
O11   O     O_R   0.116030 0.439190 0.884430 -0.610997
O12   O     O_R   0.384470 0.439280 0.616070 -0.642278
O13   O     O_R   0.384470 0.268410 0.445190 -0.639168
O14   O     O_R   0.383920 0.560720 0.615530 -0.654535
O15   O     O_R   0.554810 0.439290 0.323210 -0.608762
O16   O     O_R   0.383160 0.560750 0.443890 -0.624495
O17   O     O_R   0.677560 0.560680 0.616830 -0.652701
O18   O     O_R   0.383160 0.439320 0.322450 -0.631574
O19   O     O_R   0.556120 0.439250 0.616830 -0.638483
O20   O     O_3   0.674344 0.336798 0.763247 -0.545921
O21   O     O_3   0.631101 0.552011 0.821103 -0.643226
O22   O     O_3   0.709788 0.512145 0.897809 -0.543108
O23   O     O_R   0.676800 0.560710 0.445190 -0.650335
O24   O     O_3   0.286166 0.101313 0.161021 -0.612666
O25   O     O_3   0.234730 0.897088 0.068221 -0.575601
O26   O     O_3   0.103416 0.916149 0.367695 -0.635854
O27   O     O_3   0.209685 0.872545 0.355739 -0.697007
O28   O     O_3   0.227794 0.111103 0.473070 -0.661068
O29   O     O_3   0.338966 0.078495 0.470055 -0.701707
O30   O     O_3   0.575844 0.322405 0.175902 -0.578392
O31   O     O_3   0.965852 0.644171 0.382374 -0.667489
O32   O     O_3   0.952990 0.767542 0.386125 -0.670752
O33   O     O_3   0.888350 0.497737 0.702529 -0.631728
O34   O     O_R   0.554810 0.731590 0.615530 -0.642632
O35   O     O_3   0.299219 0.363265 0.162944 -0.654560
O36   O     O_3   0.121265 0.562948 0.338334 -0.604777
O37   O     O_3   0.344222 0.724981 0.489627 -0.585667
O38   O     O_3   0.369179 0.446525 0.764513 -0.620627
O39   O     O_3   0.271520 0.469467 0.888494 -0.587056
O40   O     O_3   0.049477 0.409170 0.644520 -0.603347
O41   O     O_3   0.931878 0.660578 0.830062 -0.604243
O42   O     O_3   0.164197 0.409041 0.550208 -0.583931
O43   O     O_3   0.763572 0.682246 0.830218 -0.696793
O44   O     O_3   0.573248 0.314224 0.634981 -0.618719
O45   O     O_R   0.383920 0.268420 0.323210 -0.623342
O46   O     O_3   0.685887 0.355481 0.578684 -0.686035
O47   O     O_3   0.999960 0.499910 0.999960 -0.509244
O48   O     O_R   0.823160 0.439210 0.054770 -0.644740
O49   O     O_R   0.115490 0.560640 0.883890 -0.633803
O50   O     O_R   0.116030 0.731490 0.176740 -0.642524
Zn1   Zn    Zn3+2 0.457010 0.413240 0.543760 0.964734
Zn2   Zn    Zn3+2 0.456230 0.586760 0.542990 0.959918
Zn3   Zn    Zn3+2 0.456230 0.413270 0.369490 0.989285
Zn4   Zn    Zn3+2 0.630520 0.586730 0.543760 0.944490
Zn5   Zn    Zn3+2 0.042950 0.586670 0.956190 0.980291
Zn6   Zn    Zn3+2 0.043720 0.586650 0.130470 0.957934
Zn7   Zn    Zn3+2 0.043720 0.413150 0.956960 0.964958
Zn8   Zn    Zn3+2 0.869430 0.413180 0.956190 0.950692

loop_
_geom_bond_atom_site_label_1
_geom_bond_atom_site_label_2
_ccdc_geom_bond_type
C47   O40   S    
C96   O40   S    
C66   H54   S    
C48   H36   S    
C49   H35   S    
C47   H34   S    
C79   H88   S    
C87   H107  S    
C73   C74   S    
O13   Zn1   S    
C9    O26   S    
O14   Zn2   S    
C102  H23   S    
C97   O41   S    
C26   C55   S    
C90   H114  S    
C15   O44   S    
C47   C49   S    
C39   H33   S    
C77   C78   S    
C84   H98   S    
C61   O20   S    
C40   C46   A    
C12   C13   A    
C58   O41   S    
C52   O8    A    
C102  O44   S    
C10   O28   S    
C31   O15   A    
C28   C29   S    
C16   C50   S    
C66   H53   S    
C97   H9    S    
C3    H25   S    
C98   H12   S    
C93   O37   S    
C45   C51   S    
C43   O18   A    
C80   O31   S    
C40   C49   S    
C6    C52   S    
O16   Zn2   S    
C51   O49   A    
O18   Zn3   S    
C17   C18   S    
C34   C35   A    
C41   C42   A    
C5    H29   S    
C55   O17   A    
C91   H118  S    
C69   C71   S    
C75   H76   S    
C7    O45   A    
C69   H64   S    
C63   H47   S    
C82   H91   S    
C65   H51   S    
C95   H3    S    
C94   H123  S    
C95   H126  S    
C81   C92   A    
C84   C85   S    
C61   H41   S    
C5    H30   S    
C20   H72   S    
C35   C36   A    
C16   C17   A    
C88   H109  S    
C23   C24   A    
C101  H19   S    
C56   O7    A    
C93   H120  S    
C78   H84   S    
O1    Zn3   S    
C83   H95   S    
O47   Zn5   S    
C9    C10   S    
C87   O33   S    
C18   O32   S    
C37   C58   S    
C19   O14   A    
O2    Zn7   S    
C85   H99   S    
C53   O2    A    
C49   O42   S    
C92   O24   S    
O11   Zn7   S    
C1    C22   S    
C37   C56   S    
O50   Zn6   S    
C21   C22   A    
C35   C54   S    
C94   H122  S    
C80   H90   S    
C2    C6    A    
O8    Zn5   S    
C42   C44   A    
C102  H22   S    
O9    Zn8   S    
C86   H103  S    
C63   H45   S    
C90   H113  S    
C48   C60   S    
C44   O39   S    
C69   H63   S    
C68   H62   S    
C84   H97   S    
C57   H1    S    
C11   C20   S    
O12   Zn1   S    
C98   H10   S    
C74   C75   S    
C64   H49   S    
C13   C14   A    
C72   H69   S    
O3    Zn6   S    
C9    O27   S    
C76   C77   S    
C80   C82   S    
C79   H86   S    
C53   O9    A    
C99   H14   S    
C23   H83   S    
C83   H93   S    
C68   H59   S    
C3    H26   S    
C8    C9    S    
C98   H11   S    
C6    C8    A    
C76   H78   S    
C85   C86   S    
C20   H61   S    
C21   C29   S    
O1    Zn1   S    
O7    Zn5   S    
C3    C4    S    
C29   H13   S    
C29   H2    S    
C64   H48   S    
C73   H70   S    
O23   Zn4   S    
C72   H68   S    
C98   O42   S    
C91   H115  S    
C15   O46   S    
C5    H31   S    
C13   O30   S    
C91   O36   S    
C87   H104  S    
C74   H74   S    
C65   H52   S    
C38   O36   S    
C99   H15   S    
C73   O28   S    
C97   H7    S    
C61   H40   S    
C52   O50   A    
C95   O39   S    
O5    Zn8   S    
C59   H37   S    
O49   Zn5   S    
O34   Zn2   S    
C7    O13   A    
C77   H80   S    
C10   O29   S    
C31   O23   A    
C93   H121  S    
C100  H17   S    
C37   C59   S    
C24   C25   A    
C83   H96   S    
C2    C92   A    
O47   Zn6   S    
C18   O31   S    
C59   O20   S    
C85   H100  S    
C10   C70   S    
C40   C41   A    
C7    C81   S    
C96   H5    S    
C65   C66   S    
C68   H60   S    
C71   H66   S    
C58   O33   S    
C62   H44   S    
C60   O21   S    
C21   C27   A    
C80   H89   S    
C14   C16   A    
C56   O5    A    
C55   O19   A    
C42   O38   S    
C54   O6    A    
C50   O48   A    
C102  H21   S    
O47   Zn7   S    
C2    O25   S    
C86   H102  S    
C63   H46   S    
C90   H112  S    
C75   H77   S    
C44   C45   A    
C69   O27   S    
C3    O46   S    
C89   H111  S    
C76   O29   S    
C62   O21   S    
C96   H4    S    
C46   C47   S    
C11   C17   A    
C28   H116  S    
C37   C48   S    
C78   H82   S    
C101  H18   S    
C15   C59   S    
C62   H43   S    
C84   O32   S    
O48   Zn8   S    
C25   C53   S    
C4    C5    S    
C15   C26   S    
C4    H28   S    
C11   C12   A    
C39   O37   S    
C61   H38   S    
C4    H27   S    
C94   O38   S    
C30   C36   A    
C43   O16   A    
C25   C27   A    
O6    Zn7   S    
C54   O3    A    
C33   O35   S    
O1    Zn2   S    
C8    C70   A    
C101  H20   S    
C73   H71   S    
C57   H39   S    
O45   Zn3   S    
C72   H67   S    
C79   O30   S    
C36   C38   S    
C74   H73   S    
C12   C31   S    
C68   O26   S    
C99   C100  S    
C64   C65   S    
C30   C32   A    
C97   H8    S    
C1    O4    A    
C89   H110  S    
C57   C58   S    
C38   C39   S    
C26   C60   S    
O1    Zn4   S    
O19   Zn1   S    
C64   O24   S    
C34   H24   S    
C99   O43   S    
C100  C101  S    
C77   H81   S    
C32   C43   S    
C33   C34   A    
C30   C39   S    
C67   H56   S    
C18   C20   S    
C38   H32   S    
C60   O43   S    
C48   O22   S    
C32   C33   A    
C75   H75   S    
C26   C57   S    
C95   H125  S    
C87   H106  S    
C82   H92   S    
C93   H119  S    
O10   Zn6   S    
C94   H124  S    
C67   O25   S    
C1    O34   A    
C45   C46   A    
C50   O10   A    
C71   C72   S    
C63   O22   S    
C100  H16   S    
C88   C89   S    
C88   H108  S    
C82   C83   S    
C79   H87   S    
C14   H50   S    
O17   Zn4   S    
C28   H105  S    
C24   H94   S    
C22   C23   A    
C96   H6    S    
C67   H58   S    
C71   H65   S    
C78   H85   S    
C70   C81   A    
O4    Zn4   S    
C89   C90   S    
C19   O12   A    
O47   Zn8   S    
C91   H117  S    
C86   H101  S    
C66   H55   S    
O15   Zn3   S    
C76   H79   S    
C19   C41   S    
C88   O35   S    
C62   H42   S    
C67   H57   S    
C27   C28   S    
C51   O11   A    
