data_mof_unit_14750.cif
_audit_creation_date              2012-12-10T18:53:03-0500
_audit_creation_method            fapswitch 2.2
_symmetry_space_group_name_H-M    P1
_symmetry_Int_Tables_number       1
_space_group_crystal_system       triclinic
_cell_length_a                    9.833519
_cell_length_b                    10.673652
_cell_length_c                    16.712638
_cell_angle_alpha                 90.33925
_cell_angle_beta                  85.223842
_cell_angle_gamma                 88.982251
_cell_volume                      1747.73602428

loop_
_atom_site_label
_atom_site_type_symbol
_atom_type_description
_atom_site_fract_x
_atom_site_fract_y
_atom_site_fract_z
_atom_type_partial_charge
C1    C     C_R   0.498989 0.739897 0.499309 0.965997
C2    C     C_R   0.065415 0.588959 0.543225 0.621844
C3    C     C_R   0.079825 0.412282 0.457209 -0.333087
C4    C     C_R   0.919675 0.586519 0.543937 -0.342828
C5    C     C_R   0.481487 0.496043 0.653454 1.003714
C6    C     C_R   0.519161 0.498906 0.346859 1.053304
C7    C     C_R   0.472152 0.462611 0.738318 -0.398424
C8    C     C_R   0.534897 0.474710 0.261305 -0.366208
C9    C     C_R   0.568290 0.375129 0.764416 0.365763
C10   C     C_R   0.488999 0.360216 0.232754 0.367412
C11   C     C_R   0.552361 0.329557 0.842459 0.384142
C12   C     C_R   0.501012 0.259947 0.500886 0.976767
C13   C     C_R   0.523753 0.325037 0.153068 0.382180
C14   C     C_R   0.453300 0.384183 0.897689 -0.222890
C15   C     C_R   0.585787 0.412158 0.099716 -0.224391
C16   C     C_R   0.356486 0.470634 0.872400 0.331581
C17   C     C_R   0.632665 0.526605 0.128148 0.351363
C18   C     C_R   0.364857 0.509044 0.792191 0.281355
C19   C     C_R   0.609464 0.556827 0.209771 0.282477
C20   C     C_2   0.465099 0.366323 0.983246 -0.002140
C21   C     C_2   0.583673 0.391261 0.013579 -0.006417
C22   C     C_3   0.795377 0.384986 0.726225 -0.116473
C23   C     C_R   0.586863 0.932030 0.546915 -0.400701
C24   C     C_3   0.280850 0.281858 0.269937 -0.200417
C25   C     C_3   0.599946 0.125734 0.129922 -0.128020
C26   C     C_3   0.584456 0.120480 0.855353 -0.193038
C27   C     C_3   0.793061 0.062564 0.615721 -0.261058
C28   C     C_3   0.195791 0.928245 0.399563 -0.260102
C29   C     C_3   0.918526 0.203021 0.419901 -0.303994
C30   C     C_3   0.065641 0.790836 0.598036 -0.260524
C31   C     C_R   0.412402 0.067184 0.454426 -0.361955
C32   C     C_R   0.593343 0.061967 0.547398 0.537400
C33   C     C_R   0.406447 0.937607 0.453957 0.559709
C34   C     C_R   0.503035 0.127267 0.501192 -0.190335
C35   C     C_R   0.496884 0.872296 0.499672 -0.161325
C36   C     C_R   0.934679 0.410960 0.457285 0.623150
Cl1   Cl    Cl    0.667392 0.700338 0.246702 -0.520520
Cl2   Cl    Cl    0.247265 0.622948 0.761862 -0.497804
Cl3   Cl    Cl    0.229932 0.537264 0.942173 -0.493337
Cl4   Cl    Cl    0.713789 0.635190 0.061285 -0.498544
H1    H     H_    0.672191 0.417095 0.974216 0.204818
H2    H     H_    0.264205 0.250370 0.208060 0.205990
H3    H     H_    0.235558 0.377294 0.281205 0.167551
H4    H     H_    0.225570 0.216414 0.311428 0.135966
H5    H     H_    0.628686 0.115871 0.192672 0.180623
H6    H     H_    0.689062 0.156279 0.089752 0.157637
H7    H     H_    0.570972 0.031824 0.109014 0.214183
H8    H     H_    0.569388 0.102971 0.790952 0.182199
H9    H     H_    0.486351 0.110929 0.892987 0.170423
H10   H     H_    0.656049 0.047146 0.874401 0.195493
H11   H     H_    0.867077 0.130158 0.636511 0.194057
H12   H     H_    0.372705 0.354731 0.022743 0.199993
H13   H     H_    0.844855 0.011568 0.563087 0.116041
H14   H     H_    0.766782 0.997830 0.666249 0.161540
H15   H     H_    0.154088 0.971879 0.457401 0.112393
H16   H     H_    0.123467 0.855109 0.384038 0.203198
H17   H     H_    0.200218 0.998277 0.350678 0.169282
H18   H     H_    0.948147 0.183434 0.481555 0.139699
H19   H     H_    0.005795 0.183538 0.374978 0.137055
H20   H     H_    0.836623 0.137043 0.407808 0.210445
H21   H     H_    0.984845 0.787956 0.648531 0.166556
H22   H     H_    0.022650 0.822585 0.541879 0.111751
H23   H     H_    0.649276 0.875931 0.583918 0.165895
H24   H     H_    0.140570 0.861582 0.613665 0.200797
H25   H     H_    0.348873 0.121916 0.417419 0.197511
H26   H     H_    0.142361 0.343675 0.423042 0.167310
H27   H     H_    0.855639 0.652553 0.579706 0.164336
H28   H     H_    0.833773 0.351989 0.783252 0.190194
H29   H     H_    0.784727 0.489118 0.727003 0.142365
H30   H     H_    0.873509 0.359490 0.676813 0.156610
N1    N     N_R   0.142790 0.500030 0.500020 -0.133290
N2    N     N_R   0.857210 0.499970 0.499980 -0.126661
O1    O     O_R   0.385380 0.683250 0.500010 -0.543396
O2    O     O_3   0.420121 0.277953 0.284578 -0.599831
O3    O     O_3   0.487434 0.208472 0.126117 -0.609703
O4    O     O_3   0.641992 0.238628 0.866531 -0.603178
O5    O     O_3   0.675723 0.129738 0.595728 -0.555864
O6    O     O_3   0.325556 0.871191 0.404316 -0.570306
O7    O     O_3   0.868451 0.326570 0.411178 -0.566330
O8    O     O_3   0.133645 0.673445 0.588592 -0.529196
O9    O     O_R   0.614620 0.316750 0.499990 -0.535126
O10   O     O_R   0.614710 0.683220 0.500000 -0.641900
O11   O     O_R   0.385290 0.316780 0.500000 -0.651833
O12   O     O_R   0.371780 0.500040 0.615800 -0.558577
O13   O     O_R   0.628220 0.499960 0.384200 -0.565962
O14   O     O_R   0.601110 0.500010 0.615800 -0.605485
O15   O     O_R   0.398890 0.499990 0.384200 -0.606804
O16   O     O_3   0.672087 0.326286 0.711675 -0.543047
Zn1   Zn    Zn3+2 0.346870 0.500020 0.500000 1.038084
Zn2   Zn    Zn3+2 0.653130 0.499980 0.500000 1.042867

loop_
_geom_bond_atom_site_label_1
_geom_bond_atom_site_label_2
_ccdc_geom_bond_type
C30   H24   S    
C24   H2    S    
C2    C4    A    
C28   H16   S    
C27   H14   S    
C28   H17   S    
C6    O13   A    
C11   O4    S    
C26   H10   S    
C9    O16   S    
C11   C14   A    
C33   O6    S    
C31   H25   S    
C19   Cl1   S    
C17   C19   A    
C32   O5    S    
C29   H19   S    
N1    Zn1   S    
C26   O4    S    
C31   C33   A    
C13   O3    S    
C22   O16   S    
C28   O6    S    
C25   H7    S    
C22   H29   S    
C26   H8    S    
C30   O8    S    
C23   H23   S    
C28   H15   S    
C27   H11   S    
O11   Zn1   S    
C8    C19   A    
C14   C20   S    
O14   Zn2   S    
C26   H9    S    
C5    C7    S    
C5    O12   A    
C6    C8    S    
C1    O10   A    
C36   O7    S    
C6    O15   A    
C12   O11   A    
C25   O3    S    
C17   Cl4   S    
C32   C34   A    
C3    N1    A    
N2    Zn2   S    
C29   O7    S    
C29   H20   S    
C7    C18   A    
C31   C34   A    
C29   H18   S    
C9    C11   A    
C22   H28   S    
C21   H1    S    
C5    O14   A    
C16   C18   A    
C23   C35   A    
C13   C15   A    
C24   H4    S    
C14   C16   A    
C3    H26   S    
O12   Zn1   S    
O9    Zn2   S    
C12   C34   S    
C2    N1    A    
C25   H5    S    
C4    N2    A    
C1    C35   S    
C15   C17   A    
C27   O5    S    
C10   C13   A    
C4    H27   S    
O13   Zn2   S    
C27   H13   S    
O10   Zn2   S    
C1    O1    A    
C23   C32   A    
C30   H22   S    
C18   Cl2   S    
O1    Zn1   S    
C20   H12   S    
C10   O2    S    
C24   O2    S    
C3    C36   A    
C33   C35   A    
C12   O9    A    
C24   H3    S    
C2    O8    S    
C16   Cl3   S    
C7    C9    A    
C15   C21   S    
C20   C21   D    
C8    C10   A    
C30   H21   S    
O15   Zn1   S    
C25   H6    S    
C22   H30   S    
C36   N2    A    
