data_mof_unit_10235.cif
_audit_creation_date              2012-12-10T17:15:10-0500
_audit_creation_method            fapswitch 2.2
_symmetry_space_group_name_H-M    P1
_symmetry_Int_Tables_number       1
_space_group_crystal_system       triclinic
_cell_length_a                    15.858567
_cell_length_b                    13.002966
_cell_length_c                    11.804432
_cell_angle_alpha                 99.179834
_cell_angle_beta                  92.360869
_cell_angle_gamma                 93.277882
_cell_volume                      2395.93767462

loop_
_atom_site_label
_atom_site_type_symbol
_atom_type_description
_atom_site_fract_x
_atom_site_fract_y
_atom_site_fract_z
_atom_type_partial_charge
C1    C     C_R   0.498075 0.299494 0.479013 0.803268
C2    C     C_R   0.501926 0.700506 0.520987 0.803267
C3    C     C_R   0.471935 0.015462 0.346591 0.152812
C4    C     C_R   0.528070 0.984538 0.653407 0.152813
C5    C     C_R   0.475541 0.124597 0.359811 -0.185963
C6    C     C_R   0.524463 0.875403 0.640188 -0.185963
C7    C     C_R   0.512390 0.139709 0.562995 -0.284957
C8    C     C_R   0.487611 0.860291 0.437005 -0.284956
C9    C     C_R   0.510211 0.031336 0.554697 0.083732
C10   C     C_R   0.489792 0.968664 0.445302 0.083731
C11   C     C_R   0.422996 0.395233 0.028508 -0.339256
C12   C     C_R   0.577004 0.604767 0.971492 -0.339256
C13   C     C_R   0.430054 0.406454 0.148195 0.041808
C14   C     C_R   0.569946 0.593545 0.851805 0.041808
C15   C     C_R   0.534755 0.546383 0.153933 0.346975
C16   C     C_R   0.465245 0.453617 0.846067 0.346975
C17   C     C_R   0.528236 0.538348 0.031784 0.035272
C18   C     C_R   0.471764 0.461651 0.968216 0.035272
C19   C     C_R   0.340124 0.499760 0.501240 0.817423
C20   C     C_R   0.659876 0.500240 0.498759 0.817424
C21   C     C_3   0.969224 0.419246 0.546333 0.167921
C22   C     C_3   0.030775 0.580753 0.453667 0.167922
C23   C     C_3   0.022607 0.411125 0.439453 0.186854
C24   C     C_3   0.977393 0.588874 0.560547 0.186854
C25   C     C_1   0.250580 0.500037 0.503848 -0.177307
C26   C     C_1   0.749419 0.499963 0.496152 -0.177306
C27   C     C_3   0.030670 0.508811 0.610289 -0.236787
C28   C     C_3   0.969330 0.491189 0.389711 -0.236787
C29   C     C_3   0.083318 0.500385 0.502210 0.057001
C30   C     C_3   0.916682 0.499615 0.497789 0.057001
C31   C     C_1   0.175072 0.500240 0.504077 -0.048189
C32   C     C_1   0.824928 0.499760 0.495923 -0.048190
C33   C     C_R   0.504519 0.814005 0.533113 -0.094266
C34   C     C_R   0.495482 0.185995 0.466887 -0.094266
Cu1   Cu    Cu3+1 0.506200 0.507730 0.615930 0.933406
Cu2   Cu    Cu3+1 0.493800 0.492270 0.384070 0.933406
H1    H     H_    0.943262 0.483315 0.299793 0.148794
H2    H     H_    0.056738 0.516684 0.700207 0.148795
H3    H     H_    0.472335 0.810305 0.355667 0.162934
H4    H     H_    0.527665 0.189695 0.644332 0.162935
H5    H     H_    0.537745 0.836784 0.712790 0.169658
H6    H     H_    0.462259 0.163216 0.287209 0.169659
H7    H     H_    0.607994 0.644983 0.807873 0.131037
H8    H     H_    0.392006 0.355017 0.192127 0.131037
H9    H     H_    0.378919 0.333748 0.985014 0.157098
H10   H     H_    0.621081 0.666252 0.014986 0.157098
N1    N     N_R   0.515540 0.519350 0.790140 -0.178077
N2    N     N_R   0.484460 0.480650 0.209860 -0.178077
O1    O     O_R   0.504400 0.354460 0.582000 -0.591877
O2    O     O_R   0.495600 0.645540 0.418000 -0.591877
O3    O     O_R   0.493920 0.341410 0.386200 -0.592242
O4    O     O_R   0.506080 0.658590 0.613800 -0.592241
O5    O     O_R   0.384320 0.506520 0.597880 -0.582573
O6    O     O_R   0.615680 0.493480 0.402120 -0.582574
O7    O     O_R   0.373840 0.493460 0.402080 -0.576536
O8    O     O_R   0.626160 0.506540 0.597920 -0.576537
C35   C     C_3   0.049599 0.311537 0.368122 -0.870817
H11   H     H_    0.993224 0.257584 0.340021 0.232472
H12   H     H_    0.081238 0.330885 0.291376 0.231821
H13   H     H_    0.094597 0.273139 0.419565 0.233579
C36   C     C_3   0.950401 0.688463 0.631877 -0.870817
H14   H     H_    0.006776 0.742417 0.659976 0.232472
H15   H     H_    0.905403 0.726860 0.580434 0.233579
H16   H     H_    0.918763 0.669116 0.708624 0.231821
C37   C     C_3   0.930026 0.328827 0.599164 -0.389932
C38   C     C_3   0.996803 0.271899 0.656968 -0.830524
H17   H     H_    0.041230 0.237412 0.593662 0.255258
H18   H     H_    0.032803 0.326287 0.726688 0.246499
H19   H     H_    0.965397 0.207913 0.695040 0.240064
H20   H     H_    0.885467 0.360134 0.664301 0.203309
H21   H     H_    0.893786 0.273072 0.530865 0.204091
C39   C     C_3   0.069974 0.671172 0.400836 -0.389933
C40   C     C_3   0.003196 0.728099 0.343031 -0.830525
H22   H     H_    0.967193 0.673708 0.273315 0.246500
H23   H     H_    0.958771 0.762590 0.406338 0.255257
H24   H     H_    0.034601 0.792081 0.304952 0.240064
H25   H     H_    0.106213 0.726928 0.469134 0.204091
H26   H     H_    0.114532 0.639866 0.335698 0.203309
C41   C     C_3   0.449210 0.948383 0.229354 -0.407760
C42   C     C_3   0.429222 0.006742 0.129657 -0.862320
H27   H     H_    0.373952 0.054445 0.147742 0.248852
H28   H     H_    0.485013 0.057046 0.113702 0.252973
H29   H     H_    0.413122 0.949336 0.050425 0.247159
H30   H     H_    0.502753 0.899291 0.204750 0.201460
H31   H     H_    0.392601 0.896022 0.237281 0.205223
C43   C     C_3   0.550799 0.051617 0.770643 -0.407761
C44   C     C_3   0.570797 0.993259 0.870337 -0.862324
H32   H     H_    0.515007 0.942954 0.886300 0.252971
H33   H     H_    0.626065 0.945556 0.852243 0.248854
H34   H     H_    0.586902 0.050664 0.949567 0.247160
H35   H     H_    0.607406 0.103980 0.762711 0.205224
H36   H     H_    0.497257 0.100707 0.795254 0.201461
C45   C     C_3   0.400699 0.372046 0.782274 -0.811760
H37   H     H_    0.391694 0.369717 0.690436 0.276236
H38   H     H_    0.418525 0.293078 0.794733 0.190134
H39   H     H_    0.337287 0.386075 0.815969 0.196022
C46   C     C_3   0.599301 0.627954 0.217726 -0.811761
H40   H     H_    0.608306 0.630282 0.309564 0.276236
H41   H     H_    0.662713 0.613925 0.184031 0.196022
H42   H     H_    0.581475 0.706922 0.205267 0.190134

loop_
_geom_bond_atom_site_label_1
_geom_bond_atom_site_label_2
_ccdc_geom_bond_type
C25   C31   T    
C38   H18   S    
C5    H6    S    
C11   C18   A    
C26   C32   T    
C45   H37   S    
C22   C29   S    
Cu1   O5    S    
C40   H22   S    
Cu1   Cu2   S    
C24   C27   S    
C20   O8    A    
C3    C41   S    
C46   H40   S    
C16   C45   S    
C24   C36   S    
C23   C29   S    
C43   H35   S    
C41   H30   S    
C35   H12   S    
C38   H19   S    
C27   C29   S    
C27   H2    S    
C37   H20   S    
C15   C17   A    
C36   H15   S    
C39   H26   S    
C2    O2    A    
C6    H5    S    
C12   C17   A    
Cu1   O1    S    
C7    H4    S    
C8    H3    S    
C9    C10   A    
C19   O5    A    
C38   H17   S    
C21   C27   S    
Cu1   N1    S    
C45   H38   S    
C22   C28   S    
C40   H23   S    
C15   N2    A    
C15   C46   S    
C42   H29   S    
C16   N1    A    
C22   C39   S    
C46   H41   S    
C1    C34   S    
C12   H10   S    
C43   C44   S    
C42   H27   S    
C35   H13   S    
C37   H21   S    
C36   H16   S    
C39   H25   S    
C5    C34   A    
C17   C18   A    
C16   C18   A    
C23   C28   S    
C1    O3    A    
Cu2   O3    S    
C2    O4    A    
C2    C33   S    
C20   O6    A    
C12   C14   A    
C45   H39   S    
C21   C23   S    
C40   H24   S    
C22   C24   S    
C11   H9    S    
C4    C6    A    
C41   H31   S    
C46   H42   S    
Cu2   O2    S    
C19   O7    A    
C23   C35   S    
C21   C37   S    
Cu1   O8    S    
C39   C40   S    
C3    C5    A    
C13   N2    A    
C14   N1    A    
C21   C30   S    
C6    C33   A    
C28   C30   S    
C29   C31   S    
Cu2   O7    S    
C43   H36   S    
C30   C32   S    
C11   C13   A    
C35   H11   S    
C20   C26   S    
C28   H1    S    
C7    C34   A    
C42   H28   S    
Cu2   N2    S    
C8    C33   A    
C36   H14   S    
C19   C25   S    
C24   C30   S    
Cu2   O6    S    
C41   C42   S    
C7    C9    A    
C4    C43   S    
C44   H32   S    
C8    C10   A    
C37   C38   S    
C44   H34   S    
Cu1   O4    S    
C3    C10   A    
C44   H33   S    
C4    C9    A    
C1    O1    A    
C13   H8    S    
C14   H7    S    
