data_mof_unit_9764.cif
_audit_creation_date              2012-12-10T19:09:29-0500
_audit_creation_method            fapswitch 2.2
_symmetry_space_group_name_H-M    P1
_symmetry_Int_Tables_number       1
_space_group_crystal_system       triclinic
_cell_length_a                    15.278771
_cell_length_b                    14.901913
_cell_length_c                    9.702355
_cell_angle_alpha                 90.585129
_cell_angle_beta                  90.000046
_cell_angle_gamma                 90.0
_cell_volume                      2208.94528578

loop_
_atom_site_label
_atom_site_type_symbol
_atom_type_description
_atom_site_fract_x
_atom_site_fract_y
_atom_site_fract_z
_atom_type_partial_charge
C1    C     C_R   0.120686 0.377920 0.499914 0.825577
C2    C     C_R   0.881709 0.623934 0.500701 0.843433
C3    C     C_R   0.381709 0.876067 0.499299 0.843434
C4    C     C_R   0.381709 0.123933 0.500701 0.843433
C5    C     C_3   0.825998 0.244253 0.619011 -0.427859
C6    C     C_3   0.813075 0.255538 0.359569 -0.417846
C7    C     C_3   0.825998 0.755747 0.380988 -0.427861
C8    C     C_3   0.813075 0.744462 0.640431 -0.417846
C9    C     C_3   0.325998 0.744253 0.619011 -0.427859
C10   C     C_3   0.313075 0.755538 0.359569 -0.417846
C11   C     C_3   0.325998 0.255747 0.380988 -0.427861
C12   C     C_R   0.120686 0.622080 0.500086 0.825578
C13   C     C_3   0.313076 0.244462 0.640431 -0.417846
C14   C     C_3   0.257011 0.670599 0.613493 -0.408450
C15   C     C_3   0.242741 0.682663 0.362402 -0.444432
C16   C     C_3   0.257011 0.329401 0.386507 -0.408450
C17   C     C_3   0.242741 0.317336 0.637598 -0.444432
C18   C     C_3   0.757011 0.170599 0.613493 -0.408450
C19   C     C_3   0.742741 0.182664 0.362402 -0.444432
C20   C     C_3   0.757011 0.829401 0.386507 -0.408450
C21   C     C_3   0.742741 0.817336 0.637598 -0.444432
C22   C     C_3   0.724491 0.358791 0.514528 -0.401302
C23   C     C_R   0.620686 0.877920 0.499914 0.825577
C24   C     C_3   0.724491 0.641209 0.485471 -0.401302
C25   C     C_3   0.224491 0.858791 0.514528 -0.401302
C26   C     C_3   0.224491 0.141209 0.485471 -0.401302
C27   C     C_3   0.812675 0.309395 0.497910 0.145499
C28   C     C_3   0.812675 0.690605 0.502090 0.145500
C29   C     C_3   0.312675 0.809395 0.497910 0.145499
C30   C     C_3   0.312675 0.190605 0.502090 0.145500
C31   C     C_3   0.188364 0.691567 0.498842 0.146504
C32   C     C_3   0.188364 0.308433 0.501158 0.146504
C33   C     C_3   0.688364 0.191567 0.498842 0.146504
C34   C     C_R   0.620686 0.122080 0.500086 0.825578
C35   C     C_3   0.688364 0.808433 0.501158 0.146504
C36   C     C_3   0.146798 0.790910 0.510137 0.244197
C37   C     C_3   0.146798 0.209090 0.489863 0.244197
C38   C     C_3   0.646798 0.290910 0.510137 0.244197
C39   C     C_3   0.646798 0.709090 0.489863 0.244197
C40   C     C_3   0.043389 0.420018 0.079707 -0.239013
C41   C     C_3   0.043807 0.419933 0.917527 -0.228133
C42   C     C_3   0.043390 0.579981 0.920293 -0.239015
C43   C     C_3   0.043809 0.580066 0.082473 -0.228133
C44   C     C_3   0.543389 0.920018 0.079707 -0.239013
C45   C     C_3   0.908351 0.500305 0.081343 -0.232471
C46   C     C_3   0.543807 0.919933 0.917527 -0.228133
C47   C     C_3   0.543390 0.079981 0.920293 -0.239015
C48   C     C_3   0.543809 0.080066 0.082473 -0.228133
C49   C     C_3   0.084504 0.806332 0.637969 -0.399686
C50   C     C_3   0.121269 0.794368 0.784191 -0.355269
C51   C     C_3   0.060320 0.834404 0.893167 -0.971958
C52   C     C_3   0.090442 0.810696 0.376442 -0.452350
C53   C     C_3   0.039773 0.900707 0.374912 -0.397045
C54   C     C_3   0.001403 0.919510 0.232955 -0.922267
C55   C     C_3   0.084504 0.193668 0.362030 -0.399685
C56   C     C_3   0.908351 0.499697 0.918657 -0.232472
C57   C     C_3   0.121269 0.205631 0.215809 -0.355272
C58   C     C_3   0.060320 0.165595 0.106833 -0.971964
C59   C     C_3   0.090442 0.189304 0.623557 -0.452351
C60   C     C_3   0.039773 0.099292 0.625087 -0.397048
C61   C     C_3   0.001404 0.080489 0.767043 -0.922275
C62   C     C_3   0.584504 0.306332 0.637969 -0.399686
C63   C     C_3   0.621269 0.294368 0.784191 -0.355269
C64   C     C_3   0.560320 0.334404 0.893167 -0.971958
C65   C     C_3   0.590442 0.310696 0.376442 -0.452350
C66   C     C_3   0.539773 0.400707 0.374912 -0.397045
C67   C     C_3   0.408351 0.000305 0.081343 -0.232471
C68   C     C_3   0.501403 0.419510 0.232955 -0.922267
C69   C     C_3   0.584504 0.693668 0.362030 -0.399685
C70   C     C_3   0.621269 0.705631 0.215809 -0.355272
C71   C     C_3   0.560320 0.665595 0.106833 -0.971964
C72   C     C_3   0.590442 0.689304 0.623557 -0.452351
C73   C     C_3   0.539773 0.599293 0.625087 -0.397048
C74   C     C_3   0.501404 0.580489 0.767043 -0.922275
C75   C     C_3   0.408351 0.999698 0.918657 -0.232472
C76   C     C_R   0.881709 0.376067 0.499299 0.843434
H1    H     H_    0.822203 0.280133 0.719856 0.171863
H2    H     H_    0.877909 0.223687 0.342207 0.163487
H3    H     H_    0.555026 0.432440 0.158748 0.264941
H4    H     H_    0.461579 0.361882 0.195552 0.267125
H5    H     H_    0.458986 0.479965 0.238707 0.251137
H6    H     H_    0.484755 0.399851 0.449452 0.214667
H7    H     H_    0.583533 0.457268 0.402216 0.218584
H8    H     H_    0.633588 0.311761 0.284637 0.214460
H9    H     H_    0.542348 0.255934 0.359611 0.194516
H10   H     H_    0.561060 0.591345 0.111936 0.275138
H11   H     H_    0.492274 0.690160 0.121661 0.263912
H12   H     H_    0.583122 0.686103 0.003167 0.253301
H13   H     H_    0.891832 0.786140 0.387856 0.177016
H14   H     H_    0.625513 0.777062 0.192926 0.223382
H15   H     H_    0.686519 0.674559 0.202918 0.220383
H16   H     H_    0.560944 0.623351 0.364010 0.212775
H17   H     H_    0.526297 0.737601 0.373672 0.182445
H18   H     H_    0.555027 0.567561 0.841250 0.264943
H19   H     H_    0.461578 0.638116 0.804446 0.267127
H20   H     H_    0.458989 0.520033 0.761292 0.251139
H21   H     H_    0.484755 0.600149 0.550547 0.214668
H22   H     H_    0.583533 0.542732 0.597782 0.218586
H23   H     H_    0.633588 0.688238 0.715363 0.214461
H24   H     H_    0.877909 0.776313 0.657793 0.163487
H25   H     H_    0.542349 0.744066 0.640389 0.194517
H26   H     H_    0.391832 0.713860 0.612144 0.177015
H27   H     H_    0.377909 0.723687 0.342207 0.163487
H28   H     H_    0.391832 0.286140 0.387856 0.177016
H29   H     H_    0.377909 0.276313 0.657793 0.163487
H30   H     H_    0.290096 0.605580 0.589709 0.161139
H31   H     H_    0.274738 0.615534 0.355779 0.169297
H32   H     H_    0.290096 0.394420 0.410291 0.161139
H33   H     H_    0.800194 0.300802 0.271250 0.175829
H34   H     H_    0.274738 0.384466 0.644222 0.169297
H35   H     H_    0.790096 0.105579 0.589709 0.161139
H36   H     H_    0.774738 0.115534 0.355779 0.169297
H37   H     H_    0.790096 0.894420 0.410291 0.161139
H38   H     H_    0.774738 0.884466 0.644222 0.169297
H39   H     H_    0.230083 0.659339 0.716813 0.163348
H40   H     H_    0.202116 0.686257 0.267861 0.168042
H41   H     H_    0.230082 0.340661 0.283187 0.163349
H42   H     H_    0.202116 0.313742 0.732139 0.168042
H43   H     H_    0.730083 0.159339 0.716813 0.163348
H44   H     H_    0.822202 0.719868 0.280144 0.171864
H45   H     H_    0.702116 0.186257 0.267861 0.168042
H46   H     H_    0.730082 0.840661 0.283187 0.163349
H47   H     H_    0.702116 0.813742 0.732139 0.168042
H48   H     H_    0.724693 0.399768 0.610825 0.148448
H49   H     H_    0.719815 0.408917 0.430678 0.143185
H50   H     H_    0.724693 0.600232 0.389174 0.148448
H51   H     H_    0.719815 0.591083 0.569321 0.143186
H52   H     H_    0.224693 0.899768 0.610825 0.148448
H53   H     H_    0.219814 0.908917 0.430678 0.143185
H54   H     H_    0.224693 0.100232 0.389174 0.148448
H55   H     H_    0.800194 0.699198 0.728750 0.175828
H56   H     H_    0.219815 0.091083 0.569321 0.143186
H57   H     H_    0.009938 0.358633 0.116693 0.158687
H58   H     H_    0.012020 0.357730 0.877461 0.142096
H59   H     H_    0.009941 0.641367 0.883307 0.158688
H60   H     H_    0.012023 0.642270 0.122539 0.142095
H61   H     H_    0.509938 0.858633 0.116693 0.158687
H62   H     H_    0.512020 0.857730 0.877461 0.142096
H63   H     H_    0.509941 0.141367 0.883307 0.158688
H64   H     H_    0.512023 0.142270 0.122539 0.142095
H65   H     H_    0.112116 0.418441 0.117050 0.137602
H66   H     H_    0.322203 0.780132 0.719856 0.171863
H67   H     H_    0.112669 0.418116 0.880591 0.143472
H68   H     H_    0.112117 0.581557 0.882950 0.137602
H69   H     H_    0.112671 0.581881 0.119409 0.143472
H70   H     H_    0.612116 0.918441 0.117050 0.137602
H71   H     H_    0.612669 0.918116 0.880591 0.143472
H72   H     H_    0.612117 0.081557 0.882950 0.137602
H73   H     H_    0.612671 0.081881 0.119409 0.143472
H74   H     H_    0.871663 0.440977 0.119129 0.142516
H75   H     H_    0.872321 0.439621 0.880166 0.142934
H76   H     H_    0.871664 0.559026 0.880871 0.142516
H77   H     H_    0.300194 0.800802 0.271250 0.175829
H78   H     H_    0.872322 0.560382 0.119833 0.142934
H79   H     H_    0.371663 0.940977 0.119129 0.142516
H80   H     H_    0.372321 0.939621 0.880166 0.142934
H81   H     H_    0.371664 0.059026 0.880871 0.142516
H82   H     H_    0.372322 0.060382 0.119833 0.142934
H83   H     H_    0.061061 0.908654 0.888066 0.275137
H84   H     H_    0.992273 0.809840 0.878336 0.263912
H85   H     H_    0.083120 0.813894 0.996833 0.253299
H86   H     H_    0.125513 0.722937 0.807073 0.223382
H87   H     H_    0.186519 0.825441 0.797083 0.220381
H88   H     H_    0.322202 0.219868 0.280144 0.171864
H89   H     H_    0.060944 0.876649 0.635990 0.212774
H90   H     H_    0.026297 0.762399 0.626327 0.182445
H91   H     H_    0.055026 0.932440 0.158748 0.264941
H92   H     H_    0.961579 0.861882 0.195552 0.267125
H93   H     H_    0.958986 0.979965 0.238707 0.251137
H94   H     H_    0.984755 0.899851 0.449452 0.214667
H95   H     H_    0.083533 0.957268 0.402216 0.218584
H96   H     H_    0.133588 0.811761 0.284637 0.214460
H97   H     H_    0.042348 0.755934 0.359611 0.194516
H98   H     H_    0.061060 0.091345 0.111936 0.275138
H99   H     H_    0.300194 0.199198 0.728750 0.175828
H100  H     H_    0.992274 0.190160 0.121661 0.263912
H101  H     H_    0.083122 0.186103 0.003167 0.253301
H102  H     H_    0.125513 0.277062 0.192926 0.223382
H103  H     H_    0.186519 0.174559 0.202918 0.220383
H104  H     H_    0.060944 0.123351 0.364010 0.212775
H105  H     H_    0.026297 0.237601 0.373672 0.182445
H106  H     H_    0.055027 0.067561 0.841250 0.264943
H107  H     H_    0.961578 0.138116 0.804446 0.267127
H108  H     H_    0.958989 0.020033 0.761292 0.251139
H109  H     H_    0.984755 0.100149 0.550547 0.214668
H110  H     H_    0.891832 0.213860 0.612144 0.177015
H111  H     H_    0.083533 0.042732 0.597782 0.218586
H112  H     H_    0.133588 0.188238 0.715363 0.214461
H113  H     H_    0.042349 0.244066 0.640389 0.194517
H114  H     H_    0.561061 0.408654 0.888066 0.275137
H115  H     H_    0.492273 0.309840 0.878336 0.263912
H116  H     H_    0.583120 0.313894 0.996833 0.253299
H117  H     H_    0.625513 0.222937 0.807073 0.223382
H118  H     H_    0.686519 0.325441 0.797083 0.220381
H119  H     H_    0.560944 0.376649 0.635990 0.212774
H120  H     H_    0.526297 0.262399 0.626327 0.182445
N1    N     N_3   0.998760 0.500000 0.138610 -0.031247
N2    N     N_3   0.998760 0.500000 0.861390 -0.031248
N3    N     N_3   0.498760 0.000000 0.138610 -0.031247
N4    N     N_3   0.498760 0.000000 0.861390 -0.031248
O1    O     O_R   0.092530 0.407440 0.616040 -0.639343
O2    O     O_R   0.907330 0.407420 0.383960 -0.631115
O3    O     O_R   0.907330 0.592580 0.383960 -0.633951
O4    O     O_R   0.907330 0.592580 0.616040 -0.631116
O5    O     O_R   0.407330 0.907420 0.616040 -0.633951
O6    O     O_R   0.407330 0.907420 0.383960 -0.631115
O7    O     O_R   0.407330 0.092580 0.383960 -0.633951
O8    O     O_R   0.407330 0.092580 0.616040 -0.631116
O9    O     O_R   0.092530 0.407440 0.383960 -0.629472
O10   O     O_R   0.092530 0.592560 0.383960 -0.639344
O11   O     O_R   0.092530 0.592560 0.616040 -0.629472
O12   O     O_R   0.592530 0.907440 0.616040 -0.639343
O13   O     O_R   0.592530 0.907440 0.383960 -0.629472
O14   O     O_R   0.592530 0.092560 0.383960 -0.639344
O15   O     O_R   0.592530 0.092560 0.616040 -0.629472
O16   O     O_R   0.907330 0.407420 0.616040 -0.633951
Zn1   Zn    Zn3+2 0.999890 0.500000 0.654960 0.892283
Zn2   Zn    Zn3+2 0.999890 0.500000 0.345040 0.892283
Zn3   Zn    Zn3+2 0.499890 0.000000 0.654960 0.892283
Zn4   Zn    Zn3+2 0.499890 0.000000 0.345040 0.892283

loop_
_geom_bond_atom_site_label_1
_geom_bond_atom_site_label_2
_ccdc_geom_bond_type
C68   H4    S    
C66   C68   S    
C44   H61   S    
C50   H86   S    
C55   H104  S    
C74   H18   S    
C70   H15   S    
C62   H120  S    
C54   H91   S    
C1    O1    A    
C17   H34   S    
C52   H96   S    
C70   H14   S    
C53   C54   S    
C73   H21   S    
C6    C19   S    
O7    Zn4   S    
C60   H109  S    
O9    Zn2   S    
C5    H110  S    
C10   H27   S    
C25   H52   S    
C26   H54   S    
C41   H67   S    
C69   H17   S    
C10   C15   S    
C20   H37   S    
C76   O2    A    
C6    H2    S    
C23   O12   A    
C45   N1    S    
C14   H39   S    
C22   C38   S    
C51   H84   S    
C24   C39   S    
C67   H79   S    
C45   H74   S    
C73   C74   S    
C15   H31   S    
C3    C29   S    
C66   H7    S    
C5    C27   S    
C20   C35   S    
C75   H80   S    
C19   H45   S    
C47   C48   S    
C11   C30   S    
C72   H25   S    
C9    H26   S    
C24   H51   S    
C44   H70   S    
C39   C72   S    
C63   H117  S    
C11   H28   S    
C56   H76   S    
C69   H16   S    
C14   C31   S    
C20   H46   S    
C36   C52   S    
C9    C29   S    
C46   H62   S    
C75   H81   S    
C68   H3    S    
C25   H53   S    
C59   C60   S    
C48   H73   S    
C24   H50   S    
C54   H93   S    
C58   H98   S    
C64   H115  S    
C62   H119  S    
C7    H44   S    
C10   H77   S    
C41   H58   S    
C64   H116  S    
O13   Zn4   S    
C44   C46   S    
C4    O8    A    
C56   N2    S    
C25   C29   S    
C73   H22   S    
O11   Zn1   S    
C61   H107  S    
C48   H64   S    
C48   N3    S    
C1    O9    A    
C3    O5    A    
C74   H20   S    
C13   C30   S    
C42   N2    S    
C2    O4    A    
C18   H35   S    
C45   C56   S    
C72   C73   S    
C13   H29   S    
C34   O14   A    
C57   H103  S    
C53   H95   S    
C41   N2    S    
C65   H8    S    
C5    C18   S    
O6    Zn4   S    
C75   N4    S    
C7    C20   S    
C1    C32   S    
C7    C28   S    
C71   H12   S    
C60   C61   S    
C21   H47   S    
C35   C39   S    
C9    C14   S    
C46   H71   S    
C49   H89   S    
C62   C63   S    
C43   H69   S    
O15   Zn3   S    
C66   H6    S    
C71   H10   S    
C11   C16   S    
C76   O16   A    
C46   N4    S    
C6    C27   S    
C38   C65   S    
C55   H105  S    
C8    H55   S    
C50   C51   S    
C39   C69   S    
C63   H118  S    
C59   H112  S    
C43   N1    S    
C19   H36   S    
C32   C37   S    
O16   Zn1   S    
C56   H75   S    
C15   C31   S    
C37   C59   S    
C17   H42   S    
C71   H11   S    
C53   H94   S    
C40   C41   S    
C2    O3    A    
C26   C30   S    
C60   H111  S    
C23   C35   S    
C22   C27   S    
C55   C57   S    
C12   C31   S    
C19   C33   S    
C8    C28   S    
C6    H33   S    
C47   N4    S    
C59   H113  S    
N2    Zn1   S    
C67   C75   S    
C42   C43   S    
C68   H5    S    
C5    H1    S    
C27   C76   S    
C70   C71   S    
C26   H56   S    
C52   C53   S    
C4    O7    A    
C23   O13   A    
C13   H99   S    
C47   H72   S    
O5    Zn3   S    
C61   H108  S    
O3    Zn2   S    
C50   H87   S    
C31   C36   S    
C3    O6    A    
C74   H19   S    
C58   H100  S    
N3    Zn4   S    
C24   C28   S    
C12   O11   A    
C54   H92   S    
C21   H38   S    
C22   H49   S    
C8    C21   S    
C58   H101  S    
C61   H106  S    
C64   H114  S    
C9    H66   S    
C26   C37   S    
C22   H48   S    
C21   C35   S    
O12   Zn3   S    
C16   C32   S    
C40   H57   S    
C67   N3    S    
C33   C38   S    
O10   Zn2   S    
C13   C17   S    
O4    Zn1   S    
C34   O15   A    
O2    Zn2   S    
C8    H24   S    
O1    Zn1   S    
C49   H90   S    
C65   H9    S    
O14   Zn4   S    
C16   H41   S    
C42   H68   S    
C10   C29   S    
C57   C58   S    
C57   H102  S    
O8    Zn3   S    
C52   H97   S    
C51   H83   S    
C11   H88   S    
C33   C34   S    
C51   H85   S    
C67   H82   S    
C65   C66   S    
C43   H60   S    
C18   C33   S    
C69   C70   S    
C16   H32   S    
C25   C36   S    
C12   O10   A    
C63   C64   S    
C37   C55   S    
C14   H30   S    
C44   N3    S    
C49   C50   S    
C40   N1    S    
C47   H63   S    
C17   C32   S    
C15   H40   S    
C42   H59   S    
C2    C28   S    
C45   H78   S    
N4    Zn3   S    
C40   H65   S    
C18   H43   S    
C4    C30   S    
C36   C49   S    
N1    Zn2   S    
C38   C62   S    
C72   H23   S    
C7    H13   S    
