data_mof_unit_16456.cif
_audit_creation_date              2012-12-10T16:51:33-0500
_audit_creation_method            fapswitch 2.2
_symmetry_space_group_name_H-M    P1
_symmetry_Int_Tables_number       1
_space_group_crystal_system       triclinic
_cell_length_a                    7.81424
_cell_length_b                    8.574909
_cell_length_c                    12.609032
_cell_angle_alpha                 92.45783
_cell_angle_beta                  102.601287
_cell_angle_gamma                 93.927903
_cell_volume                      821.145003969

loop_
_atom_site_label
_atom_site_type_symbol
_atom_type_description
_atom_site_fract_x
_atom_site_fract_y
_atom_site_fract_z
_atom_type_partial_charge
C1    C     C_R   0.044378 0.794596 0.497239 0.957256
C2    C     C_R   0.190970 0.590472 0.820376 -0.130251
C3    C     C_2   0.067586 0.958172 0.495758 -0.378289
C4    C     C_R   0.114845 0.532210 0.706971 0.864613
C5    C     C_2   0.932603 0.041858 0.504605 -0.385078
C6    C     C_R   0.955696 0.205428 0.502898 0.979022
C7    C     C_R   0.889654 0.486975 0.292069 0.875644
C8    C     C_R   0.854921 0.403609 0.995750 -0.185276
C9    C     C_R   0.826136 0.477310 0.176233 -0.053982
C10   C     C_R   0.083775 0.653353 0.884107 -0.217386
C11   C     C_R   0.147275 0.683185 0.995516 -0.119869
C12   C     C_R   0.428455 0.585930 0.981264 0.077814
C13   C     C_R   0.314122 0.641915 0.045033 -0.197043
C14   C     C_R   0.371757 0.580359 0.867409 0.096029
C15   C     C_R   0.596221 0.532865 0.024875 0.078146
C16   C     C_R   0.698511 0.472083 0.954471 0.163497
C17   C     C_R   0.650264 0.492183 0.844393 -0.281309
C18   C     C_R   0.498449 0.562404 0.804559 -0.183622
C19   C     C_R   0.665506 0.537340 0.135638 -0.270547
C20   C     C_R   0.919570 0.406896 0.107146 -0.208148
H1    H     H_    0.043025 0.357416 0.139031 0.162491
H2    H     H_    0.062833 0.729835 0.044656 0.155469
H3    H     H_    0.194933 0.009178 0.487346 0.178957
H4    H     H_    0.484119 0.605165 0.725125 0.171229
H5    H     H_    0.805272 0.990846 0.513046 0.178278
H6    H     H_    0.471404 0.366262 0.426459 0.190362
H7    H     H_    0.528639 0.640735 0.566082 0.172666
H8    H     H_    0.733818 0.461160 0.790122 0.186157
H9    H     H_    0.930526 0.353870 0.941963 0.152173
H10   H     H_    0.598877 0.591016 0.192114 0.160776
H11   H     H_    0.950548 0.678088 0.848072 0.164043
H12   H     H_    0.348617 0.656119 0.132542 0.135080
N1    N     N_2   0.434800 0.456690 0.470850 -0.176172
N2    N     N_2   0.565200 0.543310 0.529150 -0.182910
O1    O     O_R   0.893060 0.738880 0.507150 -0.615738
O2    O     O_R   0.172250 0.711130 0.488470 -0.636581
O3    O     O_R   0.944700 0.520730 0.667600 -0.630639
O4    O     O_R   0.223890 0.492980 0.648920 -0.622824
O5    O     O_R   0.827750 0.288870 0.511530 -0.626281
O6    O     O_R   0.106940 0.261120 0.492850 -0.608954
O7    O     O_R   0.776110 0.507020 0.351080 -0.628447
O8    O     O_R   0.055300 0.479270 0.332400 -0.623279
Zn1   Zn    Zn3+2 0.813580 0.518530 0.512470 0.928321
Zn2   Zn    Zn3+2 0.186420 0.481470 0.487530 0.934598

loop_
_geom_bond_atom_site_label_1
_geom_bond_atom_site_label_2
_ccdc_geom_bond_type
O3    Zn1   S    
C2    C4    S    
O4    Zn2   S    
O1    Zn1   S    
C14   C18   A    
C13   H12   S    
C3    H3    S    
C12   C15   A    
O6    Zn2   S    
C20   H1    S    
N1    N2    D    
C19   H10   S    
C8    C16   A    
C12   C13   A    
C15   C19   A    
O7    Zn1   S    
C8    C20   A    
O8    Zn2   S    
C18   H4    S    
C8    H9    S    
C12   C14   A    
C17   C18   A    
C7    O7    A    
H7    N2    S    
C5    C6    S    
C2    C14   A    
C9    C20   A    
C6    O6    A    
O2    Zn2   S    
C10   C11   A    
C15   C16   A    
C2    C10   A    
C3    C5    D    
C11   C13   A    
C4    O3    A    
C1    O1    A    
C11   H2    S    
C7    O8    A    
C7    C9    S    
C6    O5    A    
O5    Zn1   S    
H6    N1    S    
C1    C3    S    
C17   H8    S    
C10   H11   S    
C9    C19   A    
N2    Zn1   S    
C1    O2    A    
C4    O4    A    
C16   C17   A    
N1    Zn2   S    
C5    H5    S    
