data_mof_unit_32833.cif
_audit_creation_date              2012-12-11T15:14:43-0500
_audit_creation_method            fapswitch 2.2
_symmetry_space_group_name_H-M    P1
_symmetry_Int_Tables_number       1
_space_group_crystal_system       triclinic
_cell_length_a                    22.29856
_cell_length_b                    7.225825
_cell_length_c                    19.29483
_cell_angle_alpha                 89.993838
_cell_angle_beta                  98.727732
_cell_angle_gamma                 89.998067
_cell_volume                      3072.8897632

loop_
_atom_site_label
_atom_site_type_symbol
_atom_type_description
_atom_site_fract_x
_atom_site_fract_y
_atom_site_fract_z
_atom_type_partial_charge
O1    O     O_R   0.448470 0.506130 0.415700 -0.531455
O2    O     O_R   0.551530 0.006130 0.584300 -0.531462
O3    O     O_R   0.436320 0.174490 0.555800 -0.521626
O4    O     O_R   0.563680 0.674490 0.444200 -0.521591
C1    C     C_R   0.421713 0.344195 0.575892 0.727259
C2    C     C_R   0.578298 0.844203 0.424117 0.727279
O5    O     O_R   0.441350 0.176340 0.414480 -0.523065
O6    O     O_R   0.558650 0.676340 0.585520 -0.523089
O7    O     O_R   0.556600 0.007100 0.441970 -0.531317
O8    O     O_R   0.443400 0.507100 0.558030 -0.531330
C3    C     C_R   0.424858 0.344788 0.391022 0.751797
C4    C     C_R   0.575132 0.844771 0.608989 0.751778
O9    O     O_3   0.537810 0.339550 0.509190 -0.366553
O10   O     O_3   0.462190 0.839550 0.490810 -0.366547
V1    V     V_3+5 0.492990 0.064280 0.498300 1.566347
V2    V     V_3+5 0.507010 0.564280 0.501700 1.566386
C5    C     C_R   0.874047 0.833581 0.701004 0.225603
C6    C     C_R   0.125947 0.332811 0.298923 0.225612
C7    C     C_R   0.885617 0.934882 0.821977 -0.104022
C8    C     C_R   0.114367 0.434771 0.178024 -0.104079
C9    C     C_R   0.590828 0.856660 0.738590 0.094603
C10   C     C_R   0.409164 0.356997 0.261429 0.094598
C11   C     C_R   0.628046 0.865024 0.803924 0.211511
C12   C     C_R   0.371952 0.365528 0.196094 0.211474
C13   C     C_R   0.690684 0.880133 0.807756 -0.159686
C14   C     C_R   0.309312 0.380513 0.192263 -0.159683
C15   C     C_R   0.718830 0.893009 0.747449 0.048615
C16   C     C_R   0.281155 0.393083 0.252571 0.048615
C17   C     C_R   0.682281 0.854906 0.681293 -0.029307
C18   C     C_R   0.317702 0.354812 0.318719 -0.029324
C19   C     C_R   0.783544 0.914202 0.752586 0.011047
C20   C     C_R   0.216434 0.414091 0.247427 0.011028
C21   C     C_R   0.811048 0.871930 0.692533 -0.025334
C22   C     C_R   0.188928 0.371406 0.307439 -0.025340
C23   C     C_R   0.774224 0.855692 0.627003 0.198555
C24   C     C_R   0.225737 0.355052 0.372966 0.198557
C25   C     C_R   0.712462 0.820075 0.623134 0.057702
C26   C     C_R   0.287516 0.319677 0.376852 0.057763
C27   C     C_R   0.822693 0.972504 0.814915 0.087896
C28   C     C_R   0.177281 0.472570 0.185123 0.087913
C29   C     C_R   0.909737 0.860291 0.765710 -0.210732
C30   C     C_R   0.090259 0.359772 0.234234 -0.210523
C31   C     C_R   0.617270 0.849949 0.676647 -0.142317
C32   C     C_R   0.382716 0.350022 0.323370 -0.142305
C33   C     C_3   0.773836 0.802997 0.307526 -0.166586
C34   C     C_3   0.226326 0.302018 0.692756 -0.166759
C35   C     C_3   0.797479 0.990169 0.282944 -0.112043
C36   C     C_3   0.202414 0.489214 0.716984 -0.112305
C37   C     C_1   0.875153 0.941948 0.121113 -0.110840
C38   C     C_1   0.124881 0.441969 0.878926 -0.110894
C39   C     C_1   0.624062 0.852756 0.378159 -0.085887
C40   C     C_1   0.375961 0.352740 0.621865 -0.085940
C41   C     C_3   0.767739 0.729528 0.231325 0.152708
C42   C     C_3   0.232606 0.229551 0.769116 0.152613
C43   C     C_3   0.790855 0.915669 0.207324 0.060556
C44   C     C_3   0.209218 0.415708 0.792762 0.060601
C45   C     C_3   0.701926 0.802660 0.216336 0.179431
C46   C     C_3   0.298307 0.303679 0.783882 0.179540
C47   C     C_3   0.708261 0.877093 0.291853 0.037884
C48   C     C_3   0.291789 0.377115 0.708205 0.037995
C49   C     C_3   0.725341 0.989423 0.191644 -0.144494
C50   C     C_3   0.274621 0.490455 0.808222 -0.144361
C51   C     C_3   0.731365 0.063803 0.267895 -0.112981
C52   C     C_3   0.268415 0.563839 0.731810 -0.113094
C53   C     C_1   0.837073 0.932519 0.159854 0.072910
C54   C     C_1   0.162983 0.432553 0.840213 0.072816
C55   C     C_1   0.662097 0.861915 0.339390 0.065125
C56   C     C_1   0.337938 0.361913 0.660648 0.064949
O11   O     O_R   0.056650 0.288730 0.942060 -0.532403
O12   O     O_R   0.943350 0.788730 0.057940 -0.532398
O13   O     O_R   0.058660 0.616870 0.085540 -0.524635
O14   O     O_R   0.941340 0.116870 0.914460 -0.524675
C57   C     C_R   0.073229 0.448305 0.110470 0.729744
C58   C     C_R   0.926770 0.948327 0.889528 0.729681
O15   O     O_R   0.063700 0.618520 0.944220 -0.528448
O16   O     O_R   0.936300 0.118520 0.055780 -0.528438
O17   O     O_R   0.948460 0.787610 0.915680 -0.538940
O18   O     O_R   0.051540 0.287610 0.084320 -0.538954
C59   C     C_R   0.078912 0.450251 0.924656 0.716628
C60   C     C_R   0.921097 0.950246 0.075353 0.716721
O19   O     O_3   0.962230 0.453430 0.990860 -0.369464
O20   O     O_3   0.037770 0.953430 0.009140 -0.369435
V3    V     V_3+5 0.007010 0.728750 0.001700 1.529993
V4    V     V_3+5 0.992990 0.228750 0.998300 1.529947
H1    H     H_    0.957237 0.821356 0.772422 0.146929
H2    H     H_    0.042774 0.320662 0.227480 0.147036
H3    H     H_    0.793516 0.725375 0.355253 0.186196
H4    H     H_    0.206729 0.223573 0.645203 0.185898
H5    H     H_    0.715908 0.201670 0.283447 0.178498
H6    H     H_    0.283634 0.701710 0.715947 0.178210
H7    H     H_    0.705552 0.066664 0.143868 0.188866
H8    H     H_    0.294332 0.568496 0.855829 0.189113
I1    I     I_    0.625632 0.656276 0.162272 -0.204266
I2    I     I_    0.374895 0.158907 0.838134 -0.203212
I3    I     I_    0.800704 0.469228 0.200738 -0.400719
I4    I     I_    0.200125 0.969245 0.800374 -0.400506
I5    I     I_    0.802942 0.949683 0.531998 -0.268146
I6    I     I_    0.196908 0.448397 0.467963 -0.268120
I7    I     I_    0.917674 0.677037 0.629347 -0.243736
I8    I     I_    0.082387 0.175469 0.370416 -0.243594
I9    I     I_    0.794166 0.160643 0.889838 -0.351867
I10   I     I_    0.205779 0.661159 0.110317 -0.351564
I11   I     I_    0.494224 0.842744 0.733412 -0.270553
I12   I     I_    0.505766 0.343140 0.266615 -0.270488
H9    H     H_    0.717245 0.868872 0.859036 0.173797
H10   H     H_    0.282758 0.369398 0.140975 0.173804
I13   I     I_    0.593500 0.853423 0.900607 -0.156983
I14   I     I_    0.406514 0.354381 0.099409 -0.156804
I15   I     I_    0.685065 0.607123 0.548986 -0.310109
I16   I     I_    0.315001 0.106893 0.451005 -0.310190
H11   H     H_    0.837028 0.068349 0.310162 0.177900
H12   H     H_    0.162729 0.566626 0.689656 0.177493

loop_
_geom_bond_atom_site_label_1
_geom_bond_atom_site_label_2
_ccdc_geom_bond_type
C46   C50   S    
C41   I3    S    
O1    C3    A    
C52   H6    S    
C6    I8    S    
O2    C4    A    
C38   C59   S    
O16   V4    S    
C2    O7    A    
C13   H9    S    
O5    C3    A    
C37   C53   T    
C33   H3    S    
C12   C14   A    
C4    C31   S    
C6    C30   A    
C35   C51   S    
C8    C28   A    
C35   H11   S    
C45   C47   S    
C15   C17   A    
O17   V3    S    
C46   C48   S    
C10   I12   S    
C18   C26   A    
C33   C35   S    
C49   C51   S    
C50   C52   S    
C47   C55   S    
C9    C31   A    
O13   V3    S    
C10   C32   A    
C58   O17   A    
C50   H8    S    
C57   O18   A    
C19   C21   A    
C1    C40   S    
C12   I14   S    
C2    C39   S    
C26   I16   S    
C25   I15   S    
C40   C56   T    
O5    V1    S    
C33   C41   S    
O6    V2    S    
C45   I1    S    
C17   C31   A    
C18   C32   A    
C5    C21   A    
C14   C16   A    
C43   C53   S    
C27   I9    S    
C34   H4    S    
C41   C43   S    
C42   C44   S    
C15   C19   A    
C16   C20   A    
O4    C2    A    
O13   C57   A    
C41   C45   S    
O12   C60   A    
C5    I7    S    
C20   C22   A    
O4    V2    S    
O12   V3    S    
C14   H10   S    
C6    C22   A    
O6    C4    A    
C11   I13   S    
C34   C42   S    
C7    C29   A    
C3    C32   S    
O1    V2    S    
C39   C55   T    
O2    V1    S    
C38   C54   T    
O14   V4    S    
C7    C27   A    
C30   H2    S    
O14   C58   A    
C36   H12   S    
C9    C11   A    
C44   C50   S    
O11   C59   A    
O19   V4    S    
O3    V1    S    
C23   C25   A    
C35   C43   S    
C42   C46   S    
C36   C44   S    
C33   C47   S    
C34   C48   S    
C42   I4    S    
C7    C58   S    
O16   C60   A    
O3    C1    A    
C8    C30   A    
C45   C49   S    
C13   C15   A    
C29   H1    S    
C47   C51   S    
C37   C60   S    
C48   C52   S    
C16   C18   A    
C46   I2    S    
C1    O8    A    
O11   V4    S    
O8    V2    S    
O15   V3    S    
C44   C54   S    
C43   C49   S    
C24   C26   A    
C21   C23   A    
C22   C24   A    
C19   C27   A    
C8    C57   S    
C10   C12   A    
C51   H5    S    
C20   C28   A    
O7    V1    S    
C5    C29   A    
C36   C52   S    
C28   I10   S    
C9    I11   S    
C34   C36   S    
O18   V4    S    
C11   C13   A    
C48   C56   S    
O20   V3    S    
O9    V2    S    
C17   C25   A    
O10   V1    S    
C24   I6    S    
C23   I5    S    
O15   C59   A    
C49   H7    S    
