data_mof_unit_16832.cif
_audit_creation_date              2012-12-10T20:50:09-0500
_audit_creation_method            fapswitch 2.2
_symmetry_space_group_name_H-M    P1
_symmetry_Int_Tables_number       1
_space_group_crystal_system       triclinic
_cell_length_a                    19.151229
_cell_length_b                    8.913271
_cell_length_c                    8.156407
_cell_angle_alpha                 90.137673
_cell_angle_beta                  90.233372
_cell_angle_gamma                 90.054366
_cell_volume                      1392.28323374

loop_
_atom_site_label
_atom_site_type_symbol
_atom_type_description
_atom_site_fract_x
_atom_site_fract_y
_atom_site_fract_z
_atom_type_partial_charge
C1    C     C_R   0.500453 0.218234 0.499877 0.926372
C2    C     C_R   0.254910 0.404461 0.370265 0.098933
C3    C     C_R   0.173952 0.581606 0.588061 0.121999
C4    C     C_R   0.811821 0.538319 0.318507 0.103328
C5    C     C_R   0.826345 0.571557 0.610609 0.123276
C6    C     C_R   0.183622 0.428808 0.335775 0.117026
C7    C     C_R   0.143892 0.514730 0.446595 -0.053303
C8    C     C_R   0.854802 0.562394 0.452758 -0.010272
C9    C     C_R   0.287903 0.492436 0.494861 -0.164605
C10   C     C_R   0.712100 0.512069 0.493821 -0.141882
C11   C     C_R   0.929331 0.548427 0.428382 0.282299
C12   C     C_R   0.500243 0.781775 0.500092 0.914651
C13   C     C_R   0.068874 0.524080 0.422723 0.305551
C14   C     C_3   0.282732 0.674978 0.740523 -0.375300
C15   C     C_3   0.317745 0.814490 0.669679 -0.823816
C16   C     C_3   0.717301 0.365109 0.217550 -0.388064
C17   C     C_3   0.699114 0.213304 0.293713 -0.837907
C18   C     C_3   0.718227 0.659291 0.766356 -0.402061
C19   C     C_3   0.682220 0.802864 0.707830 -0.819678
C20   C     C_3   0.294436 0.277543 0.282896 -0.385424
C21   C     C_3   0.313605 0.152912 0.402946 -0.871921
C22   C     C_3   0.126506 0.649014 0.720211 -0.386878
C23   C     C_R   0.364826 0.497162 0.499504 0.904974
C24   C     C_3   0.118096 0.819105 0.703235 -0.830474
C25   C     C_3   0.830473 0.607463 0.157035 -0.442556
C26   C     C_3   0.822447 0.778308 0.165864 -0.859488
C27   C     C_3   0.874739 0.562769 0.758166 -0.417003
C28   C     C_3   0.872962 0.404142 0.829094 -0.870880
C29   C     C_3   0.150726 0.372180 0.175904 -0.409602
C30   C     C_3   0.122015 0.212109 0.189591 -0.827791
C31   C     C_R   0.635298 0.500745 0.499759 0.885995
C32   C     C_1   0.500532 0.065280 0.499814 -0.197387
C33   C     C_1   0.500438 0.934734 0.500141 -0.203679
C34   C     C_R   0.247537 0.580401 0.606251 0.087626
C35   C     C_R   0.746099 0.475751 0.344421 0.107670
C36   C     C_R   0.752394 0.575401 0.624853 0.100712
H1    H     H_    0.344236 0.878267 0.769176 0.248602
H2    H     H_    0.757440 0.339978 0.123753 0.191050
H3    H     H_    0.642077 0.780096 0.613210 0.253934
H4    H     H_    0.656617 0.859108 0.813276 0.248837
H5    H     H_    0.721445 0.880919 0.655330 0.244451
H6    H     H_    0.682130 0.585987 0.835549 0.225271
H7    H     H_    0.756500 0.698811 0.856657 0.208517
H8    H     H_    0.340526 0.060613 0.336913 0.253118
H9    H     H_    0.348700 0.194580 0.501391 0.251573
H10   H     H_    0.265341 0.107848 0.459441 0.254113
H11   H     H_    0.263904 0.223063 0.184476 0.215787
H12   H     H_    0.356834 0.785474 0.575425 0.250689
H13   H     H_    0.341234 0.317663 0.217586 0.230933
H14   H     H_    0.166356 0.879433 0.738829 0.251228
H15   H     H_    0.104519 0.850106 0.575446 0.274309
H16   H     H_    0.075587 0.858052 0.785118 0.244645
H17   H     H_    0.073670 0.598006 0.716796 0.207983
H18   H     H_    0.144973 0.619043 0.844964 0.179040
H19   H     H_    0.767304 0.808217 0.192357 0.259778
H20   H     H_    0.856490 0.826559 0.263068 0.275534
H21   H     H_    0.837376 0.830072 0.047565 0.240622
H22   H     H_    0.884873 0.578699 0.123631 0.229067
H23   H     H_    0.277812 0.887453 0.612349 0.247581
H24   H     H_    0.795034 0.565633 0.060838 0.208656
H25   H     H_    0.819517 0.375003 0.870129 0.246229
H26   H     H_    0.889019 0.321330 0.734607 0.277763
H27   H     H_    0.909841 0.394777 0.933767 0.248011
H28   H     H_    0.929768 0.588317 0.727234 0.216460
H29   H     H_    0.863066 0.649752 0.848845 0.199921
H30   H     H_    0.157132 0.138469 0.261879 0.261197
H31   H     H_    0.070074 0.211997 0.248622 0.274001
H32   H     H_    0.115722 0.163467 0.064923 0.241387
H33   H     H_    0.107970 0.447396 0.134465 0.203257
H34   H     H_    0.246567 0.715131 0.835583 0.201847
H35   H     H_    0.189240 0.378895 0.074699 0.184714
H36   H     H_    0.319895 0.607543 0.813613 0.222662
H37   H     H_    0.654932 0.222650 0.380387 0.251966
H38   H     H_    0.683795 0.133220 0.195404 0.246112
H39   H     H_    0.745176 0.167050 0.359580 0.252204
H40   H     H_    0.672229 0.411951 0.149202 0.229165
N1    N     N_1   0.500000 0.500000 0.073640 -0.049181
N2    N     N_1   0.500000 0.500000 0.926360 -0.045081
N3    N     N_R   0.038089 0.657587 0.390010 -0.180903
N4    N     N_R   0.960083 0.414602 0.457715 -0.180469
N5    N     N_R   0.968999 0.669853 0.393318 -0.180248
N6    N     N_R   0.029005 0.402885 0.456204 -0.178419
O1    O     O_R   0.500000 0.285350 0.636850 -0.615144
O2    O     O_R   0.500000 0.714650 0.363150 -0.610722
O3    O     O_R   0.500000 0.714650 0.636850 -0.607373
O4    O     O_R   0.500000 0.285350 0.363150 -0.610166
O5    O     O_R   0.398140 0.500000 0.636920 -0.621118
O6    O     O_R   0.601860 0.500000 0.363080 -0.617690
O7    O     O_R   0.601860 0.500000 0.636920 -0.618306
O8    O     O_R   0.398140 0.500000 0.363080 -0.626232
Zn1   Zn    Zn3+2 0.500000 0.500000 0.682780 0.964762
Zn2   Zn    Zn3+2 0.500000 0.500000 0.317220 0.963636

loop_
_geom_bond_atom_site_label_1
_geom_bond_atom_site_label_2
_ccdc_geom_bond_type
C24   H16   S    
C13   N3    A    
N1    Zn2   S    
O5    Zn1   S    
C4    C8    A    
C26   H19   S    
C4    C25   S    
O3    Zn1   S    
C22   H18   S    
N1    N2    T    
C11   N5    A    
C29   C30   S    
C12   O3    A    
C3    C7    A    
C18   H6    S    
C16   C35   S    
C5    C36   A    
C12   O2    A    
C18   C19   S    
C15   H1    S    
C5    C27   S    
C10   C31   S    
O6    Zn2   S    
C16   C17   S    
C31   O7    A    
C10   C35   A    
C25   H24   S    
O7    Zn1   S    
C29   H33   S    
C30   H31   S    
C28   H25   S    
C24   H15   S    
C4    C35   A    
C23   O5    A    
C17   H37   S    
C14   H34   S    
C2    C6    A    
C15   H23   S    
C15   H12   S    
C22   H17   S    
C21   H9    S    
C24   H14   S    
C2    C20   S    
N4    N6    A    
C27   H28   S    
N3    N5    A    
C9    C23   S    
C3    C34   A    
C25   C26   S    
C13   N6    A    
C1    C32   S    
C20   H13   S    
C27   H29   S    
C21   H8    S    
O8    Zn2   S    
C11   N4    A    
C23   O8    A    
C30   H30   S    
C19   H3    S    
C9    C34   A    
C22   C24   S    
C25   H22   S    
C21   H10   S    
C1    O4    A    
C31   O6    A    
C16   H40   S    
C14   H36   S    
C26   H20   S    
C14   C34   S    
C5    C8    A    
C6    C7    A    
N2    Zn1   S    
C1    O1    A    
O1    Zn1   S    
C32   C33   T    
O4    Zn2   S    
C18   H7    S    
C17   H38   S    
C8    C11   S    
C26   H21   S    
C20   H11   S    
C19   H4    S    
C28   H27   S    
C7    C13   S    
C6    C29   S    
C20   C21   S    
C27   C28   S    
C17   H39   S    
C14   C15   S    
C3    C22   S    
C10   C36   A    
O2    Zn2   S    
C12   C33   S    
C2    C9    A    
C18   C36   S    
C30   H32   S    
C19   H5    S    
C16   H2    S    
C29   H35   S    
C28   H26   S    
