data_mof_unit_49404.cif
_audit_creation_date              2012-12-10T17:35:44-0500
_audit_creation_method            fapswitch 2.2
_symmetry_space_group_name_H-M    P1
_symmetry_Int_Tables_number       1
_space_group_crystal_system       triclinic
_cell_length_a                    10.519604
_cell_length_b                    12.068917
_cell_length_c                    12.841917
_cell_angle_alpha                 93.591673
_cell_angle_beta                  91.327275
_cell_angle_gamma                 85.519793
_cell_volume                      1621.96468357

loop_
_atom_site_label
_atom_site_type_symbol
_atom_type_description
_atom_site_fract_x
_atom_site_fract_y
_atom_site_fract_z
_atom_type_partial_charge
C1    C     C_R   0.494751 0.522364 0.700171 0.908521
C2    C     C_R   0.501516 0.477752 0.299714 0.928314
C3    C     C_R   0.455391 0.448507 0.866437 -0.193141
C4    C     C_R   0.526020 0.553948 0.132908 -0.165983
C5    C     C_R   0.468048 0.452454 0.973730 0.050392
C6    C     C_R   0.509095 0.550832 0.026205 0.036453
C7    C     C_R   0.393595 0.954347 0.390620 0.356056
C8    C     C_R   0.605797 0.046486 0.610019 0.300675
C9    C     C_R   0.409903 0.837203 0.397996 0.532493
C10   C     C_R   0.604878 0.162396 0.592694 0.529535
C11   C     C_R   0.538237 0.859439 0.551268 -0.114573
C12   C     C_R   0.454152 0.141869 0.453706 -0.110683
C13   C     C_R   0.531925 0.977035 0.543751 -0.124762
C14   C     C_R   0.456877 0.025094 0.463374 -0.163070
C15   C     C_R   0.742213 0.499555 0.502495 1.009527
C16   C     C_R   0.257576 0.501019 0.500599 1.006706
C17   C     C_3   0.972189 0.396755 0.515974 0.429120
C18   C     C_3   0.026926 0.604995 0.492090 0.418792
C19   C     C_3   0.049490 0.466496 0.595064 0.125947
C20   C     C_3   0.950013 0.535672 0.412564 0.108544
C21   C     C_3   0.122629 0.503711 0.502542 -0.322266
C22   C     C_3   0.876798 0.498128 0.504655 -0.332190
C23   C     C_3   0.045656 0.433364 0.423421 0.105472
C24   C     C_3   0.953164 0.568217 0.583990 0.154875
C25   C     C_R   0.497801 0.464034 0.188200 -0.127164
C26   C     C_R   0.489447 0.537125 0.811545 -0.101759
C27   C     C_R   0.532228 0.643978 0.970796 0.292490
C28   C     C_R   0.443052 0.359998 0.029855 0.282900
C29   C     C_R   0.523920 0.635901 0.863044 -0.193167
C30   C     C_R   0.457899 0.366741 0.137469 -0.169857
H1    H     H_    0.559824 0.627039 0.174358 0.249976
H2    H     H_    0.422402 0.375478 0.824348 0.212649
H3    H     H_    0.435469 0.297247 0.181449 0.207021
H4    H     H_    0.547453 0.705544 0.819740 0.182739
H5    H     H_    0.401690 0.181213 0.391139 0.196381
H6    H     H_    0.597173 0.819979 0.610534 0.204315
N1    N     N_R   0.523490 0.207800 0.519350 -0.157069
N2    N     N_R   0.476510 0.792200 0.480650 -0.168972
O1    O     O_R   0.506270 0.421700 0.658830 -0.623585
O2    O     O_R   0.493730 0.578300 0.341170 -0.577819
O3    O     O_R   0.491200 0.609310 0.646410 -0.625553
O4    O     O_R   0.508800 0.390690 0.353590 -0.624918
O5    O     O_R   0.693580 0.406210 0.506230 -0.531150
O6    O     O_R   0.306420 0.593790 0.493770 -0.608017
O7    O     O_R   0.678510 0.593830 0.493810 -0.616802
O8    O     O_R   0.321490 0.406170 0.506190 -0.618095
Zn1   Zn    Zn3+2 0.510060 0.374730 0.508290 1.018353
Zn2   Zn    Zn3+2 0.489940 0.625270 0.491710 1.006911
Br1   Br    Br    0.130812 0.425733 0.725868 -0.472741
Br2   Br    Br    0.873279 0.581041 0.281220 -0.465616
O9    O     O_3   0.931355 0.290544 0.531624 -0.530181
C31   C     C_3   0.035965 0.209819 0.533989 0.146181
H7    H     H_    0.131430 0.243264 0.528786 0.149605
H8    H     H_    0.024648 0.149040 0.466746 0.149162
C32   C     C_3   0.033930 0.147824 0.633537 -0.776317
H9    H     H_    0.941818 0.109898 0.639379 0.290985
H10   H     H_    0.113162 0.081452 0.633325 0.202574
H11   H     H_    0.046702 0.205072 0.703026 0.283765
O10   O     O_3   0.062915 0.714114 0.483745 -0.606787
C33   C     C_3   0.955152 0.786799 0.460836 0.131076
H12   H     H_    0.861466 0.753776 0.475558 0.190271
H13   H     H_    0.957091 0.805194 0.377239 0.168848
C34   C     C_3   0.961723 0.894968 0.526833 -0.782004
H14   H     H_    0.056064 0.927822 0.518425 0.225932
H15   H     H_    0.885723 0.957096 0.501319 0.232247
H16   H     H_    0.948349 0.880617 0.610271 0.306162
Br3   Br    Br    0.117335 0.344824 0.304797 -0.519723
Br4   Br    Br    0.879225 0.661234 0.699288 -0.490541
Br5   Br    Br    0.575475 0.783499 0.037378 -0.487492
Br6   Br    Br    0.387925 0.223211 0.965409 -0.523737
O11   O     O_3   0.701567 0.226045 0.632178 -0.544187
C35   C     C_3   0.698281 0.242986 0.741805 0.094541
H17   H     H_    0.750052 0.172032 0.778649 0.179906
H18   H     H_    0.599189 0.255372 0.770960 0.129528
C36   C     C_3   0.769267 0.344899 0.776014 -0.654599
H19   H     H_    0.735686 0.417390 0.731288 0.257284
H20   H     H_    0.754651 0.366489 0.860449 0.210441
H21   H     H_    0.872708 0.327243 0.762714 0.274621
O12   O     O_3   0.386303 0.769424 0.309798 -0.571092
C37   C     C_3   0.256025 0.749658 0.298504 0.165442
H22   H     H_    0.190503 0.815689 0.335975 0.125611
H23   H     H_    0.239283 0.670267 0.332321 0.202366
C38   C     C_3   0.221548 0.736737 0.182895 -0.727386
H24   H     H_    0.249999 0.809122 0.142159 0.285446
H25   H     H_    0.271672 0.659815 0.147169 0.258516
H26   H     H_    0.117133 0.730757 0.172680 0.232393
O13   O     O_3   0.333159 0.995793 0.302502 -0.561509
C39   C     C_3   0.209261 0.042140 0.328151 0.044393
H27   H     H_    0.213201 0.126525 0.365857 0.162035
H28   H     H_    0.160244 0.992193 0.382296 0.088387
C40   C     C_3   0.127842 0.051645 0.229206 -0.651649
H29   H     H_    0.112867 0.967827 0.192946 0.229575
H30   H     H_    0.033253 0.094470 0.248463 0.224007
H31   H     H_    0.175087 0.100314 0.172725 0.296482
O14   O     O_3   0.691756 0.999477 0.680832 -0.624598
C41   C     C_3   0.627885 0.985662 0.774427 0.040744
H32   H     H_    0.559169 0.920304 0.763757 0.165600
H33   H     H_    0.574087 0.064113 0.803656 0.152904
C42   C     C_3   0.726031 0.951258 0.857580 -0.677518
H34   H     H_    0.807292 0.004768 0.859248 0.243188
H35   H     H_    0.681583 0.960422 0.935352 0.258116
H36   H     H_    0.762711 0.863288 0.841246 0.284781

loop_
_geom_bond_atom_site_label_1
_geom_bond_atom_site_label_2
_ccdc_geom_bond_type
C32   H9    S    
C34   H15   S    
C35   H18   S    
C16   C21   S    
C27   C29   A    
C18   C21   S    
C39   H28   S    
O14   C41   S    
O13   C39   S    
C17   O9    S    
C4    C25   A    
C17   C23   S    
C10   N1    A    
C18   C24   S    
C11   H6    S    
C19   C21   S    
C35   C36   S    
C5    C6    A    
C41   C42   S    
C33   H13   S    
C9    O12   S    
C23   Br3   S    
C12   N1    A    
O2    Zn2   S    
C20   Br2   S    
C15   C22   S    
C7    O13   S    
C42   H34   S    
C41   H33   S    
C20   C23   S    
N1    Zn1   S    
C16   O6    A    
N2    Zn2   S    
C27   Br5   S    
C31   C32   S    
C10   O11   S    
C34   H16   S    
O10   C33   S    
C13   C14   A    
C8    O14   S    
C37   C38   S    
C31   H8    S    
C7    C14   A    
O9    C31   S    
C37   H23   S    
C16   O8    A    
C40   H29   S    
C24   Br4   S    
C35   H17   S    
C29   H4    S    
O12   C37   S    
C33   H12   S    
C11   N2    A    
C36   H19   S    
C40   H30   S    
C5    C28   A    
C19   Br1   S    
C6    C27   A    
C39   C40   S    
C41   H32   S    
C42   H36   S    
C12   H5    S    
C36   H20   S    
C1    O3    A    
C38   H25   S    
C20   C22   S    
C21   C23   S    
C1    C26   S    
C22   C24   S    
C38   H24   S    
C4    C6    A    
C15   O7    A    
C31   H7    S    
O1    Zn1   S    
O7    Zn2   S    
C25   C30   A    
C7    C9    A    
O8    Zn1   S    
C30   H3    S    
C42   H35   S    
C3    C26   A    
C28   Br6   S    
C12   C14   A    
C37   H22   S    
C3    C5    A    
C17   C22   S    
C32   H10   S    
C19   C24   S    
C15   O5    A    
O11   C35   S    
C40   H31   S    
C11   C13   A    
C2    O4    A    
C28   C30   A    
C9    N2    A    
C17   C19   S    
O3    Zn2   S    
C2    C25   S    
C18   C20   S    
O4    Zn1   S    
C3    H2    S    
C36   H21   S    
C4    H1    S    
C33   C34   S    
C1    O1    A    
C34   H14   S    
C8    C13   A    
C2    O2    A    
C18   O10   S    
C38   H26   S    
C39   H27   S    
C26   C29   A    
C8    C10   A    
C32   H11   S    
O5    Zn1   S    
O6    Zn2   S    
