data_mof_unit_42385.cif
_audit_creation_date              2013-03-05T15:41:54-0500
_audit_creation_method            fapswitch 2.2
_symmetry_space_group_name_H-M    P1
_symmetry_Int_Tables_number       1
_space_group_crystal_system       triclinic
_cell_length_a                    23.580364
_cell_length_b                    8.812976
_cell_length_c                    7.489545
_cell_angle_alpha                 102.671151
_cell_angle_beta                  95.122073
_cell_angle_gamma                 93.223563
_cell_volume                      1507.84550715

loop_
_atom_site_label
_atom_site_type_symbol
_atom_site_description
_atom_site_fract_x
_atom_site_fract_y
_atom_site_fract_z
_atom_type_partial_charge
O1    O     O_R   0.504120 0.286130 0.619770 -0.573174
O2    O     O_R   0.495880 0.713870 0.380230 -0.559774
O3    O     O_R   0.493410 0.256770 0.308360 -0.509716
O4    O     O_R   0.506590 0.743230 0.691640 -0.528800
C1    C     C_R   0.499037 0.200781 0.454031 0.795424
C2    C     C_R   0.501937 0.799323 0.545878 0.822879
O5    O     O_R   0.423230 0.514630 0.655730 -0.588355
O6    O     O_R   0.576770 0.485370 0.344270 -0.552097
O7    O     O_R   0.412530 0.485280 0.344320 -0.556248
O8    O     O_R   0.587470 0.514720 0.655680 -0.580638
C3    C     C_R   0.391096 0.498772 0.500558 0.867103
C4    C     C_R   0.609201 0.502322 0.499568 0.843406
Cu1   Cu    Cu3+1 0.506340 0.517380 0.684380 1.077448
Cu2   Cu    Cu3+1 0.493660 0.482620 0.315620 1.115774
C5    C     C_R   0.884044 0.642281 0.467947 0.647332
C6    C     C_R   0.112940 0.368574 0.351786 0.631504
N1    N     N_R   0.852409 0.504681 0.456097 -0.434248
N2    N     N_R   0.146863 0.496447 0.446017 -0.438668
C7    C     C_R   0.878571 0.369194 0.439560 0.591081
C8    C     C_R   0.124661 0.625234 0.541239 0.584810
C9    C     C_R   0.935183 0.365395 0.397787 -0.143770
C10   C     C_R   0.064926 0.636624 0.530601 -0.141587
C11   C     C_R   0.970012 0.505576 0.447797 -0.066990
C12   C     C_R   0.029282 0.501513 0.444836 -0.074888
C13   C     C_R   0.944814 0.649205 0.497648 -0.067939
C14   C     C_R   0.052874 0.360940 0.362554 -0.070490
C15   C     C_R   0.956214 0.227776 0.302675 0.343432
C16   C     C_R   0.040390 0.777486 0.606129 0.348595
C17   C     C_R   0.015866 0.221057 0.291869 -0.029319
C18   C     C_R   0.980284 0.789365 0.577979 -0.052268
O9    O     O_2   0.856321 0.768559 0.451174 -0.479398
O10   O     O_2   0.138195 0.251675 0.248780 -0.507152
O11   O     O_2   0.850394 0.240315 0.467388 -0.477856
O12   O     O_2   0.161267 0.742165 0.641807 -0.444209
C19   C     C_R   0.240522 0.591611 0.368736 0.027275
C20   C     C_R   0.752537 0.413542 0.321869 0.014148
C21   C     C_R   0.300554 0.594762 0.390610 0.257845
C22   C     C_R   0.693525 0.412326 0.338916 0.240658
C23   C     C_R   0.328368 0.501620 0.497628 -0.190892
C24   C     C_R   0.672324 0.503337 0.495492 -0.206484
C25   C     C_R   0.295881 0.402709 0.583202 -0.047104
C26   C     C_R   0.711231 0.596960 0.639877 -0.045762
C27   C     C_R   0.235596 0.396645 0.557281 0.305949
C28   C     C_R   0.770707 0.596230 0.624327 0.309236
C29   C     C_R   0.208181 0.493476 0.454855 0.168603
C30   C     C_R   0.791401 0.503586 0.467508 0.163658
C31   C     C_2   0.499131 0.034366 0.427284 0.054895
C32   C     C_2   0.503331 0.965892 0.572413 0.019558
N3    N     N_2   0.484110 0.456420 0.038520 -0.159277
N4    N     N_2   0.515890 0.543580 0.961480 -0.159563
H1    H     H_    0.454543 0.379812 0.948938 0.240912
H2    H     H_    0.546095 0.618395 0.050785 0.253109
N5    N     N_R   0.916405 0.118463 0.174395 0.118564
O13   O     O_R   0.886735 0.010393 0.226963 -0.288240
O14   O     O_R   0.900703 0.149721 0.016418 -0.372984
N6    N     N_R   0.076567 0.903149 0.720979 0.141065
O15   O     O_R   0.103552 0.001274 0.645463 -0.279431
O16   O     O_R   0.097322 0.886280 0.881530 -0.352529
C33   C     C_3   0.042020 0.067496 0.218606 -0.332846
C34   C     C_3   0.004637 0.913921 0.163501 -0.699053
H3    H     H_    0.979175 0.898062 0.275003 0.262572
H4    H     H_    0.976907 0.906802 0.034066 0.287709
H5    H     H_    0.032371 0.815229 0.138281 0.245125
H6    H     H_    0.062566 0.081208 0.096870 0.288928
H7    H     H_    0.075334 0.050945 0.325448 0.276573
C35   C     C_3   0.951604 0.942266 0.642255 -0.320160
C36   C     C_3   0.987005 0.097566 0.714885 -0.692727
H8    H     H_    0.010916 0.101947 0.848993 0.272410
H9    H     H_    0.015419 0.121854 0.613361 0.264459
H10   H     H_    0.957922 0.193355 0.736473 0.264676
H11   H     H_    0.925692 0.965217 0.522979 0.287889
H12   H     H_    0.922624 0.925144 0.746178 0.294379
C37   C     C_3   0.211233 0.690736 0.250200 -0.329347
C38   C     C_3   0.189619 0.592943 0.059931 -0.645089
H13   H     H_    0.225527 0.537810 0.991107 0.276985
H14   H     H_    0.156713 0.501117 0.070093 0.266240
H15   H     H_    0.170081 0.668528 0.974941 0.287547
H16   H     H_    0.175177 0.748202 0.313743 0.234738
H17   H     H_    0.240372 0.789005 0.234090 0.259128
C39   C     C_3   0.772986 0.321624 0.144262 -0.326798
C40   C     C_3   0.795931 0.429295 0.029995 -0.643514
H18   H     H_    0.763324 0.509792 0.003774 0.245378
H19   H     H_    0.835488 0.497730 0.101717 0.273194
H20   H     H_    0.806033 0.359061 0.895963 0.274183
H21   H     H_    0.805358 0.241825 0.170309 0.277380
H22   H     H_    0.738685 0.241749 0.055558 0.247571
N7    N     N_R   0.333864 0.695300 0.305921 0.132985
O17   O     O_R   0.332899 0.667505 0.127677 -0.331329
O18   O     O_R   0.368690 0.806901 0.407533 -0.374371
N8    N     N_R   0.654542 0.315502 0.195854 0.133357
O19   O     O_R   0.629605 0.188102 0.222481 -0.304573
O20   O     O_R   0.642587 0.357590 0.041573 -0.341361
C41   C     C_3   0.324626 0.303071 0.701635 -0.358722
C42   C     C_3   0.346784 0.158666 0.584271 -0.620968
H23   H     H_    0.311743 0.089383 0.486344 0.289145
H24   H     H_    0.381116 0.191458 0.505012 0.205104
H25   H     H_    0.364189 0.084453 0.674739 0.276855
H26   H     H_    0.359517 0.372235 0.799072 0.220445
H27   H     H_    0.295027 0.264457 0.792898 0.249796
C43   C     C_3   0.690478 0.698879 0.810673 -0.353868
C44   C     C_3   0.664383 0.843596 0.768443 -0.624797
H28   H     H_    0.626923 0.811596 0.663594 0.211998
H29   H     H_    0.650341 0.914642 0.896086 0.284473
H30   H     H_    0.696554 0.915760 0.717075 0.271714
H31   H     H_    0.660488 0.631600 0.874946 0.237928
H32   H     H_    0.725281 0.739288 0.923460 0.240393
N9    N     N_R   0.201745 0.286123 0.627141 0.140165
O21   O     O_R   0.159917 0.330285 0.723428 -0.355845
O22   O     O_R   0.208283 0.137874 0.575253 -0.282232
N10   N     N_R   0.810608 0.694992 0.764928 0.121738
O23   O     O_R   0.854924 0.638578 0.835396 -0.388744
O24   O     O_R   0.807574 0.845511 0.801599 -0.289188
N11   N     N_R   0.494318 0.946428 0.240119 0.160508
O25   O     O_R   0.444177 0.907565 0.148610 -0.233129
O26   O     O_R   0.539834 0.926227 0.154283 -0.300295
N12   N     N_R   0.509515 0.053998 0.759500 0.147891
O27   O     O_R   0.560202 0.102784 0.842114 -0.259372
O28   O     O_R   0.465795 0.063372 0.854433 -0.307646

loop_
_geom_bond_atom_site_label_1
_geom_bond_atom_site_label_2
_geom_bond_distance
_ccdc_geom_bond_type
N7    O17   1.301213 A    
C41   C42   1.526849 S    
C15   C17   1.419954 A    
N9    O22   1.300920 A    
C37   C38   1.521624 S    
C40   H18   1.108389 S    
C16   N6    1.427917 S    
C23   C25   1.419553 A    
N5    O13   1.300132 A    
N12   O27   1.299895 A    
O5    C3    1.305349 A    
C1    C31   1.436188 S    
C43   H31   1.105538 S    
C44   H28   1.107889 S    
C2    C32   1.435592 S    
C34   H5    1.110777 S    
O1    C1    1.294088 A    
C7    C9    1.398588 A    
C12   C14   1.424025 A    
C5    C13   1.426145 A    
Cu2   N3    2.027706 S    
N6    O15   1.299827 A    
C34   H4    1.107605 S    
O4    Cu1   1.978855 S    
N10   O23   1.301081 A    
C39   H22   1.107215 S    
C25   C41   1.522688 S    
C31   C32   1.353027 D    
N6    O16   1.299630 A    
N3    H1    1.028045 S    
C38   H15   1.108761 S    
N4    H2    1.028613 S    
N9    O21   1.300539 A    
C20   C30   1.421029 A    
C41   H27   1.109355 S    
C32   N12   1.435616 S    
C8    O12   1.348215 S    
C24   C26   1.427644 A    
C35   C36   1.526357 S    
C9    C15   1.405703 A    
C33   C34   1.528073 S    
C44   H29   1.110323 S    
C10   C16   1.423721 A    
Cu1   Cu2   2.698536 S    
C25   C27   1.413842 A    
O2    C2    1.293481 A    
C26   C28   1.417861 A    
C40   H19   1.107907 S    
C28   C30   1.417969 A    
N5    O14   1.299664 A    
C6    C14   1.424489 A    
C35   H12   1.109268 S    
C38   H13   1.110420 S    
C36   H8    1.098925 S    
C17   C33   1.530166 S    
N1    C30   1.448342 S    
O4    C2    1.292159 A    
C20   C39   1.530973 S    
C42   H25   1.109163 S    
C37   H16   1.104875 S    
C5    O9    1.345419 S    
C34   H3    1.099404 S    
C36   H9    1.104134 S    
C4    C24   1.491059 S    
C42   H24   1.107266 S    
O7    Cu2   1.944962 S    
C39   H21   1.099675 S    
C26   C43   1.529616 S    
O7    C3    1.300067 A    
N8    O20   1.301480 A    
C35   H11   1.099082 S    
O6    C4    1.308460 A    
C37   H17   1.109250 S    
C27   N9    1.438878 S    
C3    C23   1.479042 S    
C27   C29   1.412564 A    
C18   C35   1.543014 S    
O3    Cu2   1.978855 S    
O8    C4    1.303380 A    
C8    C10   1.414171 A    
C44   H30   1.110467 S    
C9    C11   1.403207 A    
C7    O11   1.348584 S    
C10   C12   1.411519 A    
O1    Cu1   1.985239 S    
C38   H14   1.108938 S    
C19   C29   1.415616 A    
N2    C29   1.443468 S    
C40   H20   1.110959 S    
N11   O25   1.300668 A    
C13   C18   1.433616 A    
C31   N11   1.436517 S    
C19   C37   1.525427 S    
O6    Cu2   1.950535 S    
C19   C21   1.408409 A    
C21   N7    1.435820 S    
C39   C40   1.518811 S    
O3    C1    1.291930 A    
O8    Cu1   1.944962 S    
C15   N5    1.436489 S    
C5    N1    1.368999 A    
C6    O10   1.346676 S    
C22   N8    1.433866 S    
C43   H32   1.106912 S    
C36   H10   1.110925 S    
C16   C18   1.427310 A    
C21   C23   1.414828 A    
C33   H7    1.109302 S    
C22   C24   1.416186 A    
N8    O19   1.300426 A    
C20   C22   1.408328 A    
C43   C44   1.528319 S    
N1    C7    1.361355 A    
N12   O28   1.299957 A    
N2    C8    1.359887 A    
C11   C13   1.418291 A    
C42   H23   1.109990 S    
O2    Cu2   1.985239 S    
N10   O24   1.301743 A    
C11   C12   1.402100 A    
Cu1   N4    2.027706 S    
C33   H6    1.096017 S    
O5    Cu1   1.950535 S    
C14   C17   1.439361 A    
C6    N2    1.362666 A    
N3    N4    1.300556 D    
N7    O18   1.300030 A    
C41   H26   1.105556 S    
N11   O26   1.300542 A    
C28   N10   1.442425 S    
