data_mof_unit_46892.cif
_audit_creation_date              2012-12-11T16:17:58-0500
_audit_creation_method            fapswitch 2.2
_symmetry_space_group_name_H-M    P1
_symmetry_Int_Tables_number       1
_space_group_crystal_system       triclinic
_cell_length_a                    14.028809
_cell_length_b                    14.038942
_cell_length_c                    30.127398
_cell_angle_alpha                 97.33909
_cell_angle_beta                  97.200147
_cell_angle_gamma                 61.3017
_cell_volume                      5148.07729166

loop_
_atom_site_label
_atom_site_type_symbol
_atom_type_description
_atom_site_fract_x
_atom_site_fract_y
_atom_site_fract_z
_atom_type_partial_charge
Br1   Br    Br    0.099545 0.475934 0.303819 -0.415360
Br2   Br    Br    0.806923 0.552511 0.708445 -0.465274
Br3   Br    Br    0.115477 0.924332 0.674199 -0.387379
Br4   Br    Br    0.805044 0.527846 0.086269 -0.364611
Br5   Br    Br    0.777781 0.540227 0.195252 -0.428437
Br6   Br    Br    0.812217 0.559822 0.414777 -0.400403
Br7   Br    Br    0.932851 0.061091 0.078475 -0.384597
Br8   Br    Br    0.867080 0.101712 0.301359 -0.425242
Br9   Br    Br    0.197322 0.762641 0.054179 -0.278001
Br10  Br    Br    0.237358 0.690807 0.158953 -0.378976
Br11  Br    Br    0.075679 0.468123 0.191167 -0.343265
Br12  Br    Br    0.169402 0.523621 0.930611 -0.346409
Br13  Br    Br    0.170615 0.577942 0.825888 -0.528633
Br14  Br    Br    0.138441 0.530710 0.566787 -0.357661
C1    C     C_R   0.386119 0.709267 0.441743 0.540809
C2    C     C_R   0.788296 0.267429 0.376106 0.253367
C3    C     C_R   0.830278 0.241459 0.333525 0.172073
C4    C     C_R   0.398748 0.381080 0.426426 0.544192
C5    C     C_R   0.846032 0.317991 0.314464 -0.030585
C6    C     C_R   0.839866 0.410064 0.339960 -0.104922
C7    C     C_R   0.808098 0.432952 0.383582 0.116796
C8    C     C_R   0.831692 0.402394 0.159835 0.219308
C9    C     C_R   0.847915 0.395038 0.114076 0.178083
C10   C     C_R   0.899986 0.201206 0.109237 0.117502
C11   C     C_R   0.884368 0.210152 0.154502 -0.110535
C12   C     C_R   0.414724 0.289497 0.221478 0.261041
C13   C     C_R   0.856942 0.307886 0.180156 -0.015370
C14   C     C_1   0.856292 0.308964 0.227579 0.089097
C15   C     C_1   0.854956 0.310643 0.267337 0.085544
C16   C     C_R   0.711030 0.405268 0.442311 0.575531
C17   C     C_R   0.892582 0.291494 0.089360 -0.007164
C18   C     C_R   0.366749 0.758820 0.399168 -0.028289
C19   C     C_R   0.451368 0.765618 0.381724 -0.130272
C20   C     C_R   0.443667 0.784178 0.336768 -0.154188
C21   C     C_R   0.352041 0.795069 0.308888 0.037091
C22   C     C_R   0.264678 0.793682 0.326267 0.291066
C23   C     C_R   0.423994 0.295823 0.268393 -0.134373
C24   C     C_R   0.271064 0.778983 0.371763 -0.090018
C25   C     C_R   0.291571 0.784324 0.143400 0.158778
C26   C     C_R   0.270688 0.819103 0.099816 0.147931
C27   C     C_R   0.372831 0.920270 0.122409 0.245114
C28   C     C_R   0.389630 0.711777 0.568244 0.546245
C29   C     C_R   0.395562 0.883069 0.165297 0.261572
C30   C     C_R   0.348721 0.821432 0.176356 -0.026929
C31   C     C_1   0.349887 0.807834 0.222663 0.087617
C32   C     C_1   0.350681 0.801580 0.261960 0.058459
C33   C     C_R   0.304373 0.893984 0.090093 -0.049136
C34   C     C_R   0.331084 0.349443 0.292606 -0.035475
C35   C     C_R   0.362192 0.364829 0.591763 -0.013603
C36   C     C_R   0.438722 0.286316 0.620060 -0.172510
C37   C     C_R   0.415847 0.286107 0.663495 -0.176152
C38   C     C_R   0.316699 0.364768 0.679549 0.012845
C39   C     C_R   0.235876 0.439714 0.651134 0.304768
C40   C     C_R   0.400886 0.382836 0.551865 0.561904
C41   C     C_R   0.256724 0.436743 0.606384 0.167023
C42   C     C_R   0.246759 0.429948 0.842773 0.127187
C43   C     C_R   0.243815 0.405962 0.886394 0.117264
C44   C     C_R   0.358046 0.211986 0.865315 0.243654
C45   C     C_R   0.311338 0.342089 0.198752 0.030583
C46   C     C_R   0.364807 0.237202 0.822855 0.267353
C47   C     C_R   0.303818 0.344911 0.810931 -0.035478
C48   C     C_1   0.298029 0.363795 0.764914 0.074246
C49   C     C_1   0.301707 0.368373 0.725812 0.049097
C50   C     C_R   0.295362 0.296171 0.897204 -0.052670
C51   C     C_1   0.764056 0.376407 0.612206 0.050434
C52   C     C_R   0.713360 0.407771 0.568461 0.552865
C53   C     C_R   0.828248 0.418149 0.728412 0.138771
C54   C     C_R   0.849185 0.402197 0.774415 0.251342
C55   C     C_R   0.850175 0.226451 0.758994 0.278932
C56   C     C_1   0.301541 0.326414 0.150645 0.081360
C57   C     C_R   0.832977 0.241186 0.712779 0.285691
C58   C     C_R   0.822251 0.336898 0.697549 -0.040945
C59   C     C_R   0.857157 0.307864 0.789855 -0.033747
C60   C     C_1   0.881203 0.292419 0.837129 0.026065
C61   C     C_1   0.795444 0.355721 0.650585 0.058799
C62   C     C_1   0.907972 0.281355 0.876460 0.015890
C63   C     C_1   0.374415 0.761206 0.613186 0.035438
C64   C     C_1   0.365918 0.364685 0.380552 0.009947
C65   C     C_R   0.243443 0.872782 0.715341 0.183219
C66   C     C_R   0.231610 0.886979 0.761716 0.249543
C67   C     C_1   0.346181 0.356213 0.340704 -0.005745
C68   C     C_R   0.429393 0.803927 0.776538 0.256304
C69   C     C_R   0.440263 0.784737 0.729909 -0.145628
C70   C     C_R   0.348100 0.820100 0.699504 -0.047587
C71   C     C_R   0.324684 0.852915 0.792218 0.031271
C72   C     C_1   0.310874 0.876278 0.839697 0.068730
C73   C     C_1   0.362358 0.792240 0.652242 0.011034
C74   C     C_1   0.292589 0.904013 0.878545 0.056010
C75   C     C_R   0.949266 0.273419 0.048069 0.573423
C76   C     C_R   0.227106 0.401388 0.270101 0.177956
C77   C     C_R   0.275426 0.270439 0.065388 0.567234
C78   C     C_1   0.291453 0.305529 0.110961 0.079241
C79   C     C_R   0.261504 0.953563 0.048875 0.593028
C80   C     C_R   0.952649 0.268832 0.921975 0.537825
C81   C     C_R   0.276151 0.264960 0.938961 0.594896
C82   C     C_R   0.261480 0.950856 0.922827 0.555824
C83   C     C_R   0.217246 0.398049 0.222889 0.154827
C84   C     C_3   0.178624 0.704201 0.287079 -0.044521
C85   C     C_3   0.554994 0.835184 0.208998 -0.099945
C86   C     C_3   0.511781 0.938668 0.100057 -0.059234
C87   C     C_3   0.139039 0.609163 0.684560 -0.059323
C88   C     C_3   0.520907 0.149853 0.786396 -0.136490
C89   C     C_R   0.773462 0.366107 0.401316 -0.001918
C90   C     C_3   0.510269 0.057455 0.886662 -0.054011
C91   C     C_3   0.549536 0.123276 0.198854 -0.086765
C92   C     C_3   0.966380 0.459408 0.811051 -0.045587
C93   C     C_3   0.780438 0.142671 0.795626 -0.122765
C94   C     C_3   0.724996 0.174753 0.674119 -0.083858
C95   C     C_3   0.096546 0.863385 0.784202 -0.038037
C96   C     C_3   0.590065 0.808793 0.799168 -0.076899
C97   C     C_3   0.664345 0.205274 0.372627 -0.045549
Cr1   Cr    Cr6+3 0.581000 0.584320 0.508140 1.097055
Cr2   Cr    Cr6+3 0.339110 0.576430 0.496080 1.112631
Cr3   Cr    Cr6+3 0.579910 0.339270 0.495810 1.067323
Cr4   Cr    Cr6+3 0.082090 0.079210 0.982490 1.124702
Cr5   Cr    Cr6+3 0.082460 0.324610 0.994920 1.148481
Cr6   Cr    Cr6+3 0.323630 0.087860 0.996130 1.056258
H1    H     H_    0.896914 0.139172 0.170135 0.188159
H2    H     H_    0.173678 0.668021 0.316927 0.139403
H3    H     H_    0.253961 0.647382 0.269964 0.130571
H4    H     H_    0.108039 0.714349 0.263197 0.219664
H5    H     H_    0.594367 0.779541 0.179387 0.160710
H6    H     H_    0.550727 0.787680 0.234709 0.146119
H7    H     H_    0.608627 0.870569 0.223827 0.155004
H8    H     H_    0.529874 0.997508 0.086416 0.157789
H9    H     H_    0.521137 0.873786 0.072798 0.127211
H10   H     H_    0.572699 0.903786 0.128541 0.130488
H11   H     H_    0.157679 0.647099 0.658898 0.157371
H12   H     H_    0.204078 0.775688 0.384638 0.167583
H13   H     H_    0.199248 0.593674 0.714114 0.115333
H14   H     H_    0.057789 0.668742 0.696152 0.183907
H15   H     H_    0.565867 0.153504 0.819220 0.085249
H16   H     H_    0.509233 0.216901 0.766840 0.106684
H17   H     H_    0.573040 0.071959 0.767554 0.133728
H18   H     H_    0.533477 0.115784 0.907528 0.104584
H19   H     H_    0.559563 0.022265 0.857156 0.118451
H20   H     H_    0.531297 0.989269 0.907437 0.154572
H21   H     H_    0.617158 0.081212 0.176321 0.163105
H22   H     H_    0.487074 0.096854 0.186449 0.183078
H23   H     H_    0.526028 0.750239 0.402007 0.178190
H24   H     H_    0.583524 0.097129 0.233179 0.132800
H25   H     H_    0.972060 0.523187 0.835344 0.200277
H26   H     H_    0.997790 0.461545 0.779255 0.177782
H27   H     H_    0.019147 0.379602 0.825444 0.111433
H28   H     H_    0.700950 0.212009 0.784808 0.071850
H29   H     H_    0.797561 0.153449 0.832349 0.132286
H30   H     H_    0.771609 0.067633 0.789017 0.131312
H31   H     H_    0.667954 0.256711 0.662332 0.084526
H32   H     H_    0.695747 0.162339 0.704377 0.110278
H33   H     H_    0.723794 0.113447 0.647221 0.163492
H34   H     H_    0.511249 0.785136 0.323271 0.140811
H35   H     H_    0.150967 0.809356 0.810615 0.142567
H36   H     H_    0.094159 0.813851 0.752563 0.134248
H37   H     H_    0.013078 0.906781 0.795906 0.187347
H38   H     H_    0.545181 0.895655 0.791081 0.136271
H39   H     H_    0.643337 0.757206 0.772057 0.172507
H40   H     H_    0.643847 0.804351 0.830011 0.154712
H41   H     H_    0.673144 0.167227 0.337818 0.143247
H42   H     H_    0.599593 0.291745 0.372462 0.095918
H43   H     H_    0.637159 0.160891 0.391466 0.173886
H44   H     H_    0.519132 0.228851 0.609623 0.146383
H45   H     H_    0.477776 0.227177 0.685227 0.116893
H46   H     H_    0.520476 0.740776 0.717252 0.156854
H47   H     H_    0.504137 0.258685 0.285934 0.119032
H48   H     H_    0.856961 0.466454 0.325328 0.208540
O1    O     O_R   0.688580 0.499770 0.460490 -0.460767
O2    O     O_R   0.346150 0.177650 0.050510 -0.500336
O3    O     O_R   0.314200 0.996600 0.036060 -0.478442
O4    O     O_R   0.480400 0.672610 0.462660 -0.494941
O5    O     O_R   0.168690 0.969990 0.933130 -0.488052
O6    O     O_R   0.991920 0.175870 0.937430 -0.499107
O7    O     O_R   0.974010 0.342590 0.941330 -0.482606
O8    O     O_R   0.182630 0.317940 0.955040 -0.463419
O9    O     O_R   0.347320 0.174720 0.953250 -0.488047
O10   O     O_R   0.315290 0.993890 0.945900 -0.490519
O11   O     O_3   0.162730 0.163890 0.991180 -0.290071
O12   O     O_R   0.348600 0.476260 0.536540 -0.458386
O13   O     O_R   0.315310 0.685650 0.451800 -0.505477
O14   O     O_R   0.346220 0.474990 0.446280 -0.472192
O15   O     O_R   0.492270 0.312460 0.441630 -0.528781
O16   O     O_R   0.669740 0.350480 0.455640 -0.463642
O17   O     O_R   0.691150 0.501150 0.557860 -0.473057
O18   O     O_R   0.482790 0.673890 0.552920 -0.495896
O19   O     O_R   0.317880 0.687030 0.549170 -0.474285
O20   O     O_3   0.172942 0.807284 0.298819 -0.519873
O21   O     O_3   0.450821 0.921396 0.197753 -0.563671
O22   O     O_3   0.405181 0.995181 0.114564 -0.530509
O23   O     O_R   0.494840 0.313840 0.539010 -0.514266
O24   O     O_3   0.135248 0.513079 0.666516 -0.504382
O25   O     O_3   0.420549 0.153062 0.791352 -0.529194
O26   O     O_3   0.398090 0.103479 0.872866 -0.515930
O27   O     O_3   0.506981 0.236687 0.197640 -0.548255
O28   O     O_3   0.856334 0.481881 0.804650 -0.522815
O29   O     O_3   0.869008 0.127918 0.772660 -0.491658
O30   O     O_3   0.832701 0.158795 0.682271 -0.475382
O31   O     O_3   0.128408 0.941222 0.777233 -0.507849
O32   O     O_3   0.519427 0.768708 0.807425 -0.538734
O33   O     O_3   0.764366 0.195392 0.393496 -0.508331
O34   O     O_R   0.672120 0.351750 0.545910 -0.498468
O35   O     O_3   0.500010 0.500010 0.500010 -0.284123
O36   O     O_R   0.167510 0.972920 0.030390 -0.433004
O37   O     O_R   0.990840 0.178580 0.027590 -0.462103
O38   O     O_R   0.972840 0.345510 0.038590 -0.453626
O39   O     O_R   0.181550 0.320660 0.045200 -0.467030

loop_
_geom_bond_atom_site_label_1
_geom_bond_atom_site_label_2
_ccdc_geom_bond_type
Cr6   O9    S    
C84   H4    S    
Cr2   O12   S    
C74   C82   S    
Br1   C76   S    
C82   O10   A    
C26   C33   A    
C86   H10   S    
C59   C60   S    
C5    C6    A    
C70   C73   S    
C29   C30   A    
Br3   C65   S    
C11   H1    S    
C35   C36   A    
C2    O33   S    
C92   H26   S    
C36   H44   S    
Cr1   O4    S    
C90   H19   S    
C71   C72   S    
C34   C67   S    
C6    H48   S    
C27   O22   S    
C66   C71   A    
C60   C62   T    
Cr5   O8    S    
C37   H45   S    
C86   H9    S    
C77   O2    A    
C14   C15   T    
C90   H18   S    
C81   O9    A    
C88   H15   S    
C53   C58   A    
C84   O20   S    
C87   O24   S    
C58   C61   S    
C97   O33   S    
C91   H24   S    
C65   C70   A    
C93   H28   S    
C72   C74   T    
Cr2   O19   S    
Cr6   O3    S    
C44   C46   A    
C35   C40   S    
Cr4   O37   S    
C87   H11   S    
Cr3   O23   S    
C90   H20   S    
Cr5   O7    S    
C95   O31   S    
C20   C21   A    
C1    O4    A    
C55   C57   A    
C97   H42   S    
C96   H38   S    
C62   C80   S    
C91   H21   S    
Br5   C8    S    
C21   C22   A    
C79   O3    A    
C2    C3    A    
C17   C75   S    
C16   C89   S    
C55   C59   A    
C54   O28   S    
C18   C24   A    
C92   O28   S    
C79   O36   A    
C12   C45   A    
C76   C83   A    
C22   O20   S    
C77   O39   A    
Br13  C42   S    
C80   O7    A    
C87   H13   S    
Cr6   O10   S    
Br14  C41   S    
C52   O17   A    
C4    O15   A    
C34   C76   A    
C96   O32   S    
C19   H23   S    
C27   C29   A    
C91   O27   S    
Cr4   O5    S    
Cr5   O39   S    
C92   H25   S    
Cr1   O18   S    
C39   C41   A    
C44   C50   A    
C66   O31   S    
Cr5   O11   S    
C86   H8    S    
C24   H12   S    
C94   H32   S    
C1    C18   S    
C95   H35   S    
C10   C11   A    
C16   O1    A    
C68   O32   S    
Cr4   O6    S    
Br2   C53   S    
C25   C26   A    
Br4   C9    S    
C12   O27   S    
C3    C5    A    
Cr1   O17   S    
C29   O21   S    
C28   O19   A    
C54   C59   A    
C35   C41   A    
C90   O26   S    
Br9   C26   S    
C37   C38   A    
Br10  C25   S    
C94   O30   S    
C9    C17   A    
C97   H43   S    
C88   H17   S    
Cr4   O11   S    
C80   O6    A    
C91   H22   S    
C93   H30   S    
C2    C89   A    
C57   O30   S    
C69   C70   A    
C4    C64   S    
Cr1   O1    S    
C86   O22   S    
C48   C49   T    
C36   C37   A    
C27   C33   A    
C23   C34   A    
C84   H3    S    
C95   H37   S    
C84   H2    S    
C82   O5    A    
C96   H40   S    
C23   H47   S    
C94   H33   S    
Br12  C43   S    
C87   H14   S    
Cr6   O11   S    
C53   C54   A    
Cr2   O14   S    
C4    O14   A    
C51   C52   S    
C75   O37   A    
Cr3   O15   S    
Cr3   O34   S    
C85   H5    S    
C45   C83   A    
C16   O16   A    
C42   C43   A    
C5    C15   S    
C77   C78   S    
Cr5   O38   S    
C95   H36   S    
C38   C39   A    
C43   C50   A    
C85   H6    S    
C93   H29   S    
C69   H46   S    
C33   C79   S    
C75   O38   A    
C8    C9    A    
C97   H41   S    
C56   C78   T    
C30   C31   S    
C52   O34   A    
C50   C81   S    
C38   C49   S    
C20   H34   S    
C12   C23   A    
C92   H27   S    
C25   C30   A    
C28   O18   A    
C11   C13   A    
C68   C71   A    
Br8   C3    S    
C51   C61   T    
C40   O12   A    
Br11  C83   S    
C8    C13   A    
C18   C19   A    
C22   C24   A    
C81   O8    A    
C10   C17   A    
C57   C58   A    
Br6   C7    S    
C64   C67   T    
Cr3   O16   S    
Cr6   O2    S    
Cr4   O36   S    
C55   O29   S    
C88   O25   S    
Cr2   O35   S    
C19   C20   A    
Cr2   O13   S    
C85   O21   S    
C47   C48   S    
C88   H16   S    
C96   H39   S    
C45   C56   S    
C65   C66   A    
C7    C89   A    
C31   C32   T    
C6    C7    A    
C63   C73   T    
C28   C63   S    
C46   O25   S    
C68   C69   A    
C1    O13   A    
C44   O26   S    
C42   C47   A    
C46   C47   A    
C40   O23   A    
Cr3   O35   S    
C94   H31   S    
C21   C32   S    
C39   O24   S    
Cr1   O35   S    
C93   O29   S    
Br7   C10   S    
C85   H7    S    
C13   C14   S    
