data_mof_unit_10632.cif
_audit_creation_date              2013-03-05T15:40:45-0500
_audit_creation_method            fapswitch 2.2
_symmetry_space_group_name_H-M    P1
_symmetry_Int_Tables_number       1
_space_group_crystal_system       triclinic
_cell_length_a                    6.921667
_cell_length_b                    17.325244
_cell_length_c                    24.127442
_cell_angle_alpha                 104.455523
_cell_angle_beta                  90.4563
_cell_angle_gamma                 90.003325
_cell_volume                      2801.65877021

loop_
_atom_site_label
_atom_site_type_symbol
_atom_site_description
_atom_site_fract_x
_atom_site_fract_y
_atom_site_fract_z
_atom_type_partial_charge
O1    O     O_R   0.494290 0.391990 0.999150 -0.524850
O2    O     O_R   0.827170 0.534410 0.082350 -0.573940
O3    O     O_R   0.994360 0.608010 0.000850 -0.566708
C1    C     C_R   0.658871 0.549178 0.106245 0.801725
O4    O     O_R   0.824210 0.388010 0.004470 -0.546118
O5    O     O_R   0.991370 0.460560 0.922410 -0.550519
C2    C     C_R   0.653999 0.355246 0.001902 0.892294
O6    O     O_R   0.497270 0.539440 0.077590 -0.567957
O7    O     O_3   0.659770 0.523970 0.973170 -0.252888
V1    V     V_3+5 0.935840 0.495550 0.004980 1.216185
O8    O     O_R   0.320910 0.465590 0.917650 -0.513623
C3    C     C_R   0.151362 0.451141 0.893900 0.945665
O9    O     O_R   0.323870 0.611990 0.995530 -0.557149
C4    C     C_R   0.154370 0.645101 0.998433 0.865197
V2    V     V_3+5 0.435470 0.504450 0.995020 1.248817
O10   O     O_3   0.161670 0.476030 0.026830 -0.269261
C5    C     C_2   0.142733 0.730166 0.997894 -0.199909
H1    H     H_    0.277218 0.760909 0.994435 0.107933
C6    C     C_2   0.972784 0.769753 0.001864 -0.222171
H2    H     H_    0.838290 0.738993 0.005283 0.101002
C7    C     C_R   0.109760 0.241375 0.625831 0.587159
N1    N     N_R   0.090987 0.321629 0.649235 -0.437611
C8    C     C_R   0.056226 0.373061 0.615489 0.689239
C9    C     C_R   0.060766 0.346075 0.555162 -0.108201
C10   C     C_R   0.065711 0.262808 0.530548 -0.069905
C11   C     C_R   0.086023 0.209098 0.566017 -0.026614
C12   C     C_R   0.057052 0.399127 0.518663 0.345635
C13   C     C_R   0.041745 0.368537 0.459263 -0.082588
C14   C     C_R   0.037611 0.286232 0.434651 -0.077062
C15   C     C_R   0.050688 0.233225 0.470231 -0.037579
C16   C     C_R   0.048758 0.150601 0.445373 -0.015922
C17   C     C_R   0.063917 0.097753 0.480673 -0.092998
C18   C     C_R   0.083599 0.125670 0.540100 -0.066499
C19   C     C_R   0.026492 0.255624 0.374798 0.621730
N2    N     N_R   0.024787 0.174923 0.351226 -0.429383
C20   C     C_R   0.032027 0.122487 0.385415 0.654742
O11   O     O_2   0.152425 0.193528 0.660524 -0.529022
O12   O     O_2   0.013258 0.449667 0.640594 -0.424568
H3    H     H_    0.039660 0.409825 0.432132 0.165634
O13   O     O_2   0.019459 0.306222 0.340425 -0.530960
O14   O     O_2   0.023618 0.043350 0.361485 -0.504758
H4    H     H_    0.061420 0.033943 0.461944 0.122993
C21   C     C_R   0.167331 0.101398 0.258041 0.386524
C22   C     C_R   0.145076 0.070430 0.198560 -0.152454
H5    H     H_    0.262368 0.036685 0.174633 0.138060
C23   C     C_R   0.975966 0.083420 0.169385 -0.165631
C24   C     C_R   0.825513 0.128832 0.201312 -0.073957
C25   C     C_R   0.845365 0.158310 0.260687 -0.017985
H6    H     H_    0.729375 0.192708 0.284891 0.148341
C26   C     C_R   0.013674 0.144899 0.289634 0.192961
C27   C     C_R   0.266586 0.404956 0.733588 0.324105
C28   C     C_R   0.279274 0.439259 0.793388 0.236244
C29   C     C_R   0.139033 0.420387 0.830492 -0.192486
C30   C     C_R   0.985911 0.369244 0.806945 -0.098748
H7    H     H_    0.877628 0.354309 0.834845 0.132659
C31   C     C_R   0.970393 0.336357 0.747958 -0.041338
C32   C     C_R   0.111085 0.353216 0.710676 0.143671
C33   C     C_R   0.525973 0.876153 0.613737 0.561219
N3    N     N_R   0.520687 0.825157 0.649073 -0.455438
C34   C     C_R   0.538890 0.744386 0.627002 0.585783
C35   C     C_R   0.553151 0.711986 0.567425 -0.048821
C36   C     C_R   0.557446 0.763387 0.530701 -0.044721
C37   C     C_R   0.546809 0.846426 0.554089 -0.023137
C38   C     C_R   0.561932 0.629439 0.544013 0.031917
C39   C     C_R   0.569892 0.597214 0.484700 -0.041838
C40   C     C_R   0.577732 0.648432 0.446845 -0.059643
C41   C     C_R   0.573084 0.731921 0.470603 -0.034930
C42   C     C_R   0.583589 0.784431 0.434465 -0.025940
C43   C     C_R   0.575817 0.867184 0.458428 -0.062005
C44   C     C_R   0.556128 0.897748 0.517386 -0.076871
C45   C     C_R   0.589778 0.620115 0.386288 0.550397
N4    N     N_R   0.601538 0.672345 0.351987 -0.450762
C46   C     C_R   0.601558 0.753096 0.375062 0.573446
O15   O     O_2   0.509663 0.955401 0.636092 -0.527989
O16   O     O_2   0.543627 0.695407 0.662576 -0.460439
H8    H     H_    0.560454 0.589326 0.572046 0.184130
O17   O     O_2   0.588757 0.541213 0.361580 -0.538621
O18   O     O_2   0.619622 0.803109 0.340563 -0.511052
H9    H     H_    0.583260 0.908763 0.431614 0.150965
H10   H     H_    0.548899 0.961802 0.534091 0.127851
C47   C     C_R   0.464714 0.651903 0.253447 -0.010545
C48   C     C_R   0.482198 0.621532 0.194091 -0.116651
H11   H     H_    0.364783 0.630981 0.166510 0.092044
C49   C     C_R   0.648702 0.579848 0.169989 -0.113662
C50   C     C_R   0.799079 0.568557 0.207554 -0.101563
C51   C     C_R   0.781034 0.599393 0.266933 0.000576
H12   H     H_    0.896241 0.590440 0.295390 0.095990
C52   C     C_R   0.615634 0.641517 0.290445 0.257598
C53   C     C_R   0.334801 0.837801 0.739311 -0.090287
C54   C     C_R   0.320158 0.866504 0.799412 0.291928
C55   C     C_R   0.464425 0.917871 0.830614 -0.169696
C56   C     C_R   0.622423 0.938130 0.800826 -0.096857
H13   H     H_    0.733491 0.978077 0.823446 0.143009
C57   C     C_R   0.640200 0.907274 0.741778 0.032436
H14   H     H_    0.765874 0.922694 0.720297 0.104612
C58   C     C_R   0.497769 0.856919 0.710308 0.194487
C59   C     C_2   0.637948 0.273289 0.008796 -0.290719
C60   C     C_2   0.479407 0.226280 0.989393 0.154050
O19   O     O_R   0.618210 0.960470 0.922400 -0.541949
O20   O     O_R   0.291310 0.111960 0.995450 -0.516359
O21   O     O_R   0.124210 0.039530 0.077580 -0.559176
C61   C     C_R   0.461659 0.144772 0.997847 0.807743
O22   O     O_R   0.288310 0.965490 0.917650 -0.518777
O23   O     O_R   0.121180 0.892010 0.999220 -0.556437
C62   C     C_R   0.456184 0.949012 0.894032 0.871066
O24   O     O_R   0.621230 0.107990 0.000760 -0.582455
O25   O     O_3   0.455770 0.976060 0.026840 -0.289389
V3    V     V_3+5 0.179680 0.004440 0.995020 1.244803
O26   O     O_R   0.791670 0.888040 0.004570 -0.563142
C63   C     C_R   0.961150 0.854872 0.001491 0.897879
O27   O     O_R   0.794680 0.034510 0.082370 -0.565709
C64   C     C_R   0.963881 0.051190 0.105972 0.846986
V4    V     V_3+5 0.680070 0.995560 0.005010 1.197290
O28   O     O_3   0.953840 0.023940 0.973160 -0.244110
N5    N     N_R   0.407615 0.424903 0.695876 0.121879
O29   O     O_R   0.481526 0.369713 0.654804 -0.366549
O30   O     O_R   0.454124 0.498978 0.700271 -0.196205
N6    N     N_R   0.432433 0.494284 0.815954 0.124958
O31   O     O_R   0.392521 0.566189 0.845356 -0.297577
O32   O     O_R   0.611623 0.474111 0.804750 -0.320798
C65   C     C_1   0.806308 0.286115 0.726301 0.422277
N7    N     N_1   0.674924 0.245683 0.709034 -0.206054
C66   C     C_1   0.569165 0.511216 0.465113 0.470050
N8    N     N_1   0.568279 0.442352 0.449745 -0.236931
C67   C     C_1   0.289766 0.693000 0.275766 0.308497
N9    N     N_1   0.149856 0.726216 0.293741 -0.252018
C68   C     C_1   0.970792 0.523370 0.187097 0.304283
N10   N     N_1   0.108390 0.487052 0.170833 -0.255829
C69   C     C_1   0.179489 0.790427 0.707401 0.428559
N11   N     N_1   0.055098 0.752633 0.681868 -0.197097
N12   N     N_R   0.165111 0.839332 0.828752 0.079805
O33   O     O_R   0.012756 0.883410 0.843055 -0.370087
O34   O     O_R   0.164010 0.766211 0.833555 -0.299536
C70   C     C_1   0.787384 0.249771 0.043854 0.334979
N13   N     N_1   0.906646 0.231410 0.071923 -0.249950
N14   N     N_R   0.336082 0.250525 0.953535 0.091472
O35   O     O_R   0.388246 0.269389 0.906872 -0.372521
O36   O     O_R   0.153120 0.242537 0.962763 -0.348524
N15   N     N_R   0.087111 0.483415 0.540247 0.113539
O37   O     O_R   0.235133 0.509029 0.573290 -0.298008
O38   O     O_R   0.994992 0.533327 0.517358 -0.390474
C71   C     C_1   0.094181 0.065986 0.572555 0.385912
N16   N     N_1   0.102165 0.017890 0.598269 -0.218565
N17   N     N_R   0.347046 0.089411 0.285254 0.094164
O39   O     O_R   0.408992 0.141488 0.330566 -0.382291
O40   O     O_R   0.458381 0.029797 0.261935 -0.342088
C72   C     C_1   0.652459 0.149370 0.174363 0.354299
N18   N     N_1   0.514010 0.166080 0.152815 -0.289237

loop_
_geom_bond_atom_site_label_1
_geom_bond_atom_site_label_2
_geom_bond_distance
_ccdc_geom_bond_type
O23   C63   1.289349 A    
C7    C11   1.419747 A    
C23   C64   1.493685 S    
C55   C62   1.491604 S    
N2    C20   1.371765 A    
C9    C12   1.422913 A    
C45   O17   1.348040 S    
C1    O6    1.298856 A    
N1    C32   1.451927 S    
C59   C60   1.374060 D    
C21   N17   1.441073 S    
C66   N8    1.157622 T    
C29   C30   1.403617 A    
C22   H5    1.083139 S    
O21   C64   1.297938 A    
C14   C15   1.407442 A    
C36   C41   1.421009 A    
C19   O13   1.349413 S    
C13   C14   1.401339 A    
C69   N11   1.157446 T    
C50   C51   1.405076 A    
C15   C16   1.407208 A    
C51   C52   1.403157 A    
V2    O10   2.152864 S    
C60   N14   1.441160 S    
C33   C37   1.410858 A    
C53   C69   1.446817 S    
C31   C32   1.409920 A    
C27   N5    1.439197 S    
C19   N2    1.371635 A    
V3    O28   1.706390 S    
N6    O31   1.301328 A    
O25   V4    1.704025 S    
C72   N18   1.157440 T    
C23   C24   1.416748 A    
O8    V2    1.978800 S    
O22   C62   1.298367 A    
C16   C17   1.400947 A    
C42   C43   1.406909 A    
N5    O30   1.301312 A    
C8    C9    1.413905 A    
C50   C68   1.444189 S    
O22   V3    1.974574 S    
C27   C32   1.417965 A    
O7    V1    2.155997 S    
C3    C29   1.490850 S    
O26   V4    2.014272 S    
C35   C36   1.404772 A    
O21   V3    1.972949 S    
C25   C26   1.402512 A    
C40   C41   1.417131 A    
N3    C34   1.373600 A    
O9    C4    1.300682 A    
C4    C5    1.479252 S    
C20   O14   1.349371 S    
C43   C44   1.396255 A    
C59   C70   1.452427 S    
C56   C57   1.397573 A    
N4    C52   1.451196 S    
C22   C23   1.407938 A    
C47   C48   1.403217 A    
C30   C31   1.398003 A    
N1    C8    1.368926 A    
O19   C62   1.298273 A    
C24   C72   1.444751 S    
O20   V3    2.014257 S    
O24   V4    2.017365 S    
C44   H10   1.083300 S    
C41   C42   1.410749 A    
C49   C50   1.420084 A    
N17   O40   1.301554 A    
C55   C56   1.405024 A    
O4    C2    1.302031 A    
C51   H12   1.084352 S    
N14   O35   1.301879 A    
C13   H3    1.083529 S    
C10   C11   1.419060 A    
C60   C61   1.481564 S    
C14   C19   1.410141 A    
C12   N15   1.437210 S    
C27   C28   1.418637 A    
C34   C35   1.410864 A    
C35   C38   1.401914 A    
O2    C1    1.300746 A    
C21   C22   1.408271 A    
C40   C45   1.423538 A    
O19   V4    1.976628 S    
C36   C37   1.410300 A    
C11   C18   1.424459 A    
C24   C25   1.401278 A    
C1    C49   1.498806 S    
C37   C44   1.404621 A    
C46   O18   1.349447 S    
N2    C26   1.448130 S    
O20   C61   1.303537 A    
C5    H1    1.086534 S    
C38   H8    1.084114 S    
O27   V4    1.978895 S    
C9    C10   1.416897 A    
C57   C58   1.402429 A    
C65   N7    1.157346 T    
O3    C4    1.289434 A    
O1    V2    2.017007 S    
C54   N12   1.432786 S    
N14   O36   1.300901 A    
C25   H6    1.083762 S    
C48   H11   1.084399 S    
O6    V2    1.975550 S    
C48   C49   1.410333 A    
O9    V2    2.014214 S    
C67   N9    1.157251 T    
C33   N3    1.373093 A    
N3    C58   1.452122 S    
O25   V3    2.155996 S    
C68   N10   1.157461 T    
O2    V1    1.974517 S    
O23   V3    2.016820 S    
C28   C29   1.417932 A    
C33   O15   1.349085 S    
V4    O28   2.152866 S    
C6    C63   1.479185 S    
C10   C15   1.420068 A    
C30   H7    1.084819 S    
C2    C59   1.474581 S    
O27   C64   1.298675 A    
C47   C67   1.443036 S    
O1    C2    1.285186 A    
N4    C46   1.370550 A    
N12   O34   1.300655 A    
O5    V1    1.973162 S    
N15   O37   1.300984 A    
C21   C26   1.416476 A    
C70   N13   1.157571 T    
C18   C71   1.446079 S    
C8    O12   1.348483 S    
C34   O16   1.349441 S    
N17   O39   1.301212 A    
C31   C65   1.443601 S    
C6    H2    1.086519 S    
C42   C46   1.406673 A    
O4    V1    2.014138 S    
O3    V1    2.016864 S    
V1    O10   1.706336 S    
O26   C63   1.300772 A    
C17   C18   1.399641 A    
O5    C3    1.297031 A    
N15   O38   1.300838 A    
C54   C55   1.417507 A    
C53   C58   1.414221 A    
C38   C39   1.401816 A    
C56   H13   1.082845 S    
C5    C6    1.353668 D    
C61   O24   1.285365 A    
C39   C66   1.446262 S    
O7    V2    1.704298 S    
C57   H14   1.083022 S    
N6    O32   1.300682 A    
C47   C52   1.409190 A    
C43   H9    1.083201 S    
C45   N4    1.373054 A    
C7    O11   1.348174 S    
C39   C40   1.424771 A    
C12   C13   1.401583 A    
C71   N16   1.157538 T    
C17   H4    1.084979 S    
C16   C20   1.410299 A    
N5    O29   1.301174 A    
C53   C54   1.415147 A    
C7    N1    1.370474 A    
N12   O33   1.299483 A    
O8    C3    1.298423 A    
C28   N6    1.435495 S    
