data_mof_unit_41533.cif
_audit_creation_date              2012-12-11T16:22:51-0500
_audit_creation_method            fapswitch 2.2
_symmetry_space_group_name_H-M    P1
_symmetry_Int_Tables_number       1
_space_group_crystal_system       triclinic
_cell_length_a                    16.874094
_cell_length_b                    16.82362
_cell_length_c                    19.594415
_cell_angle_alpha                 117.985785
_cell_angle_beta                  62.348573
_cell_angle_gamma                 100.910002
_cell_volume                      4348.15741707

loop_
_atom_site_label
_atom_site_type_symbol
_atom_type_description
_atom_site_fract_x
_atom_site_fract_y
_atom_site_fract_z
_atom_type_partial_charge
C1    C     C_R   0.030378 0.759635 0.020617 -0.142040
C2    C     C_R   0.239692 0.572331 0.833697 -0.070680
C3    C     C_R   0.195048 0.438775 0.037633 -0.113173
C4    C     C_R   0.748678 0.472176 0.170856 -0.127653
C5    C     C_R   0.989855 0.339765 0.759771 -0.100778
C6    C     C_R   0.276382 0.450172 0.977357 0.055140
C7    C     C_R   0.941924 0.263229 0.759666 0.034760
C8    C     C_R   0.241576 0.544535 0.754565 0.080832
C9    C     C_R   0.001031 0.227427 0.028585 0.053073
C10   C     C_R   0.987385 0.997931 0.419327 -0.189275
C11   C     C_R   0.026969 0.917331 0.347177 -0.089981
C12   C     C_R   0.740383 0.527132 0.253080 0.032592
C13   C     C_R   0.973476 0.841149 0.332819 0.044491
C14   C     C_R   0.882617 0.847236 0.390073 -0.175414
C15   C     C_R   0.844874 0.927284 0.462291 -0.138385
C16   C     C_R   0.815391 0.508128 0.912771 -0.137903
C17   C     C_R   0.897372 0.002570 0.477638 0.177171
C18   C     C_R   0.883452 0.167790 0.572724 -0.104206
C19   C     C_R   0.901894 0.230644 0.641596 -0.222173
C20   C     C_R   0.903749 0.204903 0.699471 0.129803
C21   C     C_R   0.873348 0.120493 0.696407 -0.148154
C22   C     C_R   0.854456 0.057908 0.628977 -0.170305
C23   C     C_R   0.741994 0.457277 0.935002 0.054752
C24   C     C_R   0.867731 0.078374 0.562940 0.037148
C25   C     C_R   0.496688 0.558714 0.405920 -0.162085
C26   C     C_R   0.574545 0.530200 0.330012 -0.162376
C27   C     C_R   0.656491 0.567423 0.329499 0.144241
C28   C     C_R   0.983135 0.671808 0.248453 -0.140748
C29   C     C_R   0.657621 0.640850 0.403651 -0.164063
C30   C     C_R   0.579525 0.669411 0.479724 -0.173024
C31   C     C_R   0.500037 0.624261 0.482220 0.143455
C32   C     C_R   0.458485 0.607444 0.612344 -0.337409
C33   C     C_R   0.397103 0.580876 0.675317 0.536716
C34   C     C_R   0.006224 0.757340 0.254614 0.111744
C35   C     C_R   0.306605 0.573791 0.690000 0.036626
C36   C     C_R   0.278435 0.595999 0.643787 -0.243787
C37   C     C_R   0.340419 0.621097 0.580397 -0.167637
C38   C     C_R   0.431068 0.624708 0.562979 0.084051
C39   C     C_R   0.675658 0.427870 0.899980 0.124829
C40   C     C_R   0.749928 0.430027 0.988024 -0.132110
C41   C     C_R   0.362498 0.405313 0.942028 0.125433
C42   C     C_R   0.454232 0.328739 0.959820 -0.217474
C43   C     C_R   0.370433 0.348823 0.973501 -0.162380
C44   C     C_R   0.439658 0.428306 0.884746 -0.260440
C45   C     C_R   0.261532 0.515671 0.959998 -0.114421
C46   C     C_R   0.523067 0.413687 0.875504 0.175214
C47   C     C_R   0.529583 0.367634 0.917245 0.185980
C48   C     C_R   0.607548 0.371829 0.925929 -0.266990
C49   C     C_R   0.673200 0.464010 0.849177 -0.166140
C50   C     C_R   0.597582 0.455351 0.835564 -0.199792
C51   C     C_R   0.843940 0.196522 0.206029 0.118279
C52   C     C_R   0.048253 0.750093 0.172335 -0.071808
C53   C     C_R   0.937452 0.865591 0.024481 0.141847
C54   C     C_R   0.806703 0.958180 0.080547 -0.208621
C55   C     C_R   0.849714 0.873710 0.036976 -0.097652
C56   C     C_R   0.922711 0.261807 0.835845 -0.128838
C57   C     C_R   0.981084 0.944303 0.057542 -0.235565
C58   C     C_R   0.936659 0.029024 0.105189 0.157485
C59   C     C_R   0.848867 0.036030 0.116304 0.182250
C60   C     C_R   0.803622 0.120341 0.165692 -0.384965
C61   C     C_R   0.930076 0.190331 0.196816 0.526212
C62   C     C_R   0.977086 0.106358 0.145062 -0.414509
C63   C     C_R   0.826301 0.538910 0.248676 -0.108350
C64   C     C_R   0.955948 0.690596 0.940248 -0.082254
C65   C     C_R   0.976743 0.775668 0.991542 -0.019309
C66   C     C_2   0.124797 0.913561 0.292520 0.974160
C67   C     C_R   0.162122 0.501645 0.756726 -0.107961
C68   C     C_2   0.886663 0.194434 0.508964 1.008526
C69   C     C_2   0.942455 0.669600 0.864304 0.951068
C70   C     C_R   0.033073 0.310679 0.068310 -0.107567
C71   C     C_R   0.958337 0.242454 0.989584 -0.115190
H1    H     H_    0.064407 0.809733 0.055776 0.103699
H2    H     H_    0.840551 0.789737 0.378700 0.118289
H3    H     H_    0.695940 0.449927 0.150161 0.096963
H4    H     H_    0.775865 0.929732 0.507884 0.118172
H5    H     H_    0.918506 0.298252 0.647692 0.154282
H6    H     H_    0.871916 0.099474 0.741355 0.113188
H7    H     H_    0.841773 0.989668 0.622466 0.125467
H8    H     H_    0.436218 0.522461 0.406465 0.123902
H9    H     H_    0.571049 0.474347 0.273742 0.111925
H10   H     H_    0.719299 0.673209 0.404228 0.105315
H11   H     H_    0.582856 0.720942 0.538107 0.121291
H12   H     H_    0.874925 0.219917 0.863008 0.089240
H13   H     H_    0.528950 0.607384 0.597175 0.132204
H14   H     H_    0.836893 0.528056 0.862387 0.132515
H15   H     H_    0.208767 0.592520 0.655660 0.156973
H16   H     H_    0.318494 0.633507 0.542202 0.133252
H17   H     H_    0.609646 0.340004 0.961865 0.115929
H18   H     H_    0.726108 0.504649 0.825147 0.127573
H19   H     H_    0.458732 0.291154 0.990245 0.130057
H20   H     H_    0.594037 0.489369 0.801768 0.138865
H21   H     H_    0.312332 0.325606 0.014004 0.118374
H22   H     H_    0.435169 0.467197 0.855610 0.139148
H23   H     H_    0.135995 0.482228 0.710253 0.131773
H24   H     H_    0.736461 0.127189 0.174749 0.160254
H25   H     H_    0.957207 0.652638 0.300102 0.103203
H26   H     H_    0.738818 0.962188 0.089819 0.135435
H27   H     H_    0.044023 0.101119 0.137449 0.150540
H28   H     H_    0.812123 0.814570 0.017206 0.145960
H29   H     H_    0.048206 0.939480 0.049619 0.126632
H30   H     H_    0.712720 0.378827 0.007582 0.086407
H31   H     H_    0.080092 0.803378 0.154222 0.089093
H32   H     H_    0.842726 0.573800 0.302244 0.092598
H33   H     H_    0.309615 0.543208 0.917519 0.113335
H34   H     H_    0.060598 0.325781 0.112826 0.126036
H35   H     H_    0.241161 0.840210 0.216189 0.326979
H36   H     H_    0.859280 0.163419 0.409453 0.336388
H37   H     H_    0.490168 0.565201 0.701060 0.313452
H38   H     H_    0.027207 0.252086 0.226002 0.316124
H39   H     H_    0.965203 0.580913 0.742846 0.322153
H40   H     H_    0.919352 0.194516 0.958306 0.102073
H41   H     H_    0.282468 0.621124 0.859182 0.127986
H42   H     H_    0.182650 0.395613 0.067874 0.088452
H43   H     H_    0.006140 0.368843 0.716185 0.113290
H44   H     H_    0.028641 0.055567 0.434017 0.145335
N1    N     N_R   0.034930 0.670790 0.995440 -0.049820
N2    N     N_R   0.867000 0.509260 0.948460 -0.038351
N3    N     N_R   0.003780 0.616410 0.165900 -0.044524
N4    N     N_R   0.825670 0.461520 0.995440 -0.042861
N5    N     N_R   0.045120 0.664150 0.118920 -0.048569
N6    N     N_R   0.884940 0.497570 0.165910 -0.038821
N7    N     N_R   0.985840 0.628110 0.948460 -0.051597
N8    N     N_R   0.174330 0.538480 0.004560 -0.043746
N9    N     N_R   0.954880 0.335850 0.881080 -0.041957
N10   N     N_R   0.115060 0.502430 0.834090 -0.037593
N11   N     N_R   0.014160 0.371890 0.051540 -0.045938
N12   N     N_R   0.965070 0.329210 0.004560 -0.045783
N13   N     N_R   0.164150 0.545120 0.881070 -0.060676
N14   N     N_R   0.133000 0.490740 0.051540 -0.039676
N15   N     N_R   0.996220 0.383590 0.834100 -0.035671
N16   N     N_R   0.835850 0.454880 0.118930 -0.042182
Ni1   Ni    Ni4+2 0.103690 0.603690 0.000000 0.219676
Ni2   Ni    Ni4+2 0.896310 0.396310 0.000000 0.208856
Ni3   Ni    Ni4+2 0.991110 0.505800 0.892250 0.250519
Ni4   Ni    Ni4+2 0.008890 0.494200 0.107750 0.236168
O1    O     O_2   0.161726 0.981116 0.285593 -0.639631
O2    O     O_R   0.175464 0.833846 0.251044 -0.802757
O3    O     O_2   0.917358 0.266495 0.509241 -0.635702
O4    O     O_R   0.853209 0.137864 0.449276 -0.794914
O5    O     O_3   0.424997 0.556228 0.719101 -0.789585
O6    O     O_3   0.966231 0.267323 0.239076 -0.757932
O7    O     O_2   0.907676 0.725208 0.862060 -0.654251
O8    O     O_R   0.976168 0.587472 0.791892 -0.837096

loop_
_geom_bond_atom_site_label_1
_geom_bond_atom_site_label_2
_ccdc_geom_bond_type
N10   Ni3   S    
C25   C31   A    
C15   H4    S    
C58   C62   A    
N11   N12   A    
C6    C45   A    
C5    H43   S    
C27   C29   A    
C3    N14   A    
C54   C55   A    
C68   O3    D    
C35   C36   A    
C51   C61   A    
C3    C6    A    
C45   N8    A    
C2    H41   S    
C26   C27   A    
N4    Ni2   S    
N1    N7    A    
N9    Ni2   S    
C18   C24   A    
C56   N9    A    
C36   C37   A    
C67   N10   A    
C30   C31   A    
N8    Ni1   S    
C64   N7    A    
C10   C17   A    
C18   C68   S    
C23   C40   A    
C18   C19   A    
N7    Ni3   S    
C44   H22   S    
C40   H30   S    
C62   H27   S    
C19   C20   A    
C6    C41   S    
C71   H40   S    
N10   N13   A    
C1    C65   A    
C48   H17   S    
C54   H26   S    
C1    N1    A    
C32   C38   A    
C4    C12   A    
C29   C30   A    
C53   C65   S    
C4    H3    S    
C61   C62   A    
C11   C66   S    
C70   N11   A    
C28   C34   A    
C59   C60   A    
N14   Ni4   S    
C21   C22   A    
N8    N14   A    
C41   C43   A    
C71   N12   A    
N15   Ni3   S    
C7    C56   A    
N6    N16   A    
N2    Ni3   S    
N13   Ni1   S    
C63   N6    A    
C44   C46   A    
C4    N16   A    
C54   C59   A    
C53   C55   A    
C32   H13   S    
C1    H1    S    
C12   C27   S    
C17   C24   S    
C14   H2    S    
C9    C71   A    
C9    C70   A    
C22   H7    S    
C63   H32   S    
C3    H42   S    
C5    C7    A    
C12   C63   A    
C53   C57   A    
H35   O2    S    
C36   H15   S    
C25   C26   A    
C57   H29   S    
C26   H9    S    
C42   H19   S    
C8    C35   S    
C30   H11   S    
C29   H10   S    
C37   C38   A    
C45   H33   S    
C67   H23   S    
C47   C48   A    
N1    Ni1   S    
C52   H31   S    
N9    N15   A    
C64   C69   S    
N6    Ni4   S    
C66   O1    D    
C52   N5    A    
C61   O6    S    
C5    N15   A    
C39   C49   A    
N11   Ni4   S    
C49   C50   A    
C16   C23   A    
C16   H14   S    
C41   C44   A    
C22   C24   A    
C58   C59   A    
C42   C43   A    
C21   H6    S    
C56   H12   S    
H37   O5    S    
C15   C17   A    
C46   C47   A    
C19   H5    S    
N5    Ni1   S    
C37   H16   S    
C2    C8    A    
N12   Ni2   S    
C49   H18   S    
N16   Ni2   S    
C70   H34   S    
C25   H8    S    
C69   O8    S    
C46   C50   A    
C34   C52   A    
C43   H21   S    
C31   C38   S    
C28   H25   S    
C64   C65   A    
N2    N4    A    
C69   O7    D    
C13   C34   S    
C28   N3    A    
C16   N2    A    
C32   C33   A    
C11   C13   A    
C57   C58   A    
C66   O2    S    
C23   C39   S    
C33   C35   A    
C42   C47   A    
H36   O4    S    
H39   O8    S    
N3    N5    A    
C10   C11   A    
C10   H44   S    
C60   H24   S    
C50   H20   S    
C40   N4    A    
C20   C21   A    
C8    C67   A    
C7    C20   S    
C55   H28   S    
C14   C15   A    
C68   O4    S    
H38   O6    S    
C51   C60   A    
C33   O5    S    
C13   C14   A    
N3    Ni4   S    
C39   C48   A    
C2    N13   A    
