data_mof_unit_11022.cif
_audit_creation_date              2012-12-11T15:34:03-0500
_audit_creation_method            fapswitch 2.2
_symmetry_space_group_name_H-M    P1
_symmetry_Int_Tables_number       1
_space_group_crystal_system       triclinic
_cell_length_a                    15.041909
_cell_length_b                    15.061377
_cell_length_c                    34.965928
_cell_angle_alpha                 90.653464
_cell_angle_beta                  90.087206
_cell_angle_gamma                 60.110163
_cell_volume                      6867.3804437

loop_
_atom_site_label
_atom_site_type_symbol
_atom_type_description
_atom_site_fract_x
_atom_site_fract_y
_atom_site_fract_z
_atom_type_partial_charge
C1    C     C_R   0.300747 0.608936 0.555396 0.532521
C2    C     C_R   0.209940 0.720037 0.390014 -0.129514
C3    C     C_R   0.746408 0.155870 0.265539 -0.122570
C4    C     C_R   0.753752 0.145616 0.225869 -0.116175
C5    C     C_R   0.669319 0.208722 0.202862 0.028476
C6    C     C_R   0.722150 0.229720 0.348229 -0.123796
C7    C     C_R   0.707531 0.243626 0.387723 -0.129672
C8    C     C_R   0.539747 0.259609 0.381014 -0.127137
C9    C     C_R   0.742072 0.588457 0.646615 -0.124477
C10   C     C_R   0.553596 0.247781 0.341614 -0.129500
C11   C     C_R   0.643810 0.235023 0.324797 0.029730
C12   C     C_R   0.614796 0.261858 0.404319 0.023881
C13   C     C_R   0.184206 0.727628 0.351353 -0.126983
C14   C     C_R   0.090805 0.706998 0.092884 0.020230
C15   C     C_R   0.132144 0.605093 0.106410 -0.008514
C16   C     C_R   0.167107 0.585155 0.144450 -0.103258
C17   C     C_R   0.167591 0.661572 0.167486 0.012492
C18   C     C_R   0.139449 0.756931 0.152158 -0.128791
C19   C     C_R   0.100866 0.779659 0.115371 -0.136583
C20   C     C_R   0.249822 0.670694 0.228041 -0.129814
C21   C     C_3   0.893512 0.075243 0.909089 -0.241215
C22   C     C_3   0.959984 0.112157 0.888998 -0.324387
C23   C     C_3   0.042701 0.107110 0.915739 -0.457589
C24   C     C_R   0.200066 0.640516 0.330671 0.022799
C25   C     C_3   0.143489 0.823070 0.589296 -0.255802
C26   C     C_3   0.025770 0.883225 0.592201 -0.307108
C27   C     C_3   0.980541 0.982222 0.569504 -0.456372
C28   C     C_3   0.651161 0.830971 0.295928 -0.261748
C29   C     C_3   0.557390 0.938995 0.295257 -0.301403
C30   C     C_3   0.571644 0.011770 0.321855 -0.445447
C31   C     C_3   0.135745 0.520455 0.080964 -0.240399
C32   C     C_3   0.214347 0.410612 0.092772 -0.320082
C33   C     C_3   0.226221 0.332886 0.061899 -0.456192
C34   C     C_3   0.046514 0.600269 0.292926 -0.255474
C35   C     C_R   0.566437 0.728186 0.649168 -0.125249
C36   C     C_3   0.965736 0.589584 0.269499 -0.311880
C37   C     C_3   0.895900 0.570149 0.295254 -0.452184
C38   C     C_3   0.524844 0.843394 0.912565 -0.247574
C39   C     C_3   0.491017 0.794350 0.943339 -0.287077
C40   C     C_3   0.397313 0.875240 0.965263 -0.452363
C41   C     C_R   0.251299 0.625214 0.408338 0.023579
C42   C     C_R   0.736254 0.025553 0.943140 0.536785
C43   C     C_R   0.745484 0.722679 0.945073 0.537019
C44   C     C_R   0.038641 0.733922 0.948459 0.540593
C45   C     C_R   0.723114 0.038852 0.052841 0.544581
C46   C     C_R   0.733291 0.734518 0.054656 0.541341
C47   C     C_R   0.659837 0.665672 0.667676 0.032223
C48   C     C_R   0.029496 0.743861 0.057474 0.536736
C49   C     C_R   0.552804 0.708037 0.611272 -0.133248
C50   C     C_R   0.679822 0.675941 0.786810 0.343216
C51   C     C_R   0.668529 0.673815 0.709389 0.343014
C52   C     C_R   0.779889 0.610526 0.846649 -0.133700
C53   C     C_R   0.793323 0.621063 0.885311 -0.143642
C54   C     C_R   0.617646 0.763264 0.890415 -0.009731
C55   C     C_R   0.605915 0.751595 0.851068 -0.113121
C56   C     C_R   0.687879 0.678574 0.828786 0.019569
C57   C     C_R   0.610819 0.588668 0.555124 0.546384
C58   C     C_R   0.254103 0.668106 0.267723 -0.131343
C59   C     C_R   0.715449 0.700396 0.907346 0.030750
C60   C     C_R   0.723287 0.073179 0.904943 0.017809
C61   C     C_R   0.635968 0.091685 0.883839 -0.135045
C62   C     C_R   0.629198 0.112288 0.845059 -0.128547
C63   C     C_R   0.708917 0.116190 0.826282 0.014794
C64   C     C_R   0.792074 0.107397 0.847342 -0.096625
C65   C     C_R   0.800860 0.086908 0.886865 -0.008620
C66   C     C_R   0.732372 0.193006 0.766899 -0.117020
C67   C     C_R   0.728325 0.202498 0.727248 -0.112555
C68   C     C_R   0.699675 0.143614 0.704374 0.025307
C69   C     C_R   0.189740 0.644060 0.288845 0.024339
C70   C     C_R   0.590611 0.299931 0.553366 0.543220
C71   C     C_R   0.677969 0.073000 0.721762 -0.118076
C72   C     C_R   0.681812 0.063683 0.761413 -0.113610
C73   C     C_R   0.707504 0.124744 0.784309 0.024063
C74   C     C_R   0.592972 0.174972 0.646145 -0.120561
C75   C     C_R   0.566457 0.212637 0.609204 -0.129533
C76   C     C_R   0.722730 0.221221 0.604410 -0.134669
C77   C     C_R   0.749339 0.183287 0.641362 -0.125410
C78   C     C_R   0.682652 0.163754 0.663059 0.031361
C79   C     C_R   0.629025 0.240082 0.588605 0.020012
C80   C     C_R   0.119886 0.621402 0.269880 0.010299
C81   C     C_R   0.094683 0.696919 0.911922 0.021481
C82   C     C_R   0.301090 0.609532 0.445819 0.540690
C83   C     C_R   0.125143 0.758667 0.892408 -0.129554
C84   C     C_R   0.152707 0.740086 0.853975 -0.122355
C85   C     C_R   0.152641 0.658226 0.834732 0.027687
C86   C     C_R   0.131551 0.590762 0.854792 -0.119500
C87   C     C_R   0.102213 0.610226 0.893242 -0.130839
C88   C     C_R   0.248160 0.567185 0.775743 -0.112874
C89   C     C_R   0.259256 0.562867 0.736061 -0.107967
C90   C     C_R   0.184655 0.640809 0.713098 0.032372
C91   C     C_R   0.118246 0.622717 0.229655 -0.097690
C92   C     C_R   0.098832 0.723083 0.730767 -0.111018
C93   C     C_R   0.088957 0.728259 0.770463 -0.107999
C94   C     C_R   0.607526 0.589169 0.445084 0.542513
C95   C     C_R   0.163619 0.650488 0.793049 0.025636
C96   C     C_R   0.168824 0.726589 0.650180 -0.098581
C97   C     C_R   0.188192 0.722606 0.610631 -0.000884
C98   C     C_R   0.268966 0.536756 0.613192 -0.137368
C99   C     C_R   0.243610 0.542744 0.651611 -0.128935
C100  C     C_R   0.198166 0.636948 0.671022 0.019571
C101  C     C_R   0.247366 0.625123 0.592625 0.023901
C102  C     C_R   0.182050 0.647801 0.208904 0.008603
C103  C     C_R   0.691071 0.719399 0.090444 0.020224
C104  C     C_R   0.610809 0.803975 0.109536 -0.130349
C105  C     C_R   0.585241 0.794905 0.147029 -0.125587
C106  C     C_R   0.587018 0.304188 0.443404 0.540635
C107  C     C_R   0.638446 0.700920 0.165822 0.029589
C108  C     C_R   0.712757 0.614435 0.145766 -0.120512
C109  C     C_R   0.739259 0.623676 0.108384 -0.128662
C110  C     C_R   0.614697 0.617064 0.223078 -0.131005
C111  C     C_R   0.612201 0.608203 0.262621 -0.136837
C112  C     C_R   0.622100 0.677226 0.287194 0.024964
C113  C     C_R   0.237412 0.546972 0.349275 -0.128876
C114  C     C_R   0.633289 0.757560 0.271574 0.011529
C115  C     C_R   0.634284 0.766119 0.231708 -0.105646
C116  C     C_R   0.626015 0.695915 0.207390 0.011570
C117  C     C_R   0.548620 0.734062 0.352839 -0.122959
C118  C     C_R   0.632274 0.624853 0.591351 0.021710
C119  C     C_R   0.547619 0.714376 0.391687 -0.129612
C120  C     C_R   0.700038 0.548301 0.382778 -0.124406
C121  C     C_R   0.700290 0.567721 0.343969 -0.133510
C122  C     C_R   0.624437 0.660400 0.328708 0.021018
C123  C     C_R   0.622086 0.620278 0.406867 0.022476
C124  C     C_R   0.261062 0.539718 0.387933 -0.127273
C125  C     C_R   0.699602 0.102955 0.087589 0.021308
C126  C     C_R   0.775046 0.120803 0.103695 -0.130507
C127  C     C_R   0.762086 0.162316 0.140408 -0.126192
C128  C     C_R   0.673400 0.187025 0.161524 0.031246
C129  C     C_R   0.594086 0.177736 0.144200 -0.123130
C130  C     C_R   0.728339 0.568099 0.608798 -0.132830
C131  C     C_R   0.607083 0.135948 0.107463 -0.130836
C132  C     C_R   0.578684 0.284936 0.220076 -0.122479
C133  C     C_R   0.571459 0.295451 0.259777 -0.119577
C134  C     C_R   0.654529 0.229411 0.282829 0.026620
Cr1   Cr    Cr6+3 0.421670 0.426920 0.499620 1.006285
Cr2   Cr    Cr6+3 0.427030 0.651190 0.500980 1.004757
Cr3   Cr    Cr6+3 0.651280 0.421870 0.499380 1.007504
Cr4   Cr    Cr6+3 0.910810 0.908010 0.001130 0.994023
Cr5   Cr    Cr6+3 0.682800 0.909890 0.998370 0.997343
Cr6   Cr    Cr6+3 0.908370 0.682300 0.002180 0.996583
H1    H     H_    0.791339 0.504275 0.593968 0.128075
H2    H     H_    0.852015 0.111720 0.832004 0.101576
H3    H     H_    0.374555 0.837597 0.987235 0.144185
H4    H     H_    0.471630 0.739266 0.929578 0.161755
H5    H     H_    0.553817 0.751748 0.964040 0.170261
H6    H     H_    0.540179 0.902336 0.925104 0.175504
H7    H     H_    0.459009 0.885944 0.892941 0.121608
H8    H     H_    0.478021 0.753613 0.598458 0.130225
H9    H     H_    0.773099 0.240567 0.589030 0.123560
H10   H     H_    0.121004 0.825601 0.906014 0.120672
H11   H     H_    0.079166 0.561407 0.907517 0.119603
H12   H     H_    0.327378 0.499493 0.723473 0.108789
H13   H     H_    0.306496 0.506978 0.792987 0.110755
H14   H     H_    0.169590 0.792268 0.838756 0.110160
H15   H     H_    0.039072 0.783222 0.713984 0.102712
H16   H     H_    0.132498 0.800125 0.664813 0.100118
H17   H     H_    0.819906 0.173327 0.653581 0.103399
H18   H     H_    0.868149 0.570449 0.897270 0.132510
H19   H     H_    0.131333 0.527174 0.840086 0.109824
H20   H     H_    0.311114 0.461164 0.600218 0.136556
H21   H     H_    0.572118 0.878731 0.096464 0.125859
H22   H     H_    0.801079 0.557133 0.094297 0.121988
H23   H     H_    0.758092 0.509026 0.325633 0.104217
H24   H     H_    0.603782 0.546326 0.274193 0.119478
H25   H     H_    0.608698 0.561891 0.204711 0.112531
H26   H     H_    0.527086 0.862314 0.161989 0.101090
H27   H     H_    0.815580 0.539935 0.659874 0.132500
H28   H     H_    0.743547 0.258927 0.714610 0.113394
H29   H     H_    0.646314 0.825223 0.219545 0.105802
H30   H     H_    0.488185 0.805040 0.341373 0.106566
H31   H     H_    0.485712 0.770676 0.409409 0.122363
H32   H     H_    0.755052 0.541305 0.159850 0.104173
H33   H     H_    0.757341 0.474302 0.393361 0.127565
H34   H     H_    0.846687 0.097351 0.088866 0.121380
H35   H     H_    0.547343 0.123748 0.095666 0.121797
H36   H     H_    0.492517 0.251164 0.324151 0.096170
H37   H     H_    0.500447 0.354294 0.272506 0.108270
H38   H     H_    0.512984 0.334921 0.202846 0.103568
H39   H     H_    0.751927 0.241153 0.784027 0.107277
H40   H     H_    0.502054 0.789213 0.664479 0.131220
H41   H     H_    0.823487 0.170445 0.153045 0.099635
H42   H     H_    0.811098 0.103593 0.282716 0.099111
H43   H     H_    0.823902 0.085008 0.213264 0.104017
H44   H     H_    0.792404 0.220128 0.335850 0.098930
H45   H     H_    0.766379 0.245716 0.404950 0.117469
H46   H     H_    0.525092 0.195919 0.160022 0.099779
H47   H     H_    0.467147 0.274020 0.392812 0.121972
H48   H     H_    0.072723 0.857051 0.105529 0.131337
H49   H     H_    0.156285 0.800211 0.337114 0.104370
H50   H     H_    0.562851 0.121853 0.829388 0.108937
H51   H     H_    0.843834 0.551623 0.830449 0.134186
H52   H     H_    0.307945 0.684959 0.282131 0.116464
H53   H     H_    0.298710 0.691260 0.212250 0.112248
H54   H     H_    0.190891 0.511554 0.157109 0.099525
H55   H     H_    0.064951 0.608223 0.213822 0.103770
H56   H     H_    0.253690 0.478224 0.333446 0.097211
H57   H     H_    0.294187 0.465122 0.401021 0.126767
H58   H     H_    0.139439 0.816713 0.169702 0.108029
H59   H     H_    0.202345 0.786828 0.404991 0.121117
H60   H     H_    0.533244 0.801723 0.837519 0.124805
H61   H     H_    0.656718 0.026047 0.704707 0.110956
H62   H     H_    0.574583 0.084322 0.896750 0.128865
H63   H     H_    0.007173 0.157865 0.941081 0.149971
H64   H     H_    0.093209 0.027284 0.925396 0.147299
H65   H     H_    0.090300 0.132829 0.900389 0.142034
H66   H     H_    0.999015 0.062354 0.863728 0.153965
H67   H     H_    0.911211 0.192568 0.879577 0.166105
H68   H     H_    0.865008 0.119856 0.936252 0.155449
H69   H     H_    0.943879 0.993053 0.915768 0.184624
H70   H     H_    0.263392 0.472620 0.666463 0.106900
H71   H     H_    0.022686 0.792664 0.783640 0.116042
H72   H     H_    0.664522 0.008858 0.774240 0.118021
H73   H     H_    0.008873 0.032718 0.580884 0.148305
H74   H     H_    0.001749 0.965189 0.538793 0.150862
H75   H     H_    0.895648 0.023291 0.571990 0.153768
H76   H     H_    0.994334 0.835242 0.580859 0.169600
H77   H     H_    0.000880 0.903346 0.622483 0.160466
H78   H     H_    0.175523 0.869713 0.601439 0.140802
H79   H     H_    0.162697 0.810904 0.558473 0.174421
H80   H     H_    0.585208 0.983041 0.351625 0.154091
H81   H     H_    0.637408 0.020077 0.312156 0.165732
H82   H     H_    0.501015 0.087917 0.321566 0.136966
H83   H     H_    0.539839 0.161123 0.662331 0.104304
H84   H     H_    0.544607 0.969548 0.265744 0.157789
H85   H     H_    0.487914 0.936597 0.304361 0.156205
H86   H     H_    0.669448 0.804902 0.325910 0.152322
H87   H     H_    0.719265 0.833035 0.284708 0.136020
H88   H     H_    0.151395 0.337226 0.056410 0.148367
H89   H     H_    0.255315 0.347675 0.034922 0.151899
H90   H     H_    0.281867 0.254404 0.071529 0.140424
H91   H     H_    0.290322 0.404335 0.097704 0.168279
H92   H     H_    0.188579 0.390779 0.119482 0.149485
H93   H     H_    0.058247 0.528343 0.080259 0.165623
H94   H     H_    0.493932 0.225991 0.597744 0.124645
H95   H     H_    0.156570 0.530960 0.051524 0.155661
H96   H     H_    0.941349 0.499252 0.311951 0.145097
H97   H     H_    0.852847 0.635862 0.315222 0.157830
H98   H     H_    0.840606 0.560348 0.277199 0.156889
H99   H     H_    0.917752 0.660916 0.253269 0.163632
H100  H     H_    0.004305 0.523735 0.249192 0.154683
H101  H     H_    0.091829 0.528309 0.308964 0.139875
H102  H     H_    0.005721 0.663936 0.313987 0.151824
H103  H     H_    0.415332 0.930312 0.979813 0.148839
H104  H     H_    0.331892 0.917399 0.945496 0.144769
N1    N     N_R   0.761750 0.608768 0.765491 -0.238401
N2    N     N_R   0.756102 0.607436 0.727589 -0.239368
N3    N     N_R   0.586680 0.741608 0.730663 -0.239822
N4    N     N_R   0.592363 0.742989 0.768630 -0.241882
O1    O     O_R   0.502070 0.323090 0.541280 -0.523030
O2    O     O_R   0.831550 0.656950 0.958960 -0.523949
O3    O     O_R   0.998590 0.685540 0.963930 -0.503130
O4    O     O_R   0.338340 0.520690 0.539540 -0.502952
O5    O     O_R   0.008220 0.831200 0.045060 -0.521118
O6    O     O_R   0.813270 0.997930 0.038810 -0.502410
O7    O     O_R   0.657500 0.016560 0.039940 -0.521987
O8    O     O_R   0.685680 0.820940 0.038120 -0.503874
O9    O     O_R   0.822130 0.666070 0.043610 -0.521865
O10   O     O_R   0.989860 0.694000 0.042400 -0.508441
O11   O     O_3   0.833990 0.833400 0.000560 -0.225466
O12   O     O_R   0.520720 0.641670 0.461580 -0.501417
O13   O     O_R   0.324760 0.674070 0.543580 -0.526151
O14   O     O_R   0.522400 0.640310 0.540110 -0.501463
O15   O     O_R   0.675940 0.500630 0.542210 -0.519466
O16   O     O_R   0.641790 0.337020 0.538150 -0.501621
O17   O     O_R   0.500260 0.324550 0.456580 -0.523917
O18   O     O_R   0.336660 0.522040 0.461020 -0.505511
O19   O     O_R   0.322940 0.675540 0.458880 -0.521182
O20   O     O_R   0.674120 0.502090 0.457500 -0.522012
O21   O     O_R   0.640110 0.338380 0.459630 -0.502997
O22   O     O_3   0.499990 0.499990 0.499990 -0.231934
O23   O     O_R   0.017640 0.822070 0.960410 -0.532332
O24   O     O_R   0.822000 0.989470 0.960340 -0.513934
O25   O     O_R   0.666920 0.007430 0.955290 -0.524143
O26   O     O_R   0.694410 0.812480 0.959650 -0.503897

loop_
_geom_bond_atom_site_label_1
_geom_bond_atom_site_label_2
_ccdc_geom_bond_type
C67   H28   S    
C36   H100  S    
C29   H84   S    
C55   C56   A    
C32   H92   S    
C126  C127  A    
Cr6   O11   S    
C1    C101  S    
C34   H102  S    
Cr5   O7    S    
C111  C112  A    
C76   C79   A    
C29   H85   S    
Cr1   O4    S    
C115  H29   S    
C33   H88   S    
C35   C47   A    
C128  C129  A    
C112  C114  A    
C114  C115  A    
C53   C59   A    
C1    O4    A    
C62   H50   S    
C43   O26   A    
C96   H16   S    
C77   C78   A    
C105  H26   S    
Cr1   O17   S    
C70   O16   A    
C31   H93   S    
C48   O10   A    
C53   H18   S    
C29   C30   S    
Cr6   O10   S    
C83   C84   A    
C129  C131  A    
C37   H97   S    
C41   C124  A    
C21   C22   S    
C36   C37   S    
C109  H22   S    
C117  C119  A    
C38   C39   S    
C19   H48   S    
Cr3   O20   S    
C50   N4    A    
C20   C102  A    
C2    C41   A    
C15   C16   A    
C121  H23   S    
C96   C100  A    
C13   H49   S    
C108  C109  A    
C22   H66   S    
C75   H94   S    
C26   H76   S    
C18   C19   A    
C90   C100  S    
C2    C13   A    
C130  H1    S    
C110  C111  A    
C38   H6    S    
C34   C80   S    
Cr4   O11   S    
C42   O25   A    
C84   H14   S    
C117  H30   S    
C5    C132  A    
C94   O12   A    
C55   H60   S    
C45   C125  S    
C16   C17   A    
C64   C65   A    
Cr5   O11   S    
C35   C49   A    
C27   H74   S    
C107  C108  A    
Cr5   O26   S    
C82   O19   A    
Cr4   O5    S    
C86   H19   S    
C126  H34   S    
C120  C123  A    
C43   C59   S    
C45   O6    A    
Cr4   O23   S    
C83   H10   S    
C88   C89   A    
C105  C107  A    
C36   H99   S    
C33   H90   S    
C66   C67   A    
C70   C79   S    
C88   C95   A    
C24   C113  A    
C93   C95   A    
C87   H11   S    
C129  H46   S    
C23   H65   S    
C26   H77   S    
C27   H75   S    
C25   H78   S    
Cr6   O3    S    
Cr1   O1    S    
C33   H89   S    
C28   H87   S    
C46   O8    A    
C104  C105  A    
C81   C83   A    
C24   C69   S    
C30   H81   S    
C54   C59   A    
C89   H12   S    
C8    H47   S    
C68   C78   S    
C7    C12   A    
C38   H7    S    
C57   O14   A    
C10   H36   S    
C74   C75   A    
Cr2   O14   S    
C2    H59   S    
C9    H27   S    
C51   N2    A    
Cr6   O2    S    
C76   C77   A    
C30   H82   S    
C44   C81   S    
Cr6   O9    S    
C11   C134  S    
C42   C60   S    
C104  H21   S    
Cr3   O21   S    
C86   C87   A    
C132  C133  A    
C47   C51   S    
C63   C73   S    
C25   C26   S    
C85   C86   A    
C66   C73   A    
C31   H95   S    
C74   H83   S    
Cr1   O22   S    
C50   C56   S    
C67   C68   A    
C13   C24   A    
C6    H44   S    
C60   C61   A    
C52   H51   S    
C51   N3    A    
C117  C122  A    
Cr3   O16   S    
C18   H58   S    
C62   C63   A    
C118  C130  A    
C61   H62   S    
Cr1   O18   S    
C133  C134  A    
C91   H55   S    
C125  C131  A    
C44   O3    A    
C90   C92   A    
C99   C100  A    
C38   C54   S    
C8    C12   A    
C96   C97   A    
C39   H5    S    
C17   C18   A    
C26   C27   S    
Cr4   O24   S    
C82   O18   A    
C81   C87   A    
Cr2   O12   S    
C84   C85   A    
C127  C128  A    
C70   O1    A    
C77   H17   S    
C121  C122  A    
C40   H104  S    
C28   C114  S    
C45   O7    A    
C44   O23   A    
C1    O13   A    
Cr3   O15   S    
C25   C97   S    
C98   H20   S    
C60   C65   A    
C9    C47   A    
C17   C102  S    
C108  H32   S    
C58   H52   S    
C125  C126  A    
C127  H41   S    
C113  H56   S    
C25   H79   S    
C91   C102  A    
C20   C58   A    
C3    C4    A    
C50   N1    A    
C110  C116  A    
C20   H53   S    
C6    C11   A    
Cr2   O19   S    
C120  C121  A    
C21   H68   S    
C37   H96   S    
C30   H80   S    
C46   C103  S    
C35   H40   S    
C71   H61   S    
C54   C55   A    
C28   C29   S    
C106  O17   A    
C21   C65   S    
Cr2   O13   S    
C22   C23   S    
C66   H39   S    
C14   C19   A    
C7    H45   S    
C31   C32   S    
C111  H24   S    
C72   C73   A    
C14   C48   S    
Cr3   O22   S    
C58   C69   A    
C15   C31   S    
C6    C7    A    
C119  C123  A    
C98   C101  A    
C94   O20   A    
C112  C122  S    
C28   H86   S    
C23   H64   S    
C103  C109  A    
C3    C134  A    
C88   H13   S    
C80   C91   A    
C52   C53   A    
Cr5   O8    S    
C48   O5    A    
C71   C72   A    
Cr4   O6    S    
C93   H71   S    
C32   C33   S    
C119  H31   S    
C12   C106  S    
C85   C95   S    
C43   O2    A    
C133  H37   S    
C37   H98   S    
C72   H72   S    
C113  C124  A    
C64   H2    S    
C76   H9    S    
C46   O9    A    
C68   C71   A    
C41   C82   S    
C124  H57   S    
C5    C128  S    
C131  H35   S    
C92   C93   A    
C110  H25   S    
C21   H69   S    
C22   H67   S    
C92   H15   S    
C34   C36   S    
C4    H43   S    
C42   O24   A    
C61   C62   A    
C3    H42   S    
C107  C116  S    
C32   H91   S    
C40   H103  S    
C16   H54   S    
C10   C11   A    
C63   C64   A    
C39   C40   S    
C49   C118  A    
C9    C130  A    
C120  H33   S    
C4    C5    A    
C39   H4    S    
C49   H8    S    
C106  O21   A    
C8    C10   A    
C98   C99   A    
C74   C78   A    
C40   H3    S    
C23   H63   S    
C103  C104  A    
C27   H73   S    
C14   C15   A    
Cr5   O25   S    
C69   C80   A    
Cr2   O22   S    
C115  C116  A    
C89   C90   A    
N1    N2    A    
C94   C123  S    
C75   C79   A    
C97   C101  A    
C52   C56   A    
N3    N4    A    
C132  H38   S    
C57   C118  S    
C34   H101  S    
C99   H70   S    
C57   O15   A    
