data_mof_unit_7573.cif
_audit_creation_date              2013-03-05T15:47:46-0500
_audit_creation_method            fapswitch 2.2
_symmetry_space_group_name_H-M    P1
_symmetry_Int_Tables_number       1
_space_group_crystal_system       triclinic
_cell_length_a                    10.756506
_cell_length_b                    13.014779
_cell_length_c                    11.840299
_cell_angle_alpha                 100.805419
_cell_angle_beta                  94.04005
_cell_angle_gamma                 94.105805
_cell_volume                      1618.03519555

loop_
_atom_site_label
_atom_site_type_symbol
_atom_site_description
_atom_site_fract_x
_atom_site_fract_y
_atom_site_fract_z
_atom_type_partial_charge
O1    O     O_R   0.506570 0.354460 0.582000 -0.620936
O2    O     O_R   0.493430 0.645540 0.418000 -0.610568
O3    O     O_R   0.490940 0.341410 0.386200 -0.499876
O4    O     O_R   0.509060 0.658590 0.613800 -0.603849
C1    C     C_R   0.501245 0.299055 0.477243 0.828045
C2    C     C_R   0.499573 0.700981 0.522778 0.822927
O5    O     O_R   0.327470 0.506520 0.597900 -0.588021
O6    O     O_R   0.672530 0.493480 0.402100 -0.580400
O7    O     O_R   0.311840 0.493460 0.402100 -0.557078
O8    O     O_R   0.688160 0.506540 0.597900 -0.619361
C3    C     C_R   0.263705 0.513630 0.501288 0.854283
C4    C     C_R   0.736480 0.487056 0.498972 0.772425
Cu1   Cu    Cu3+1 0.509250 0.507730 0.615930 0.959706
Cu2   Cu    Cu3+1 0.490750 0.492270 0.384070 0.997593
H1    H     H_    0.060657 0.486936 0.103887 0.151284
H2    H     H_    0.939614 0.510296 0.897021 0.191434
C5    C     C_R   0.132429 0.592856 0.712111 -0.094624
C6    C     C_R   0.869347 0.406158 0.290672 -0.114359
C7    C     C_R   0.079854 0.588353 0.815551 0.232160
C8    C     C_R   0.922555 0.408442 0.187323 0.262459
C9    C     C_R   0.971960 0.522290 0.815516 -0.075271
C10   C     C_R   0.027923 0.476805 0.185864 -0.244638
C11   C     C_R   0.908294 0.470017 0.710594 -0.029527
C12   C     C_R   0.090944 0.531521 0.289828 -0.011533
C13   C     C_R   0.948571 0.492655 0.605304 -0.021486
C14   C     C_R   0.051472 0.510152 0.396107 0.079778
C15   C     C_R   0.071249 0.538772 0.606331 0.038967
C16   C     C_R   0.929339 0.463172 0.395419 0.037632
C17   C     C_R   0.872070 0.470820 0.499551 -0.205263
C18   C     C_R   0.128417 0.531392 0.501691 -0.145280
H3    H     H_    0.219691 0.640311 0.714667 0.180476
H4    H     H_    0.783497 0.357096 0.289282 0.169709
C19   C     C_R   0.496748 0.815228 0.537444 -0.081160
C20   C     C_R   0.505632 0.184872 0.462620 -0.112141
C21   C     C_R   0.530422 0.012123 0.350492 -0.187213
C22   C     C_R   0.473079 0.988078 0.649641 -0.176265
C23   C     C_R   0.527613 0.119908 0.356666 0.177675
C24   C     C_R   0.474500 0.880226 0.643257 0.157739
C25   C     C_R   0.488920 0.139541 0.559671 -0.254026
C26   C     C_R   0.515212 0.860564 0.440641 -0.220502
C27   C     C_R   0.491685 0.032123 0.552706 0.122904
C28   C     C_R   0.512427 0.968025 0.447524 0.121480
H5    H     H_    0.531842 0.812308 0.358943 0.151237
H6    H     H_    0.473280 0.187648 0.641650 0.161681
H7    H     H_    0.547389 0.962648 0.269609 0.170684
H8    H     H_    0.455947 0.037591 0.730452 0.172556
N1    N     N_R   0.523180 0.519350 0.790130 -0.247751
N2    N     N_R   0.476820 0.480650 0.209870 -0.224131
C29   C     C_R   0.373535 0.406077 0.020096 -0.330472
C30   C     C_R   0.625278 0.596445 0.979337 -0.191386
C31   C     C_R   0.382794 0.414764 0.140263 0.166217
C32   C     C_R   0.614138 0.588528 0.858671 0.194554
C33   C     C_R   0.560935 0.538295 0.157198 0.124858
C34   C     C_R   0.441016 0.460317 0.842507 0.171090
C35   C     C_R   0.547954 0.533575 0.034395 0.013650
C36   C     C_R   0.453381 0.466355 0.965155 0.060784
H9    H     H_    0.301999 0.350180 0.969746 0.179004
H10   H     H_    0.693948 0.654516 0.030076 0.217724
I1    I     I_    0.172002 0.672106 0.971932 -0.309963
I2    I     I_    0.838652 0.313096 0.034193 -0.240411
C37   C     C_2   0.811640 0.382703 0.710620 0.470687
H11   H     H_    0.787257 0.323600 0.632915 0.050369
O9    O     O_2   0.755782 0.377446 0.795687 -0.528974
C38   C     C_2   0.187171 0.617415 0.283976 0.462465
H12   H     H_    0.233902 0.617081 0.205825 0.074754
O10   O     O_2   0.213341 0.690322 0.365492 -0.539879
I3    I     I_    0.435122 0.828011 0.798023 -0.303920
I4    I     I_    0.563894 0.172109 0.201201 -0.266974
C39   C     C_2   0.337098 0.391502 0.771943 0.396758
H13   H     H_    0.354153 0.329380 0.702679 0.098732
O11   O     O_2   0.228910 0.402498 0.792808 -0.578010
C40   C     C_2   0.667454 0.604358 0.227270 0.389394
H14   H     H_    0.654166 0.660426 0.303528 0.098589
O12   O     O_2   0.774007 0.596551 0.199645 -0.547141
C41   C     C_2   0.703151 0.658572 0.810548 0.404218
H15   H     H_    0.694638 0.666811 0.722236 0.139918
O13   O     O_2   0.790408 0.710762 0.871531 -0.541652
C42   C     C_2   0.281427 0.350696 0.181328 0.413083
H16   H     H_    0.193568 0.330433 0.128120 0.052446
O14   O     O_2   0.293742 0.312494 0.266887 -0.490091

loop_
_geom_bond_atom_site_label_1
_geom_bond_atom_site_label_2
_geom_bond_distance
_ccdc_geom_bond_type
C35   C36   1.399443 A    
H2    C9    1.082937 S    
C4    C17   1.488327 S    
C20   C23   1.420322 A    
C27   C28   1.404612 A    
C41   H15   1.069207 S    
C32   C41   1.489662 S    
C25   C27   1.387512 A    
O5    C3    1.313683 A    
O1    C1    1.307841 A    
C16   C17   1.406892 A    
C21   C23   1.393555 A    
C12   C14   1.425036 A    
C42   O14   1.212595 D    
C23   I4    2.129410 S    
C29   H9    1.081346 S    
C39   O11   1.219374 D    
O4    Cu1   1.968437 S    
C37   O9    1.218776 D    
C21   C28   1.396231 A    
H1    C10   1.083042 S    
C3    C18   1.489921 S    
C29   C31   1.401852 A    
C30   C32   1.408949 A    
C22   H8    1.084161 S    
C8    I2    2.099324 S    
C37   H11   1.085681 S    
C26   C28   1.388230 A    
C12   C38   1.483005 S    
Cu1   Cu2   2.706821 S    
C15   C18   1.411947 A    
C22   C27   1.395927 A    
O2    C2    1.307695 A    
C33   C35   1.440182 A    
C13   C17   1.419039 A    
N2    C33   1.388589 A    
C34   C36   1.435695 A    
N2    C31   1.389542 A    
C19   C26   1.403639 A    
C20   C25   1.403206 A    
C5    C15   1.408609 A    
C6    C16   1.406697 A    
O4    C2    1.300695 A    
Cu1   N1    2.033670 S    
C42   H16   1.085221 S    
Cu2   N2    2.033670 S    
C7    I1    2.104505 S    
C30   H10   1.079354 S    
O7    Cu2   1.951980 S    
O7    C3    1.306066 A    
O5    Cu1   1.950537 S    
O6    C4    1.314830 A    
C1    C20   1.468106 S    
C26   H5    1.083899 S    
C41   O13   1.221879 D    
C25   H6    1.082908 S    
O3    Cu2   1.968440 S    
O8    C4    1.303751 A    
N1    C34   1.383702 A    
C40   O12   1.219827 D    
C8    C10   1.393058 A    
C14   C18   1.419918 A    
C9    C11   1.404164 A    
C5    H3    1.081381 S    
C10   C12   1.402330 A    
O1    Cu1   1.957298 S    
C21   H7    1.084125 S    
O6    Cu2   1.950539 S    
C7    C9    1.393945 A    
C19   C24   1.419989 A    
C40   H14   1.074355 S    
O3    C1    1.301109 A    
O8    Cu1   1.951980 S    
N1    C32   1.383642 A    
C13   C15   1.408297 A    
C29   C36   1.396383 A    
C14   C16   1.407619 A    
C30   C35   1.401865 A    
C2    C19   1.467091 S    
C38   H12   1.083177 S    
C22   C24   1.392717 A    
C31   C42   1.488990 S    
C34   C39   1.481258 S    
C5    C7    1.393927 A    
C6    C8    1.391308 A    
C11   C13   1.422748 A    
C39   H13   1.074124 S    
O2    Cu2   1.957296 S    
C11   C37   1.484332 S    
C6    H4    1.081770 S    
C24   I3    2.129388 S    
C33   C40   1.482535 S    
C38   O10   1.221161 D    
