data_mof_unit_56127.cif
_audit_creation_date              2012-12-10T17:13:37-0500
_audit_creation_method            fapswitch 2.2
_symmetry_space_group_name_H-M    P1
_symmetry_Int_Tables_number       1
_space_group_crystal_system       triclinic
_cell_length_a                    11.091303
_cell_length_b                    13.134399
_cell_length_c                    11.883963
_cell_angle_alpha                 98.505346
_cell_angle_beta                  92.075691
_cell_angle_gamma                 95.34149
_cell_volume                      1702.55417157

loop_
_atom_site_label
_atom_site_type_symbol
_atom_type_description
_atom_site_fract_x
_atom_site_fract_y
_atom_site_fract_z
_atom_type_partial_charge
C1    C     C_R   0.507882 0.300297 0.479174 0.774701
C2    C     C_3   0.877674 0.488909 0.497503 -0.054886
C3    C     C_3   0.939990 0.598593 0.468156 0.254436
C4    C     C_3   0.913306 0.395719 0.402856 0.264230
C5    C     C_R   0.475631 0.812251 0.530770 -0.149512
C6    C     C_R   0.523438 0.187438 0.467888 -0.183354
C7    C     C_R   0.557217 0.020341 0.358137 0.173559
C8    C     C_R   0.555443 0.128064 0.364511 0.125167
C9    C     C_R   0.510078 0.136020 0.564010 0.081175
C10   C     C_R   0.482884 0.028486 0.549332 0.039903
C11   C     C_R   0.505971 0.969573 0.445078 -0.029831
C12   C     C_R   0.260079 0.495698 0.502166 0.813203
C13   C     C_R   0.479685 0.861395 0.432043 0.076262
C14   C     C_R   0.448782 0.871968 0.635791 0.107379
C15   C     C_R   0.436700 0.978351 0.638593 0.218957
C16   C     C_R   0.433517 0.372802 0.026120 0.097842
C17   C     C_R   0.419024 0.392902 0.144477 0.317583
C18   C     C_R   0.541347 0.552976 0.155144 0.306737
C19   C     C_R   0.534555 0.545317 0.033049 -0.060495
C20   C     C_R   0.477516 0.454508 0.968434 -0.069788
C21   C     C_R   0.461215 0.448880 0.847906 0.270182
C22   C     C_R   0.595403 0.601098 0.853072 0.300143
C23   C     C_R   0.493060 0.699804 0.520618 0.809103
C24   C     C_R   0.589422 0.621744 0.972470 0.077069
C25   C     C_R   0.738928 0.493637 0.498163 0.795018
C26   C     C_3   0.071361 0.462419 0.628467 0.320572
C27   C     C_3   0.926739 0.471089 0.624528 0.294949
C28   C     C_3   0.083499 0.606708 0.494419 0.281211
C29   C     C_3   0.060291 0.405577 0.400038 0.320314
C30   C     C_3   0.121331 0.491992 0.507041 -0.068472
Cu1   Cu    Cu3+1 0.509350 0.507730 0.615930 0.900682
Cu2   Cu    Cu3+1 0.490650 0.492270 0.384070 0.913678
N1    N     N_R   0.523430 0.519360 0.790130 -0.228468
N2    N     N_R   0.476570 0.480640 0.209880 -0.207920
O1    O     O_R   0.506640 0.354460 0.582000 -0.604357
O2    O     O_R   0.490840 0.341410 0.386200 -0.596566
O3    O     O_R   0.325590 0.506510 0.597900 -0.617944
O4    O     O_R   0.309790 0.493450 0.402100 -0.555315
O5    O     O_R   0.509160 0.658590 0.613800 -0.604036
O6    O     O_R   0.493360 0.645540 0.418000 -0.568783
O7    O     O_R   0.690210 0.506550 0.597900 -0.569839
O8    O     O_R   0.674410 0.493490 0.402100 -0.623401
C31   C     C_3   0.131129 0.527319 0.744767 -0.808022
H1    H     H_    0.228437 0.522429 0.759264 0.256988
H2    H     H_    0.118908 0.609637 0.766566 0.226998
H3    H     H_    0.090442 0.495843 0.818178 0.193644
N3    N     N_3   0.861428 0.403816 0.287851 -0.589199
H4    H     H_    0.894183 0.348493 0.227080 0.210123
H5    H     H_    0.768328 0.383429 0.279017 0.251631
C32   C     C_3   0.157164 0.662604 0.406366 -0.818772
H6    H     H_    0.253256 0.677158 0.436598 0.216070
H7    H     H_    0.156022 0.624855 0.317780 0.252994
H8    H     H_    0.126859 0.740480 0.403383 0.200025
N4    N     N_3   0.918024 0.607138 0.347030 -0.610963
H9    H     H_    0.828059 0.587526 0.323089 0.249059
H10   H     H_    0.935450 0.683542 0.332347 0.210000
N5    N     N_3   0.444448 0.803592 0.321051 -0.574985
H11   H     H_    0.361469 0.761201 0.326344 0.227614
H12   H     H_    0.422530 0.853101 0.263996 0.220238
C33   C     C_3   0.431030 0.824434 0.743680 -0.821835
H13   H     H_    0.405636 0.878260 0.817607 0.221547
H14   H     H_    0.360590 0.758135 0.729863 0.234613
H15   H     H_    0.517362 0.799329 0.771445 0.235556
C34   C     C_3   0.627824 0.964398 0.265088 -0.818404
H16   H     H_    0.716138 0.009753 0.257909 0.241669
H17   H     H_    0.651295 0.888545 0.284478 0.240652
H18   H     H_    0.575882 0.954331 0.181898 0.225131
C35   C     C_3   0.364539 0.035019 0.729801 -0.854135
H19   H     H_    0.282741 0.984832 0.746008 0.222835
H20   H     H_    0.421426 0.058487 0.809847 0.247490
H21   H     H_    0.328416 0.103762 0.702073 0.234130
N6    N     N_3   0.600742 0.173337 0.269147 -0.608544
H22   H     H_    0.536333 0.156095 0.201232 0.217229
H23   H     H_    0.625352 0.252257 0.286121 0.246430
N7    N     N_3   0.546541 0.187428 0.676552 -0.587682
H24   H     H_    0.629821 0.231336 0.675122 0.234047
H25   H     H_    0.480671 0.234179 0.705435 0.270827
N8    N     N_3   0.371615 0.372482 0.789764 -0.627695
H26   H     H_    0.290021 0.383210 0.828711 0.203012
H27   H     H_    0.358756 0.383676 0.706839 0.283287
C36   C     C_3   0.104034 0.351019 0.645455 -0.834707
H28   H     H_    0.036970 0.287121 0.611880 0.231985
H29   H     H_    0.191536 0.333506 0.610395 0.219126
H30   H     H_    0.109214 0.338952 0.735888 0.214952
N9    N     N_3   0.687045 0.663011 0.803038 -0.584063
H31   H     H_    0.681074 0.651913 0.715728 0.302883
H32   H     H_    0.679749 0.741595 0.827082 0.177621
C37   C     C_3   0.414472 0.261684 0.966130 -0.850228
H33   H     H_    0.438387 0.206506 0.023412 0.216368
H34   H     H_    0.318829 0.241130 0.933856 0.242185
H35   H     H_    0.477285 0.249462 0.896406 0.259120
N10   N     N_3   0.636652 0.722308 0.029790 -0.624293
H36   H     H_    0.729347 0.734693 0.017107 0.234449
H37   H     H_    0.590701 0.778580 0.997465 0.216042
C38   C     C_3   0.335658 0.316274 0.193921 -0.789203
H38   H     H_    0.251748 0.294750 0.138445 0.191250
H39   H     H_    0.378192 0.245104 0.202577 0.211604
H40   H     H_    0.307846 0.348343 0.276543 0.290871
C39   C     C_3   0.630397 0.635091 0.221288 -0.731856
H41   H     H_    0.648096 0.626189 0.308663 0.257990
H42   H     H_    0.719473 0.633698 0.181834 0.195953
H43   H     H_    0.597856 0.711700 0.223114 0.264431
N11   N     N_3   0.865148 0.375570 0.657489 -0.620962
H44   H     H_    0.771744 0.375127 0.660909 0.254717
H45   H     H_    0.894707 0.367765 0.740130 0.217197
N12   N     N_3   0.893141 0.557154 0.709419 -0.548420
H46   H     H_    0.941353 0.628250 0.707508 0.271966
H47   H     H_    0.899243 0.540584 0.792709 0.223742
N13   N     N_3   0.115713 0.676776 0.601906 -0.617858
H48   H     H_    0.103621 0.753877 0.596109 0.229990
H49   H     H_    0.208161 0.677137 0.621556 0.221814
N14   N     N_3   0.886155 0.686002 0.535112 -0.602414
H50   H     H_    0.794444 0.684759 0.510913 0.202584
H51   H     H_    0.924904 0.756217 0.514798 0.209583
N15   N     N_3   0.100051 0.440350 0.292210 -0.559796
H52   H     H_    0.046482 0.491591 0.261847 0.261349
H53   H     H_    0.095760 0.380487 0.223383 0.204472
C40   C     C_3   0.111511 0.296388 0.394764 -0.857448
H54   H     H_    0.098179 0.250773 0.308076 0.217138
H55   H     H_    0.209539 0.303429 0.418140 0.212109
H56   H     H_    0.069887 0.241003 0.445167 0.222983
C41   C     C_3   0.853576 0.287936 0.425178 -0.852275
H57   H     H_    0.756734 0.292555 0.441467 0.217930
H58   H     H_    0.858664 0.228045 0.349383 0.237675
H59   H     H_    0.890550 0.255027 0.496233 0.246759

loop_
_geom_bond_atom_site_label_1
_geom_bond_atom_site_label_2
_ccdc_geom_bond_type
C38   H38   S    
C19   C20   A    
C31   H1    S    
C6    C9    A    
N14   H51   S    
C36   H28   S    
C38   H40   S    
C7    C8    A    
N3    H5    S    
N9    H31   S    
C7    C11   A    
C26   C27   S    
C33   H15   S    
Cu2   O2    S    
C3    C28   S    
C10   C15   A    
N13   H49   S    
C3    N4    S    
N8    H27   S    
N5    H12   S    
C13   N5    S    
N12   H46   S    
C23   O6    A    
C33   H14   S    
C18   C19   A    
C22   N9    S    
C12   O3    A    
N7    H25   S    
C40   H54   S    
C28   C32   S    
N3    H4    S    
C35   H19   S    
N15   H53   S    
C21   N8    S    
C32   H7    S    
Cu1   N1    S    
C2    C27   S    
C17   C38   S    
Cu2   O4    S    
C9    C10   A    
C5    C13   A    
C4    C29   S    
C29   N15   S    
C24   N10   S    
N14   H50   S    
C36   H29   S    
C26   C31   S    
N9    H32   S    
N4    H10   S    
C8    N6    S    
C32   H8    S    
C1    C6    S    
C34   H18   S    
N6    H23   S    
C25   O7    A    
N8    H26   S    
C16   C17   A    
C6    C8    A    
C27   N12   S    
Cu1   O3    S    
C33   H13   S    
C40   H56   S    
Cu2   N2    S    
C2    C4    S    
N7    H24   S    
C29   C30   S    
C31   H2    S    
C39   H41   S    
C5    C23   S    
C37   H35   S    
C3    N14   S    
C16   C20   A    
N10   H37   S    
C32   H6    S    
C4    C41   S    
N11   H45   S    
C37   H33   S    
C18   N2    A    
C5    C14   A    
C39   H42   S    
C37   H34   S    
C26   C30   S    
C26   C36   S    
C22   C24   A    
C18   C39   S    
C41   H58   S    
C36   H30   S    
C1    O1    A    
C22   N1    A    
N4    H9    S    
Cu1   O7    S    
C12   C30   S    
Cu1   Cu2   S    
N6    H22   S    
C25   O8    A    
C38   H39   S    
C28   N13   S    
C14   C33   S    
C29   C40   S    
C34   H16   S    
C41   H59   S    
C28   C30   S    
C19   C24   A    
N13   H48   S    
C11   C13   A    
N5    H11   S    
N12   H47   S    
C35   H21   S    
C23   O5    A    
C15   C35   S    
C27   N11   S    
N10   H36   S    
Cu1   O5    S    
C2    C3    S    
C2    C25   S    
Cu1   O1    S    
Cu2   O6    S    
C12   O4    A    
C31   H3    S    
C40   H55   S    
C7    C34   S    
C10   C11   A    
C39   H43   S    
C21   N1    A    
C20   C21   A    
C35   H20   S    
C17   N2    A    
N11   H44   S    
C16   C37   S    
Cu2   O8    S    
C14   C15   A    
C9    N7    S    
C41   H57   S    
N15   H52   S    
C1    O2    A    
C34   H17   S    
C4    N3    S    
