data_mof_unit_15770.cif
_audit_creation_date              2012-12-10T18:21:27-0500
_audit_creation_method            fapswitch 2.2
_symmetry_space_group_name_H-M    P1
_symmetry_Int_Tables_number       1
_space_group_crystal_system       triclinic
_cell_length_a                    14.906356
_cell_length_b                    14.163402
_cell_length_c                    10.629694
_cell_angle_alpha                 90.044721
_cell_angle_beta                  87.643786
_cell_angle_gamma                 90.85543
_cell_volume                      2242.04377691

loop_
_atom_site_label
_atom_site_type_symbol
_atom_type_description
_atom_site_fract_x
_atom_site_fract_y
_atom_site_fract_z
_atom_type_partial_charge
C1    C     C_R   0.327064 0.499685 0.499814 0.875206
C2    C     C_R   0.039542 0.398205 0.685029 -0.223636
C3    C     C_R   0.089830 0.450817 0.594977 0.139994
C4    C     C_R   0.500134 0.499804 0.257812 0.826543
C5    C     C_R   0.046624 0.505657 0.505290 0.055248
C6    C     C_R   0.096877 0.559885 0.415138 0.123863
C7    C     C_R   0.053546 0.615573 0.328160 -0.226542
C8    C     C_R   0.960225 0.616800 0.329328 -0.221189
C9    C     C_R   0.182732 0.449539 0.592396 -0.308013
C10   C     C_R   0.231554 0.500270 0.500220 -0.049618
C11   C     C_R   0.189747 0.556682 0.413297 -0.260583
C12   C     C_3   0.499013 0.396173 0.928720 -0.398109
C13   C     C_R   0.554302 0.799181 0.414646 -0.103286
C14   C     C_R   0.553968 0.202333 0.414211 -0.100979
C15   C     C_R   0.446526 0.798592 0.586961 0.181447
C16   C     C_R   0.447571 0.199509 0.587809 0.184878
C17   C     C_R   0.453761 0.898681 0.595683 0.017156
C18   C     C_R   0.455311 0.099639 0.596809 0.011263
C19   C     C_R   0.672969 0.500705 0.499747 0.888074
C20   C     C_R   0.506337 0.949462 0.505038 0.064555
C21   C     C_R   0.506689 0.050439 0.505231 0.062828
C22   C     C_R   0.556786 0.899626 0.413076 0.015584
C23   C     C_R   0.817031 0.560717 0.416941 -0.268597
C24   C     C_R   0.556743 0.101864 0.412918 0.014645
C25   C     C_R   0.409370 0.949652 0.692699 -0.234329
C26   C     C_R   0.411060 0.047281 0.694025 -0.222647
C27   C     C_R   0.608337 0.051397 0.322208 -0.198437
C28   C     C_R   0.608482 0.951595 0.322421 -0.199752
C29   C     C_R   0.499690 0.499845 0.742242 0.812587
C30   C     C_3   0.584709 0.552161 0.067300 -0.414975
C31   C     C_3   0.414569 0.548475 0.077463 -0.395470
C32   C     C_3   0.585054 0.551271 0.922838 -0.388397
C33   C     C_3   0.415004 0.549619 0.932992 -0.417776
C34   C     C_R   0.768409 0.502684 0.501765 -0.058372
C35   C     C_3   0.500565 0.396073 0.071382 -0.390261
C36   C     C_3   0.499984 0.499175 0.121373 0.188589
C37   C     C_3   0.499708 0.499280 0.878785 0.196362
C38   C     C_3   0.374981 0.747857 0.669208 -0.395057
C39   C     C_3   0.279986 0.767084 0.625037 -0.358228
C40   C     C_3   0.208737 0.716089 0.708167 -0.875303
C41   C     C_3   0.376927 0.247112 0.672271 -0.395432
C42   C     C_3   0.280784 0.216323 0.639510 -0.357920
C43   C     C_3   0.216858 0.217490 0.755536 -0.926938
C44   C     C_R   0.810354 0.447506 0.589754 -0.265099
C45   C     C_R   0.903084 0.449770 0.593568 0.124446
C46   C     C_R   0.953246 0.505976 0.505484 0.053264
C47   C     C_R   0.909976 0.561786 0.416865 0.126130
C48   C     C_R   0.946353 0.396866 0.683509 -0.224626
H1    H     H_    0.646466 0.517954 0.099628 0.153269
H2    H     H_    0.371493 0.915941 0.769189 0.154266
H3    H     H_    0.374905 0.080181 0.771832 0.164417
H4    H     H_    0.648167 0.089053 0.250420 0.137162
H5    H     H_    0.648471 0.915082 0.250829 0.136228
H6    H     H_    0.585756 0.626580 0.101114 0.175060
H7    H     H_    0.411831 0.622313 0.113275 0.177223
H8    H     H_    0.587633 0.625259 0.887414 0.181379
H9    H     H_    0.414259 0.624059 0.899890 0.171843
H10   H     H_    0.646293 0.515344 0.884657 0.155154
H11   H     H_    0.353182 0.513797 0.900225 0.151287
H12   H     H_    0.353338 0.510513 0.115363 0.154951
H13   H     H_    0.561785 0.359256 0.100956 0.170763
H14   H     H_    0.440923 0.355789 0.110256 0.179972
H15   H     H_    0.558303 0.357331 0.889513 0.179360
H16   H     H_    0.437376 0.358203 0.899740 0.165319
H17   H     H_    0.782383 0.603006 0.349594 0.137030
H18   H     H_    0.770576 0.404236 0.655990 0.142193
H19   H     H_    0.908176 0.354571 0.752363 0.145756
H20   H     H_    0.220826 0.638939 0.708762 0.265596
H21   H     H_    0.209953 0.743281 0.806129 0.252728
H22   H     H_    0.141255 0.728261 0.671271 0.258497
H23   H     H_    0.072109 0.357506 0.755648 0.151807
H24   H     H_    0.265857 0.843784 0.626943 0.222565
H25   H     H_    0.274423 0.742285 0.526386 0.242237
H26   H     H_    0.382528 0.672259 0.669876 0.267363
H27   H     H_    0.381463 0.766699 0.769693 0.154913
H28   H     H_    0.234710 0.161326 0.822453 0.260326
H29   H     H_    0.220278 0.286592 0.804501 0.251843
H30   H     H_    0.147086 0.203973 0.726741 0.258917
H31   H     H_    0.255882 0.264156 0.566430 0.237396
H32   H     H_    0.278504 0.144235 0.598592 0.231556
H33   H     H_    0.390564 0.231747 0.771950 0.167994
H34   H     H_    0.217456 0.411143 0.663025 0.149107
H35   H     H_    0.379511 0.323568 0.667851 0.250932
H36   H     H_    0.229688 0.597255 0.344222 0.136251
H37   H     H_    0.091772 0.657663 0.259136 0.144478
H38   H     H_    0.927386 0.659856 0.261209 0.144818
H39   H     H_    0.594779 0.760124 0.346233 0.135078
H40   H     H_    0.594007 0.242534 0.345268 0.138835
N1    N     N_R   0.500070 0.750030 0.500050 -0.117091
N2    N     N_R   0.500070 0.249970 0.500050 -0.116579
O1    O     O_R   0.367860 0.580280 0.500020 -0.632806
O2    O     O_R   0.367860 0.419720 0.500020 -0.634211
O3    O     O_R   0.500000 0.580270 0.314790 -0.629603
O4    O     O_R   0.500000 0.419730 0.314790 -0.627625
O5    O     O_R   0.632160 0.580270 0.499960 -0.612761
O6    O     O_R   0.632160 0.419730 0.499960 -0.614721
O7    O     O_R   0.500030 0.580270 0.685200 -0.647405
O8    O     O_R   0.500030 0.419730 0.685200 -0.649904
Zn1   Zn    Zn3+2 0.500020 0.607200 0.499990 0.921594
Zn2   Zn    Zn3+2 0.500020 0.392800 0.499990 0.922149

loop_
_geom_bond_atom_site_label_1
_geom_bond_atom_site_label_2
_ccdc_geom_bond_type
C4    C36   S    
C16   N2    A    
C18   C21   A    
C41   C42   S    
C44   H18   S    
C35   C36   S    
C18   C26   A    
C24   C27   A    
C32   H10   S    
C7    C8    A    
C7    H37   S    
C45   C46   A    
C27   H4    S    
C43   H30   S    
C42   H32   S    
C30   H6    S    
C40   H22   S    
C29   O8    A    
N1    Zn1   S    
C38   C39   S    
C12   H16   S    
O5    Zn1   S    
C41   H35   S    
C17   C20   A    
C14   C24   A    
C12   C37   S    
C25   H2    S    
C14   N2    A    
C39   H24   S    
C31   C33   S    
C9    C10   A    
O3    Zn1   S    
C9    H34   S    
C42   H31   S    
C33   H11   S    
C22   C28   A    
N2    Zn2   S    
O7    Zn1   S    
C38   H27   S    
C23   C47   A    
C40   H21   S    
C34   C44   A    
C6    C11   A    
C12   H15   S    
C2    C48   A    
C25   C26   A    
C33   C37   S    
C31   H12   S    
C15   C38   S    
C3    C9    A    
C15   N1    A    
O4    Zn2   S    
C23   C34   A    
C41   H33   S    
C13   H39   S    
C35   H13   S    
C32   C37   S    
C12   C35   S    
C4    O4    A    
C30   H1    S    
C20   C22   A    
C1    O2    A    
O8    Zn2   S    
C40   H20   S    
C42   C43   S    
C2    H23   S    
C39   C40   S    
C19   O5    A    
C44   C45   A    
O2    Zn2   S    
C38   H26   S    
C45   C48   A    
C43   H28   S    
C15   C17   A    
C46   C47   A    
C33   H9    S    
C13   N1    A    
C1    C10   S    
C3    C5    A    
C19   C34   S    
C28   H5    S    
C6    C7    A    
C29   O7    A    
C11   H36   S    
C43   H29   S    
C5    C46   A    
C30   C36   S    
C17   C25   A    
C23   H17   S    
C2    C3    A    
C8    C47   A    
C14   H40   S    
O1    Zn1   S    
C26   H3    S    
C30   C32   S    
C5    C6    A    
O6    Zn2   S    
C13   C22   A    
C35   H14   S    
C8    H38   S    
C39   H25   S    
C48   H19   S    
C10   C11   A    
C4    O3    A    
C20   C21   A    
C16   C18   A    
C1    O1    A    
C21   C24   A    
C29   C37   S    
C27   C28   A    
C31   C36   S    
C31   H7    S    
C16   C41   S    
C32   H8    S    
C19   O6    A    
