data_mof_unit_11306.cif
_audit_creation_date              2012-12-11T15:23:41-0500
_audit_creation_method            fapswitch 2.2
_symmetry_space_group_name_H-M    P1
_symmetry_Int_Tables_number       1
_space_group_crystal_system       triclinic
_cell_length_a                    6.98897
_cell_length_b                    17.544891
_cell_length_c                    19.839984
_cell_angle_alpha                 109.838779
_cell_angle_beta                  90.066706
_cell_angle_gamma                 90.274993
_cell_volume                      2288.37348124

loop_
_atom_site_label
_atom_site_type_symbol
_atom_type_description
_atom_site_fract_x
_atom_site_fract_y
_atom_site_fract_z
_atom_type_partial_charge
O1    O     O_R   0.505810 0.439670 0.562310 -0.532238
O2    O     O_R   0.169070 0.404920 0.411210 -0.536497
O3    O     O_R   0.005550 0.560330 0.437690 -0.522146
C1    C     C_R   0.336885 0.381118 0.383708 0.748170
O4    O     O_R   0.175650 0.430000 0.560110 -0.527830
O5    O     O_R   0.012170 0.585580 0.587650 -0.538060
C2    C     C_R   0.343240 0.418733 0.583902 0.906330
O6    O     O_R   0.499180 0.414420 0.412350 -0.539377
O7    O     O_3   0.341430 0.551020 0.508860 -0.380821
V1    V     V_3+5 0.063930 0.490540 0.498360 1.592364
O8    O     O_R   0.682850 0.595080 0.588790 -0.527179
C3    C     C_R   0.852530 0.619749 0.614817 0.790423
O9    O     O_R   0.676280 0.570000 0.439890 -0.545710
C4    C     C_R   0.846081 0.590039 0.423147 0.764157
V2    V     V_3+5 0.564760 0.509460 0.501640 1.593637
O10   O     O_3   0.837130 0.448980 0.491140 -0.377146
C5    C     C_R   0.920307 0.900861 0.206748 -0.281908
C6    C     C_R   0.914014 0.863993 0.131966 -0.090493
C7    C     C_R   0.892969 0.779015 0.104664 0.361826
C8    C     C_R   0.879000 0.729305 0.150618 -0.051203
C9    C     C_R   0.886872 0.769333 0.225921 -0.023555
C10   C     C_R   0.906624 0.855353 0.253655 0.120112
C11   C     C_R   0.863309 0.642169 0.126244 0.251171
C12   C     C_R   0.869816 0.597286 0.172977 0.257482
C13   C     C_R   0.875402 0.636364 0.247786 -0.060611
C14   C     C_R   0.878482 0.723487 0.273946 -0.022316
C15   C     C_R   0.883052 0.765088 0.348806 0.120078
C16   C     C_R   0.903131 0.850383 0.375322 -0.103030
C17   C     C_R   0.915737 0.894868 0.328446 -0.121107
C18   C     C_R   0.881479 0.592844 0.298344 0.334597
C19   C     C_R   0.858435 0.635652 0.371453 -0.104678
C20   C     C_R   0.867091 0.720859 0.396321 -0.259084
H1    H     H_    0.936104 0.966156 0.228925 0.127676
H2    H     H_    0.865434 0.753036 0.453614 0.140458
H3    H     H_    0.910268 0.882651 0.432636 0.172971
H4    H     H_    0.932389 0.960369 0.350674 0.164085
C21   C     C_3   0.750013 0.806565 0.753253 0.389215
C22   C     C_3   0.904412 0.781513 0.693436 -0.260247
H5    H     H_    0.923731 0.807057 0.649650 0.209456
C23   C     C_3   0.866595 0.690584 0.683482 -0.293184
C24   C     C_3   0.714380 0.714406 0.742482 0.419289
C25   C     C_3   0.875980 0.720159 0.796710 0.084396
C26   C     C_3   0.025074 0.695811 0.738907 -0.116527
C27   C     C_3   0.054701 0.785896 0.750931 0.468963
C28   C     C_3   0.904731 0.811408 0.809698 -0.284408
H6    H     H_    0.138749 0.650953 0.731965 0.268621
C29   C     C_3   0.520513 0.253898 0.290218 -0.131421
C30   C     C_3   0.386400 0.178953 0.261854 -0.105429
H7    H     H_    0.404244 0.120589 0.271538 0.138377
H8    H     H_    0.648918 0.255493 0.322982 0.144000
C31   C     C_3   0.389675 0.189314 0.187350 -0.077162
C32   C     C_3   0.518710 0.264128 0.215566 -0.151969
C33   C     C_3   0.342194 0.320525 0.238465 -0.134418
C34   C     C_3   0.207510 0.244980 0.209389 -0.142423
C35   C     C_3   0.213790 0.236832 0.284713 0.269604
C36   C     C_3   0.346389 0.310659 0.313065 -0.034819
H9    H     H_    0.644671 0.275869 0.186636 0.138238
H10   H     H_    0.323214 0.379202 0.229475 0.171628
H11   H     H_    0.075236 0.243529 0.178091 0.125080
C37   C     C_R   0.389409 0.095273 0.790408 0.426780
C38   C     C_R   0.415181 0.132477 0.865824 -0.204531
C39   C     C_R   0.402591 0.218600 0.895858 0.154764
C40   C     C_R   0.396170 0.265178 0.848813 0.072725
C41   C     C_R   0.395641 0.227860 0.772558 -0.060127
C42   C     C_R   0.388848 0.141347 0.742437 -0.132489
C43   C     C_R   0.372333 0.348544 0.876434 -0.151772
C44   C     C_R   0.343895 0.394536 0.832240 0.240408
C45   C     C_R   0.347264 0.361487 0.756070 0.038635
C46   C     C_R   0.378287 0.276083 0.726097 -0.096019
C47   C     C_R   0.391601 0.238053 0.649754 -0.111824
C48   C     C_R   0.410723 0.152158 0.621158 0.382479
C49   C     C_R   0.386550 0.105143 0.665983 0.377214
C50   C     C_R   0.326275 0.408318 0.707979 0.287871
C51   C     C_R   0.351348 0.370851 0.634074 -0.210678
C52   C     C_R   0.380076 0.287435 0.604926 0.345278
H12   H     H_    0.376107 0.381878 0.933399 0.126337
O11   O     O_R   0.271890 0.085690 0.087580 -0.554253
O12   O     O_R   0.595690 0.070020 0.939870 -0.542579
O13   O     O_R   0.758900 0.914390 0.912370 -0.518417
C53   C     C_R   0.426478 0.081969 0.915334 0.813823
O14   O     O_R   0.602020 0.095100 0.088770 -0.554630
O15   O     O_R   0.765280 0.939660 0.062330 -0.537044
C54   C     C_R   0.428916 0.119240 0.116485 0.641775
O16   O     O_R   0.265520 0.060430 0.937620 -0.524797
O17   O     O_3   0.429560 0.949050 0.991100 -0.353154
V3    V     V_3+5 0.707160 0.009450 0.001650 1.537535
O18   O     O_R   0.094540 0.929890 0.060190 -0.536386
C55   C     C_R   0.925845 0.915829 0.083018 0.763827
O19   O     O_R   0.088200 0.904800 0.911290 -0.501677
C56   C     C_R   0.918479 0.881400 0.882560 0.844914
V4    V     V_3+5 0.206300 0.990390 0.998440 1.602243
O20   O     O_3   0.934030 0.050940 0.008900 -0.395850
Cl1   Cl    Cl    0.646954 0.896061 0.748518 -0.449287
Cl2   Cl    Cl    0.510466 0.658722 0.749182 -0.538167
N1    N     N_3   0.914583 0.691671 0.854989 -0.566883
H13   H     H_    0.924485 0.630636 0.849169 0.317041
H14   H     H_    0.877835 0.741691 0.898769 0.308462
Cl3   Cl    Cl    0.277949 0.827907 0.765416 -0.453345
Cl4   Cl    Cl    0.890238 0.748835 0.014008 -0.742995
N2    N     N_3   0.053842 0.218887 0.325115 -0.639834
H15   H     H_    0.945583 0.187565 0.290345 0.220231
H16   H     H_    0.008556 0.269005 0.368543 0.262348
Cl5   Cl    Cl    0.279871 0.000059 0.764716 -0.441913
N3    N     N_3   0.359522 0.255931 0.973068 -0.679978
H17   H     H_    0.411628 0.222967 0.004692 0.219367
H18   H     H_    0.312550 0.318523 0.999701 0.237579
N4    N     N_3   0.337851 0.478529 0.867753 -0.640130
H19   H     H_    0.263452 0.508754 0.838600 0.325941
H20   H     H_    0.347152 0.503834 0.923307 0.257268
Cl6   Cl    Cl    0.229049 0.507209 0.725245 -0.670264
Cl7   Cl    Cl    0.385384 0.250484 0.509410 -0.576824
Cl8   Cl    Cl    0.451080 0.097600 0.527567 -0.448298
Cl9   Cl    Cl    0.395850 0.998293 0.622416 -0.411024
N5    N     N_3   0.858600 0.595147 0.051717 -0.658388
H21   H     H_    0.867967 0.625598 0.018827 0.322403
H22   H     H_    0.850234 0.533802 0.023141 0.239593
N6    N     N_3   0.890251 0.510604 0.140373 -0.659488
H23   H     H_    0.906400 0.475731 0.169012 0.310126
H24   H     H_    0.837061 0.474219 0.088567 0.225598
Cl10  Cl    Cl    0.950658 0.489810 0.284167 -0.734933

loop_
_geom_bond_atom_site_label_1
_geom_bond_atom_site_label_2
_ccdc_geom_bond_type
C30   C35   S    
C35   C36   S    
C23   C24   S    
C10   C17   A    
O18   V4    S    
N1    H13   S    
C50   C51   A    
C7    C8    A    
C4    C19   S    
C1    O6    A    
N3    H18   S    
N5    H21   S    
O17   V4    S    
C50   Cl6   S    
O17   V3    S    
C32   C33   S    
C17   H4    S    
C12   N6    S    
C21   C22   S    
C16   C17   A    
N6    H24   S    
O5    C3    A    
C22   H5    S    
O12   C53   A    
O11   C54   A    
C38   C53   S    
V2    O10   S    
C6    C7    A    
C24   C25   S    
O13   C56   A    
O8    V2    S    
C30   C31   S    
C19   C20   A    
C16   H3    S    
C45   C46   A    
C35   N2    S    
C11   C12   A    
C47   C48   A    
O1    V2    S    
O16   V4    S    
O19   V4    S    
C37   Cl5   S    
O7    V1    S    
O14   V3    S    
C53   O16   A    
O12   V3    S    
C43   C44   A    
C40   C43   A    
O9    C4    A    
C1    C36   S    
C21   C24   S    
N4    H20   S    
C38   C39   A    
C5    H1    S    
O4    V1    S    
N3    H17   S    
O14   C54   A    
C9    C14   A    
C2    C51   S    
C39   N3    S    
C34   H11   S    
C23   C26   S    
C51   C52   A    
C44   C45   A    
C29   C30   S    
C12   C13   A    
V4    O20   S    
O4    C2    A    
C7    Cl4   S    
C13   C14   A    
O15   V3    S    
C49   Cl9   S    
C6    C55   S    
C25   N1    S    
C37   C38   A    
C25   C28   S    
C20   H2    S    
C3    C23   S    
O2    C1    A    
C26   C27   S    
C22   C27   S    
C39   C40   A    
C24   Cl2   S    
C8    C11   A    
N4    H19   S    
C43   H12   S    
C48   Cl8   S    
N2    H16   S    
C5    C6    A    
C14   C15   A    
C21   Cl1   S    
C41   C46   A    
C28   C56   S    
O3    C4    A    
C30   H7    S    
C37   C42   A    
O6    V2    S    
O9    V2    S    
C25   C26   S    
C21   C28   S    
O2    V1    S    
C31   C54   S    
C47   C52   A    
C27   C28   S    
C33   C36   S    
C13   C18   A    
C34   C35   S    
O11   V4    S    
C15   C20   A    
O1    C2    A    
O5    V1    S    
N5    H22   S    
C33   H10   S    
N1    H14   S    
C33   C34   S    
C29   C32   S    
C42   C49   A    
C52   Cl7   S    
C5    C10   A    
C29   H8    S    
C31   C34   S    
C41   C42   A    
C45   C50   A    
C31   C32   S    
O3    V1    S    
V3    O20   S    
N6    H23   S    
C11   N5    S    
C22   C23   S    
C44   N4    S    
C18   C19   A    
C18   Cl10  S    
O15   C55   A    
N2    H15   S    
O7    V2    S    
C46   C47   A    
C26   H6    S    
C32   H9    S    
C27   Cl3   S    
C40   C41   A    
C48   C49   A    
C8    C9    A    
O18   C55   A    
C15   C16   A    
V1    O10   S    
O19   C56   A    
C9    C10   A    
O13   V3    S    
O8    C3    A    
C29   C36   S    
