data_mof_unit_29057.cif
_audit_creation_date              2012-10-26T20:16:38-0400
_audit_creation_method            fapswitch 2.2
_symmetry_space_group_name_H-M    P1
_symmetry_Int_Tables_number       1
_space_group_crystal_system       triclinic
_cell_length_a                    10.903986
_cell_length_b                    10.903618
_cell_length_c                    9.807482
_cell_angle_alpha                 98.647902
_cell_angle_beta                  98.874974
_cell_angle_gamma                 92.970236
_cell_volume                      1135.61770054

loop_
_atom_site_label
_atom_site_type_symbol
_atom_type_description
_atom_site_fract_x
_atom_site_fract_y
_atom_site_fract_z
_atom_type_partial_charge
C1    C     C_R   0.504285 0.262258 0.499338 0.542393
C2    C     C_R   0.685652 0.948368 0.846206 -0.087168
C3    C     C_R   0.471238 0.079426 0.228839 0.061334
C4    C     C_R   0.564324 0.924031 0.770710 0.060114
C5    C     C_R   0.570901 0.137232 0.180577 -0.035294
C6    C     C_R   0.470613 0.871460 0.832597 -0.032450
C7    C     C_R   0.551848 0.177398 0.050593 -0.082745
C8    C     C_R   0.499591 0.837854 0.965213 -0.096872
C9    C     C_R   0.433837 0.159390 0.968070 -0.119888
C10   C     C_R   0.621103 0.860547 0.038802 -0.123765
C11   C     C_R   0.483107 0.915894 0.375268 -0.166417
C12   C     C_R   0.501154 0.738184 0.500590 0.545568
C13   C     C_R   0.538875 0.085555 0.623519 -0.166307
C14   C     C_R   0.504982 0.872740 0.503341 -0.008224
C15   C     C_R   0.511513 0.128417 0.496124 -0.009862
C16   C     C_R   0.261759 0.498296 0.499167 0.538255
C17   C     C_R   0.737915 0.498271 0.500835 0.542352
C18   C     C_R   0.534941 0.959223 0.629741 -0.032739
C19   C     C_R   0.488852 0.042321 0.369374 -0.033893
C20   C     C_2   0.510352 0.510748 0.079004 -0.040253
C21   C     C_2   0.487972 0.491044 0.921028 -0.042363
C22   C     C_R   0.159425 0.484404 0.030227 -0.116739
C23   C     C_R   0.871840 0.494305 0.504008 -0.016739
C24   C     C_R   0.833811 0.469553 0.958829 -0.106980
C25   C     C_R   0.128917 0.517643 0.163253 -0.064123
C26   C     C_R   0.868795 0.447707 0.826759 -0.060546
C27   C     C_R   0.073990 0.428205 0.229335 0.085359
C28   C     C_R   0.922890 0.545329 0.771594 0.065247
C29   C     C_R   0.042832 0.305643 0.156153 0.169476
C30   C     C_R   0.945995 0.665389 0.853420 0.181122
C31   C     C_R   0.072028 0.274321 0.021264 -0.110265
C32   C     C_R   0.913306 0.684577 0.987599 -0.081058
C33   C     C_R   0.132181 0.362620 0.959875 -0.154907
C34   C     C_R   0.127199 0.495655 0.496125 -0.024306
C35   C     C_R   0.855927 0.587914 0.038951 -0.162714
C36   C     C_R   0.913884 0.465735 0.376523 -0.133722
C37   C     C_R   0.084775 0.519983 0.624137 -0.162829
C38   C     C_3   0.048827 0.158715 0.318765 -0.302401
C39   C     C_3   0.118360 0.819658 0.870495 -0.329444
C40   C     C_R   0.958548 0.519046 0.630437 -0.038933
C41   C     C_R   0.039996 0.465847 0.369939 -0.014140
C42   C     C_R   0.335360 0.099866 0.014325 -0.121791
C43   C     C_R   0.713394 0.917693 0.980229 -0.113182
C44   C     C_R   0.354060 0.058674 0.143530 -0.089643
Cu1   Cu    Cu3+1 0.521120 0.521140 0.639640 0.933983
Cu2   Cu    Cu3+1 0.478880 0.478860 0.360360 0.933346
H1    H     H_    0.155324 0.337304 0.856413 0.103468
H2    H     H_    0.581883 0.581018 0.135064 0.142913
H3    H     H_    0.622011 0.616922 0.904954 0.229623
H4    H     H_    0.379662 0.381362 0.095116 0.229281
H5    H     H_    0.204087 0.553284 0.981619 0.103601
H6    H     H_    0.790435 0.394453 0.999558 0.107735
H7    H     H_    0.149156 0.612949 0.215717 0.106444
H8    H     H_    0.852300 0.354990 0.766318 0.103878
H9    H     H_    0.047372 0.181387 0.963521 0.094056
H10   H     H_    0.931282 0.775039 0.052275 0.102910
H11   H     H_    0.847877 0.441881 0.280232 0.140161
H12   H     H_    0.828918 0.605137 0.141257 0.100298
H13   H     H_    0.150332 0.539522 0.721034 0.132766
H14   H     H_    0.417986 0.192071 0.868615 0.098486
H15   H     H_    0.643431 0.835508 0.141926 0.098907
H16   H     H_    0.244616 0.085795 0.949807 0.094901
H17   H     H_    0.806241 0.939235 0.039070 0.094763
H18   H     H_    0.277512 0.011201 0.177483 0.081872
H19   H     H_    0.758337 0.991699 0.801580 0.104744
H20   H     H_    0.918744 0.151885 0.139823 0.232563
H21   H     H_    0.986462 0.098572 0.364739 0.131863
H22   H     H_    0.100240 0.229695 0.404243 0.164433
H23   H     H_    0.662350 0.152682 0.244489 0.105843
H24   H     H_    0.115937 0.100290 0.270768 0.131117
H25   H     H_    0.986793 0.758642 0.692652 0.254482
H26   H     H_    0.149214 0.897031 0.819091 0.131082
H27   H     H_    0.186525 0.747659 0.864059 0.134054
H28   H     H_    0.116257 0.856823 0.981807 0.140137
H29   H     H_    0.376047 0.854668 0.776875 0.096972
H30   H     H_    0.628223 0.223008 0.014203 0.094924
H31   H     H_    0.427704 0.794949 0.011196 0.094102
H32   H     H_    0.462628 0.850804 0.278210 0.125647
H33   H     H_    0.562926 0.151039 0.719886 0.126651
H34   H     H_    0.414817 0.422523 0.864969 0.141581
N1    N     N_2   0.447120 0.447110 0.150550 -0.349237
N2    N     N_2   0.552880 0.552890 0.849450 -0.349619
N3    N     N_2   0.975282 0.216368 0.213786 -0.535117
N4    N     N_2   0.996123 0.768231 0.799994 -0.527062
O1    O     O_R   0.517830 0.337490 0.617920 -0.513256
O2    O     O_R   0.482170 0.662510 0.382080 -0.512441
O3    O     O_R   0.482150 0.301790 0.382070 -0.482010
O4    O     O_R   0.517850 0.698210 0.617930 -0.483339
O5    O     O_R   0.337480 0.517860 0.617920 -0.511991
O6    O     O_R   0.662520 0.482140 0.382080 -0.512948
O7    O     O_R   0.301810 0.482160 0.382070 -0.489760
O8    O     O_R   0.698190 0.517840 0.617930 -0.485326

loop_
_geom_bond_atom_site_label_1
_geom_bond_atom_site_label_2
_ccdc_geom_bond_type
C1    O3    A    
C13   H33   S    
C24   H6    S    
C38   N3    S    
C27   C29   A    
C34   C37   A    
C14   C18   A    
Cu1   O1    S    
Cu1   N2    S    
C2    H19   S    
C38   H24   S    
C43   H17   S    
C6    H29   S    
Cu1   Cu2   S    
C44   H18   S    
C15   C19   A    
C34   C41   A    
C11   C19   A    
C9    C42   A    
C17   C23   S    
C13   C18   A    
C35   H12   S    
C25   H7    S    
C39   N4    S    
C29   N3    S    
C37   C40   A    
C11   C14   A    
C28   C40   S    
C23   C40   A    
C39   H28   S    
Cu1   O8    S    
C5    H23   S    
C16   C34   S    
H20   N3    S    
C38   H22   S    
C22   C25   A    
C39   H26   S    
C31   C33   A    
C3    C19   S    
C1    C15   S    
Cu1   O5    S    
C42   H16   S    
C4    C18   S    
C16   O5    A    
C20   N1    D    
C36   C41   A    
C17   O8    A    
C42   C44   A    
C26   H8    S    
C1    O1    A    
C3    C44   A    
C24   C35   A    
C12   O4    A    
C32   C35   A    
Cu1   O4    S    
C4    C6    A    
C36   H11   S    
C5    C7    A    
C6    C8    A    
Cu2   O7    S    
H3    N2    S    
H25   N4    S    
C2    C4    A    
C11   H32   S    
Cu2   N1    S    
C27   C41   S    
C2    C43   A    
C20   H2    S    
C20   C21   S    
C37   H13   S    
C12   C14   S    
C13   C15   A    
C8    H31   S    
C33   H1    S    
C10   H15   S    
Cu2   O3    S    
C7    C9    A    
C22   C33   A    
C10   C43   A    
C17   O6    A    
C24   C26   A    
C3    C5    A    
C7    H30   S    
Cu2   O6    S    
C25   C27   A    
C26   C28   A    
C12   O2    A    
C9    H14   S    
C28   C30   A    
C29   C31   A    
C30   C32   A    
C21   N2    D    
C21   H34   S    
C39   H27   S    
C30   N4    S    
C38   H21   S    
C16   O7    A    
C8    C10   A    
C23   C36   A    
C31   H9    S    
C32   H10   S    
H4    N1    S    
C22   H5    S    
Cu2   O2    S    
