data_mof_unit_28951.cif
_audit_creation_date              2012-12-10T17:17:28-0500
_audit_creation_method            fapswitch 2.2
_symmetry_space_group_name_H-M    P1
_symmetry_Int_Tables_number       1
_space_group_crystal_system       triclinic
_cell_length_a                    10.245455
_cell_length_b                    10.623759
_cell_length_c                    12.238516
_cell_angle_alpha                 91.170334
_cell_angle_beta                  109.793918
_cell_angle_gamma                 96.508373
_cell_volume                      1242.85490513

loop_
_atom_site_label
_atom_site_type_symbol
_atom_type_description
_atom_site_fract_x
_atom_site_fract_y
_atom_site_fract_z
_atom_type_partial_charge
C1    C     C_R   0.049942 0.734391 0.488214 0.927507
C2    C     C_R   0.411545 0.464948 0.994751 0.070939
C3    C     C_R   0.320968 0.433770 0.880554 0.101854
C4    C     C_R   0.550781 0.438333 0.024214 0.062847
C5    C     C_R   0.590591 0.358202 0.949415 0.147519
C6    C     C_R   0.487816 0.306622 0.845288 -0.233230
C7    C     C_R   0.355426 0.344839 0.810836 -0.162069
C8    C     C_R   0.652335 0.495383 0.124406 -0.252055
C9    C     C_R   0.826319 0.379628 0.091634 -0.263601
C10   C     C_R   0.199809 0.494484 0.839066 -0.164366
C11   C     C_2   0.065711 0.868905 0.460780 -0.014102
C12   C     C_R   0.132159 0.504294 0.714265 0.898875
C13   C     C_2   0.948614 0.926543 0.433976 -0.222211
C14   C     C_2   0.901816 0.130630 0.487542 -0.364690
C15   C     C_2   0.952492 0.061974 0.422486 -0.166348
C16   C     C_2   0.436328 0.505869 0.516606 0.296610
C17   C     C_2   0.566732 0.485569 0.491831 -0.201434
C18   C     C_R   0.944689 0.266236 0.502292 0.908333
C19   C     C_R   0.865176 0.486717 0.285543 0.872347
C20   C     C_R   0.731447 0.331527 0.982351 0.188518
C21   C     C_R   0.784825 0.459011 0.162880 -0.098829
C22   C     C_R   0.151947 0.556675 0.917767 -0.229546
C23   C     C_R   0.228164 0.564616 0.036830 0.228045
C24   C     C_R   0.359746 0.522335 0.074723 -0.248054
H1    H     H_    0.931090 0.352887 0.122362 0.150853
H2    H     H_    0.849533 0.876972 0.433444 0.183106
H3    H     H_    0.837187 0.086646 0.534318 0.153037
H4    H     H_    0.561365 0.410855 0.428077 0.149817
H5    H     H_    0.691464 0.626282 0.603464 0.218464
H6    H     H_    0.310670 0.386486 0.386617 0.114616
H7    H     H_    0.508789 0.239542 0.787718 0.156206
H8    H     H_    0.628868 0.566775 0.176643 0.161397
H9    H     H_    0.056176 0.599850 0.886764 0.164045
H10   H     H_    0.418375 0.532051 0.166967 0.129706
H11   H     H_    0.279929 0.303068 0.729407 0.163430
H12   H     H_    0.015653 0.107408 0.375086 0.177128
N1    N     N_2   0.313640 0.446500 0.454900 -0.215721
N2    N     N_2   0.686360 0.553430 0.545150 -0.182456
O1    O     O_R   0.936910 0.692950 0.509080 -0.625183
O2    O     O_R   0.138320 0.658600 0.480130 -0.563924
O3    O     O_R   0.002900 0.525670 0.675280 -0.614398
O4    O     O_R   0.204310 0.491320 0.646330 -0.547140
O5    O     O_R   0.861680 0.341400 0.519870 -0.602122
O6    O     O_R   0.063090 0.307050 0.490920 -0.615416
O7    O     O_R   0.795690 0.508680 0.353670 -0.607072
O8    O     O_R   0.997100 0.474330 0.324720 -0.621838
Zn1   Zn    Zn3+2 0.865520 0.522940 0.519330 0.927175
Zn2   Zn    Zn3+2 0.134480 0.477060 0.480670 0.947747
C25   C     C_3   0.202888 0.943373 0.460947 -0.456476
C26   C     C_3   0.334149 0.879519 0.511263 -0.778557
H13   H     H_    0.343825 0.851487 0.600186 0.290451
H14   H     H_    0.332634 0.796943 0.453625 0.287473
H15   H     H_    0.427303 0.947816 0.517624 0.232568
H16   H     H_    0.191987 0.966726 0.370417 0.208221
H17   H     H_    0.221752 0.034208 0.514011 0.229512
Br1   Br    Br    0.458272 0.620252 0.647349 -0.554900
C27   C     C_3   0.783383 0.251226 0.905627 -0.469350
C28   C     C_3   0.800291 0.324100 0.803841 -0.777676
H18   H     H_    0.698692 0.349256 0.745719 0.263725
H19   H     H_    0.843625 0.264780 0.752081 0.240709
H20   H     H_    0.873508 0.412607 0.836966 0.261580
H21   H     H_    0.887038 0.222923 0.956299 0.207986
H22   H     H_    0.712028 0.161363 0.873529 0.203796
C29   C     C_3   0.171440 0.621848 0.122608 -0.407665
C30   C     C_3   0.182676 0.766034 0.119556 -0.856030
H23   H     H_    0.293706 0.807249 0.141180 0.262410
H24   H     H_    0.120381 0.793939 0.032127 0.257793
H25   H     H_    0.141826 0.805110 0.184631 0.249009
H26   H     H_    0.060190 0.581918 0.102125 0.213975
H27   H     H_    0.229443 0.597383 0.212601 0.207133

loop_
_geom_bond_atom_site_label_1
_geom_bond_atom_site_label_2
_ccdc_geom_bond_type
H5    N2    S    
C26   H14   S    
C23   C24   A    
C19   O7    A    
C12   O3    A    
C11   C25   S    
C29   H27   S    
C14   H3    S    
O3    Zn1   S    
C14   C18   S    
C9    C20   A    
C2    C4    A    
C1    C11   S    
C16   N1    D    
C4    C8    A    
C30   H25   S    
C29   C30   S    
C28   H20   S    
C16   Br1   S    
C6    H7    S    
N2    Zn1   S    
C19   O8    A    
C9    H1    S    
C27   H21   S    
C30   H23   S    
C3    C10   A    
O4    Zn2   S    
C18   O5    A    
C10   C22   A    
N1    Zn2   S    
C11   C13   D    
C9    C21   A    
C27   C28   S    
C6    C7    A    
C12   O4    A    
C10   C12   S    
C7    H11   S    
C23   C29   S    
C19   C21   S    
C27   H22   S    
C3    C7    A    
C18   O6    A    
C17   N2    D    
C13   C15   S    
C2    C24   A    
C5    C6    A    
O8    Zn2   S    
C13   H2    S    
C26   H15   S    
C1    O1    A    
C28   H19   S    
C25   H16   S    
C8    H8    S    
C15   H12   S    
C20   C27   S    
O1    Zn1   S    
C25   C26   S    
O7    Zn1   S    
C5    C20   A    
C22   H9    S    
O2    Zn2   S    
C14   C15   D    
C16   C17   S    
C2    C3    A    
C1    O2    A    
C26   H13   S    
C28   H18   S    
C25   H17   S    
C17   H4    S    
O5    Zn1   S    
C29   H26   S    
C22   C23   A    
C24   H10   S    
O6    Zn2   S    
H6    N1    S    
C4    C5    A    
C30   H24   S    
C8    C21   A    
