data_mof_unit_33241.cif
_audit_creation_date              2012-12-11T14:52:37-0500
_audit_creation_method            fapswitch 2.2
_symmetry_space_group_name_H-M    P1
_symmetry_Int_Tables_number       1
_space_group_crystal_system       triclinic
_cell_length_a                    18.867801
_cell_length_b                    10.996793
_cell_length_c                    18.665729
_cell_angle_alpha                 89.261245
_cell_angle_beta                  91.436475
_cell_angle_gamma                 90.070687
_cell_volume                      3871.32387853

loop_
_atom_site_label
_atom_site_type_symbol
_atom_type_description
_atom_site_fract_x
_atom_site_fract_y
_atom_site_fract_z
_atom_type_partial_charge
C1    C     C_R   0.274519 0.038254 0.855898 0.594745
C2    C     C_R   0.698957 0.532251 0.039336 -0.167520
C3    C     C_3   0.996668 0.328146 0.073112 0.028542
C4    C     C_3   0.410099 0.514919 0.398461 -0.215120
C5    C     C_3   0.586269 0.390192 0.544465 -0.201909
C6    C     C_3   0.927932 0.931724 0.463268 -0.281177
C7    C     C_3   0.121858 0.844901 0.514965 -0.272724
C8    C     C_3   0.453171 0.500388 0.945876 -0.258111
C9    C     C_3   0.423226 0.575571 0.130864 -0.246448
C10   C     C_3   0.979321 0.992187 0.023970 -0.232123
C11   C     C_3   0.872705 0.214001 0.159780 -0.257623
C12   C     C_3   0.074091 0.745044 0.922769 -0.171124
C13   C     C_R   0.792178 0.003677 0.956515 -0.121512
C14   C     C_3   0.909236 0.596606 0.139784 -0.268756
C15   C     C_3   0.571197 0.228299 0.923593 -0.169593
C16   C     C_3   0.408759 0.086740 0.149973 -0.276068
C17   C     C_R   0.198683 0.033512 0.040049 -0.177313
C18   C     C_R   0.270813 0.454976 0.023200 0.294010
C19   C     C_R   0.702723 0.522377 0.965394 0.280048
C20   C     C_R   0.781480 0.975256 0.028404 0.319724
C21   C     C_R   0.202362 0.027536 0.965910 0.280608
C22   C     C_R   0.216498 0.512123 0.060618 0.011179
C23   C     C_R   0.759623 0.574237 0.929120 0.006659
C24   C     C_R   0.719302 0.013417 0.061728 -0.002770
C25   C     C_R   0.709095 0.996553 0.139085 0.603401
C26   C     C_R   0.264012 0.064759 0.931875 0.018846
C27   C     C_R   0.164364 0.576462 0.020903 0.316198
C28   C     C_R   0.813904 0.634132 0.968782 0.312300
C29   C     C_R   0.664188 0.064006 0.019679 0.303358
C30   C     C_R   0.322254 0.108495 0.973699 0.319737
C31   C     C_R   0.171102 0.595860 0.947367 0.140811
C32   C     C_R   0.816385 0.626700 0.043280 0.172587
C33   C     C_R   0.673336 0.088352 0.946981 0.136651
C34   C     C_R   0.320372 0.108747 0.048172 0.190215
C35   C     C_R   0.235320 0.562824 0.914416 -0.080507
C36   C     C_R   0.773145 0.541324 0.854632 0.584185
C37   C     C_R   0.754476 0.586751 0.078622 -0.078809
C38   C     C_R   0.740372 0.067374 0.916665 -0.086873
C39   C     C_R   0.255482 0.079951 0.080976 -0.059888
C40   C     C_R   0.519619 0.719594 0.544739 0.390140
C41   C     C_R   0.538893 0.718256 0.474971 0.366362
C42   C     C_R   0.028476 0.235261 0.546094 0.396404
C43   C     C_R   0.032504 0.227455 0.473119 0.390089
C44   C     C_R   0.547206 0.826463 0.436622 -0.041532
C45   C     C_R   0.507530 0.829810 0.579549 -0.033596
C46   C     C_R   0.011628 0.325862 0.428408 0.028064
C47   C     C_R   0.208670 0.496405 0.138926 0.607669
C48   C     C_R   0.997644 0.337021 0.576048 -0.016089
C49   C     C_R   0.540751 0.938344 0.471892 -0.211021
C50   C     C_R   0.520233 0.940025 0.543405 -0.211026
C51   C     C_R   0.984897 0.431702 0.458423 -0.144048
C52   C     C_R   0.977243 0.436914 0.532275 -0.192952
C53   C     C_R   0.439019 0.814603 0.861712 0.554143
C54   C     C_R   0.527574 0.821816 0.145915 0.544501
C55   C     C_R   0.937577 0.314938 0.861372 0.558798
C56   C     C_R   0.028367 0.321921 0.145208 0.522271
C57   C     C_R   0.204314 0.579625 0.545513 -0.070691
C58   C     C_3   0.488888 0.704786 0.983337 0.164019
C59   C     C_R   0.768345 0.736987 0.484003 -0.140642
C60   C     C_R   0.735245 0.241740 0.513623 -0.143321
C61   C     C_R   0.264639 0.240973 0.484327 -0.097907
C62   C     C_R   0.193923 0.547283 0.475802 0.307493
C63   C     C_R   0.775038 0.711452 0.556323 0.338230
C64   C     C_R   0.725518 0.211957 0.442320 0.332290
C65   C     C_R   0.271437 0.210478 0.556045 0.350791
C66   C     C_R   0.245756 0.574361 0.425826 0.051817
C67   C     C_R   0.738528 0.611864 0.585095 0.028464
C68   C     C_R   0.761438 0.111788 0.415233 0.042256
C69   C     C_3   0.440114 0.742950 0.042891 0.145827
C70   C     C_R   0.241847 0.101124 0.581112 0.051022
C71   C     C_R   0.311875 0.621267 0.446956 0.048037
C72   C     C_R   0.684828 0.552907 0.543842 0.078607
C73   C     C_R   0.818919 0.060827 0.455710 0.059376
C74   C     C_R   0.197816 0.029007 0.535682 0.123679
C75   C     C_R   0.320725 0.660240 0.517150 -0.127298
C76   C     C_R   0.686213 0.569527 0.469633 -0.060368
C77   C     C_R   0.822969 0.085137 0.529437 -0.097447
C78   C     C_R   0.196957 0.056431 0.463281 -0.049510
C79   C     C_R   0.265709 0.642593 0.564999 -0.016192
C80   C     C_3   0.969528 0.205550 0.987215 0.177721
C81   C     C_R   0.728358 0.661283 0.439865 -0.076820
C82   C     C_R   0.776390 0.169317 0.559166 -0.063532
C83   C     C_R   0.229716 0.161517 0.437928 -0.034717
C84   C     C_R   0.257718 0.629437 0.849000 0.550897
C85   C     C_R   0.740541 0.634118 0.149551 0.564496
C86   C     C_R   0.758884 0.131476 0.849958 0.560418
C87   C     C_R   0.240761 0.132828 0.150258 0.574788
C88   C     C_R   0.269391 0.048940 0.647495 0.579716
C89   C     C_R   0.731235 0.050260 0.352020 0.555894
C90   C     C_R   0.768438 0.551751 0.648902 0.559701
C91   C     C_3   0.928128 0.269374 0.044560 0.143063
C92   C     C_R   0.229071 0.545113 0.353577 0.607908
C93   C     C_R   0.471214 0.823782 0.647681 0.552414
C94   C     C_R   0.562047 0.819177 0.360505 0.561500
C95   C     C_R   0.970213 0.324804 0.647427 0.570110
C96   C     C_R   0.031318 0.322325 0.353798 0.572348
C97   C     C_R   0.273271 0.685817 0.636087 0.563432
C98   C     C_R   0.725725 0.687591 0.363619 0.554744
C99   C     C_R   0.775391 0.190840 0.636367 0.566867
C100  C     C_R   0.225416 0.190010 0.362962 0.588385
C101  C     C_3   0.471494 0.933526 0.025741 -0.098652
C102  C     C_R   0.279935 0.480428 0.950428 -0.152996
C103  C     C_3   0.520604 0.891911 0.966115 -0.103506
C104  C     C_3   0.985586 0.438511 0.021910 -0.108104
C105  C     C_3   0.027379 0.372030 0.964071 -0.114960
C106  C     C_3   0.411490 0.850056 0.995687 -0.146164
C107  C     C_3   0.547898 0.786256 0.013772 -0.104685
C108  C     C_3   0.915515 0.379358 0.993681 -0.150707
C109  C     C_3   0.039103 0.261806 0.015013 -0.112488
C110  C     C_3   0.461537 0.811427 0.936632 0.020056
C111  C     C_3   0.497850 0.826760 0.073349 0.038286
C112  C     C_3   0.957974 0.314796 0.936827 0.028750
Cr1   Cr    Cr6+3 0.229630 0.835900 0.747350 1.052381
Cr2   Cr    Cr6+3 0.614200 0.677120 0.250660 1.035492
Cr3   Cr    Cr6+3 0.885800 0.177120 0.749340 1.072737
Cr4   Cr    Cr6+3 0.114200 0.177120 0.250660 1.033127
Cr5   Cr    Cr6+3 0.770370 0.835900 0.252650 1.034777
Cr6   Cr    Cr6+3 0.729630 0.335900 0.747350 1.038996
Cr7   Cr    Cr6+3 0.270370 0.335900 0.252650 1.020362
Cr8   Cr    Cr6+3 0.387410 0.989850 0.750850 1.073507
Cr9   Cr    Cr6+3 0.612590 0.989850 0.249150 1.048379
Cr10  Cr    Cr6+3 0.887410 0.489850 0.750850 1.075801
Cr11  Cr    Cr6+3 0.112590 0.489850 0.249150 1.055004
Cr12  Cr    Cr6+3 0.385800 0.677120 0.749340 1.068284
F1    F     F_    0.133506 0.488091 0.456990 -0.651332
F2    F     F_    0.868487 0.690581 0.935577 -0.642120
F3    F     F_    0.600754 0.087663 0.049214 -0.660786
F4    F     F_    0.382707 0.147941 0.942824 -0.657841
F5    F     F_    0.504640 0.610575 0.575015 -0.624279
F6    F     F_    0.544181 0.608602 0.443817 -0.662050
F7    F     F_    0.050560 0.139297 0.587301 -0.626551
F8    F     F_    0.057559 0.122451 0.446589 -0.648845
F9    F     F_    0.819785 0.779701 0.597387 -0.631750
F10   F     F_    0.679355 0.277779 0.400593 -0.648437
F11   F     F_    0.309756 0.284306 0.600150 -0.606559
F12   F     F_    0.315549 0.376016 0.056745 -0.644213
F13   F     F_    0.650579 0.463048 0.929216 -0.666702
F14   F     F_    0.833281 0.915624 0.065867 -0.618955
F15   F     F_    0.144439 0.992266 0.927157 -0.666453
F16   F     F_    0.105536 0.617530 0.053089 -0.664930
H1    H     H_    0.354322 0.870370 0.987756 0.095838
H2    H     H_    0.653807 0.514577 0.434599 0.245667
H3    H     H_    0.861707 0.039160 0.563656 0.195358
H4    H     H_    0.169548 0.997114 0.426187 0.182796
H5    H     H_    0.471654 0.031920 0.033357 0.218295
H6    H     H_    0.553770 0.944076 0.929722 0.178257
H7    H     H_    0.991622 0.537257 0.028426 0.211520
H8    H     H_    0.068459 0.409953 0.928873 0.158791
H9    H     H_    0.321218 0.435621 0.922065 0.162499
H10   H     H_    0.651626 0.500626 0.065515 0.180974
H11   H     H_    0.841938 0.980318 0.932795 0.210466
H12   H     H_    0.604601 0.760896 0.021452 0.119506
H13   H     H_    0.149597 0.010360 0.065279 0.154890
H14   H     H_    0.548737 0.023768 0.443708 0.180080
H15   H     H_    0.511204 0.026283 0.568981 0.164755
H16   H     H_    0.970103 0.509321 0.425011 0.152123
H17   H     H_    0.952393 0.516242 0.554529 0.167622
H18   H     H_    0.400652 0.701872 0.405394 0.272124
H19   H     H_    0.451823 0.522529 0.357784 0.199375
H20   H     H_    0.376854 0.435254 0.384831 0.152374
H21   H     H_    0.434533 0.497004 0.452294 0.222559
H22   H     H_    0.617116 0.506750 0.629684 0.300928
H23   H     H_    0.862482 0.417984 0.983280 0.101433
H24   H     H_    0.593655 0.303348 0.574680 0.129664
H25   H     H_    0.598853 0.374249 0.488077 0.198555
H26   H     H_    0.529348 0.412825 0.546579 0.234710
H27   H     H_    0.885748 0.020801 0.372188 0.272938
H28   H     H_    0.962104 0.879285 0.427270 0.148008
H29   H     H_    0.906985 0.867763 0.503879 0.195127
H30   H     H_    0.960203 0.001834 0.490764 0.222218
H31   H     H_    0.126288 0.951452 0.606182 0.324948
H32   H     H_    0.097743 0.769971 0.546493 0.156359
H33   H     H_    0.160744 0.805062 0.478332 0.137769
H34   H     H_    0.090312 0.213746 0.023606 0.139458
H35   H     H_    0.079054 0.891439 0.483635 0.190834
H36   H     H_    0.545436 0.589469 0.919684 0.315852
H37   H     H_    0.475605 0.411623 0.931354 0.152457
H38   H     H_    0.419971 0.533656 0.900293 0.178527
H39   H     H_    0.421557 0.486057 0.994193 0.217712
H40   H     H_    0.349629 0.710486 0.103044 0.248255
H41   H     H_    0.430165 0.614354 0.185186 0.156286
H42   H     H_    0.474368 0.541231 0.110950 0.184419
H43   H     H_    0.387334 0.497047 0.135954 0.223394
H44   H     H_    0.986841 0.058300 0.920802 0.298424
H45   H     H_    0.163495 0.558657 0.583633 0.170734
H46   H     H_    0.037173 0.989640 0.033997 0.141498
H47   H     H_    0.961780 0.900571 0.007002 0.185284
H48   H     H_    0.952912 0.015426 0.074369 0.231697
H49   H     H_    0.820767 0.233167 0.060027 0.247482
H50   H     H_    0.821446 0.181409 0.180681 0.170846
H51   H     H_    0.882128 0.307066 0.179922 0.114032
H52   H     H_    0.914696 0.151412 0.180326 0.181455
H53   H     H_    0.104544 0.603250 0.853756 0.262398
H54   H     H_    0.018260 0.723885 0.935499 0.183166
H55   H     H_    0.074399 0.807871 0.875753 0.190110
H56   H     H_    0.796227 0.812754 0.461501 0.184732
H57   H     H_    0.099621 0.791284 0.969203 0.229235
H58   H     H_    0.915644 0.716957 0.052170 0.305195
H59   H     H_    0.967412 0.590700 0.135340 0.157565
H60   H     H_    0.885833 0.504211 0.141085 0.124509
H61   H     H_    0.902053 0.641230 0.191953 0.180302
H62   H     H_    0.608465 0.095125 0.851595 0.259061
H63   H     H_    0.516584 0.196354 0.933687 0.196808
H64   H     H_    0.569321 0.295816 0.878885 0.182892
H65   H     H_    0.592762 0.272937 0.972504 0.239800
H66   H     H_    0.416173 0.210038 0.062141 0.311798
H67   H     H_    0.710515 0.319769 0.534491 0.158955
H68   H     H_    0.466954 0.079257 0.146702 0.165664
H69   H     H_    0.384699 0.994619 0.153822 0.125434
H70   H     H_    0.400496 0.136690 0.200241 0.179913
H71   H     H_    0.288753 0.323829 0.464553 0.142552
H72   H     H_    0.369763 0.703098 0.534440 0.146183
N1    N     N_2   0.368976 0.626151 0.398833 -0.513322
N2    N     N_2   0.878672 0.670078 0.081356 -0.414734
N3    N     N_2   0.613893 0.126092 0.903385 -0.496123
N4    N     N_2   0.380463 0.155197 0.088320 -0.430945
N5    N     N_2   0.629926 0.483903 0.578204 -0.456074
N6    N     N_2   0.870750 0.987754 0.421526 -0.513297
N7    N     N_2   0.156752 0.929401 0.563151 -0.463654
N8    N     N_2   0.509378 0.585231 0.960143 -0.495379
N9    N     N_2   0.392057 0.665131 0.082184 -0.525903
N10   N     N_2   0.962093 0.079154 0.967619 -0.498236
N11   N     N_2   0.869986 0.213251 0.082381 -0.496910
N12   N     N_2   0.110276 0.633610 0.905633 -0.492554
O1    O     O_R   0.214270 0.709000 0.827470 -0.491167
O2    O     O_R   0.543270 0.717630 0.330160 -0.461099
O3    O     O_R   0.956730 0.217630 0.669840 -0.453658
O4    O     O_R   0.043270 0.217630 0.330160 -0.465947
O5    O     O_R   0.320620 0.625640 0.672920 -0.449358
O6    O     O_R   0.679380 0.625640 0.327080 -0.477849
O7    O     O_R   0.820620 0.125640 0.672920 -0.480869
O8    O     O_R   0.179380 0.125640 0.327080 -0.483671
O9    O     O_3   0.334280 0.834290 0.749180 -0.327090
O10   O     O_3   0.665720 0.834290 0.250820 -0.333960
O11   O     O_3   0.834280 0.334290 0.749180 -0.330621
O12   O     O_R   0.785730 0.709000 0.172530 -0.457920
O13   O     O_3   0.165720 0.334290 0.250820 -0.305990
O14   O     O_R   0.236160 0.958490 0.823130 -0.452239
O15   O     O_R   0.763840 0.958490 0.176870 -0.455232
O16   O     O_R   0.736160 0.458490 0.823130 -0.451083
O17   O     O_R   0.263840 0.458490 0.176870 -0.479760
O18   O     O_R   0.332080 0.075470 0.831280 -0.450338
O19   O     O_R   0.667920 0.075470 0.168720 -0.458085
O20   O     O_R   0.832080 0.575470 0.831280 -0.448379
O21   O     O_R   0.167920 0.575470 0.168720 -0.456028
O22   O     O_R   0.446300 0.918110 0.826620 -0.486414
O23   O     O_R   0.714270 0.209000 0.827470 -0.478645
O24   O     O_R   0.553700 0.918110 0.173380 -0.495362
O25   O     O_R   0.946300 0.418110 0.826620 -0.488814
O26   O     O_R   0.053700 0.418110 0.173380 -0.509933
O27   O     O_R   0.457110 0.716200 0.831760 -0.528116
O28   O     O_R   0.542890 0.716200 0.168240 -0.534296
O29   O     O_R   0.957110 0.216200 0.831760 -0.506629
O30   O     O_R   0.042890 0.216200 0.168240 -0.538174
O31   O     O_R   0.320980 0.624310 0.823030 -0.524680
O32   O     O_R   0.679020 0.624310 0.176970 -0.506781
O33   O     O_R   0.820980 0.124310 0.823030 -0.508718
O34   O     O_R   0.285730 0.209000 0.172530 -0.450111
O35   O     O_R   0.179020 0.124310 0.176970 -0.517444
O36   O     O_R   0.213890 0.710430 0.665540 -0.521247
O37   O     O_R   0.786110 0.710430 0.334460 -0.512216
O38   O     O_R   0.713890 0.210430 0.665540 -0.506611
O39   O     O_R   0.286110 0.210430 0.334460 -0.543833
O40   O     O_R   0.235810 0.959820 0.673020 -0.518623
O41   O     O_R   0.764190 0.959820 0.326980 -0.530455
O42   O     O_R   0.735810 0.459820 0.673020 -0.539914
O43   O     O_R   0.264190 0.459820 0.326980 -0.531129
O44   O     O_R   0.331700 0.076900 0.669350 -0.455901
O45   O     O_R   0.445950 0.919440 0.676520 -0.516563
O46   O     O_R   0.668300 0.076900 0.330650 -0.455970
O47   O     O_R   0.831700 0.576900 0.669350 -0.448721
O48   O     O_R   0.168300 0.576900 0.330650 -0.474628
O49   O     O_R   0.554050 0.919440 0.323480 -0.518384
O50   O     O_R   0.945950 0.419440 0.676520 -0.519248
O51   O     O_R   0.054050 0.419440 0.323480 -0.479755
O52   O     O_R   0.456730 0.717630 0.669840 -0.434398

loop_
_geom_bond_atom_site_label_1
_geom_bond_atom_site_label_2
_ccdc_geom_bond_type
C44   C49   A    
C3    C104  S    
Cr5   O41   S    
C40   F5    S    
C49   C50   A    
Cr11  O48   S    
C2    H10   S    
C86   O23   A    
Cr8   O44   S    
C48   C95   S    
C56   O30   A    
C55   C112  S    
C85   O12   A    
C69   C111  S    
C82   C99   S    
C57   C79   A    
C19   C23   A    
C90   O47   A    
C2    C37   A    
C39   C87   S    
C21   C26   A    
C35   C102  A    
C17   H13   S    
Cr6   O23   S    
C94   O49   A    
Cr3   O11   S    
C15   H64   S    
C33   N3    S    
C98   O37   A    
C57   C62   A    
Cr2   O10   S    
Cr4   O30   S    
H18   N1    S    
Cr1   O9    S    
C72   N5    S    
C101  H5    S    
Cr1   O40   S    
C95   O50   A    
Cr3   O7    S    
Cr4   O4    S    
C103  C110  S    
C9    H43   S    
C63   F9    S    
C37   C85   S    
C16   H69   S    
C90   O42   A    
C67   C72   A    
Cr12  O27   S    
Cr10  O50   S    
C17   C39   A    
C41   F6    S    
C92   O48   A    
C65   F11   S    
C4    H19   S    
C5    H26   S    
C81   C98   S    
C25   O15   A    
H66   N4    S    
C65   C70   A    
C14   H61   S    
C29   C33   A    
C104  C108  S    
C52   H17   S    
C14   N2    S    
C3    C91   S    
C11   H52   S    
C18   C102  A    
C20   F14   S    
C16   N4    S    
C53   O27   A    
C24   C29   A    
C12   N12   S    
C69   C106  S    
C9    H42   S    
C98   O6    A    
C92   O43   A    
C58   N8    S    
C8    H37   S    
H53   N12   S    
C97   O5    A    
C20   C24   A    
C99   O38   A    
C28   F2    S    
C11   H51   S    
C56   O26   A    
C80   C109  S    
C70   C74   A    
C10   H48   S    
C12   H57   S    
C55   O25   A    
C18   F12   S    
C42   F7    S    
Cr1   O36   S    
C54   O24   A    
H62   N3    S    
C18   C22   A    
C103  H6    S    
H27   N6    S    
C57   H45   S    
C36   O16   A    
C72   C76   A    
Cr7   O39   S    
Cr5   O37   S    
Cr6   O38   S    
Cr10  O11   S    
H22   N5    S    
C45   C93   S    
C101  C103  S    
C99   O7    A    
Cr6   O42   S    
C7    H32   S    
Cr4   O8    S    
C45   C50   A    
C104  H7    S    
C94   O2    A    
Cr8   O22   S    
Cr12  O31   S    
C53   O22   A    
C84   O1    A    
C78   C83   A    
C87   O34   A    
C104  C105  S    
Cr11  O51   S    
C68   C89   S    
C6    H28   S    
C25   O19   A    
C40   C45   A    
C51   H16   S    
C108  H23   S    
C64   F10   S    
C75   H72   S    
Cr1   O14   S    
C62   C66   A    
C27   C31   A    
C34   C39   A    
C36   O20   A    
C5    H24   S    
C59   C81   A    
C49   H14   S    
C100  O8    A    
Cr5   O10   S    
C24   C25   S    
C13   H11   S    
C93   O52   A    
C15   N3    S    
C61   C83   A    
C87   O35   A    
Cr11  O21   S    
C27   F16   S    
C30   C34   A    
C109  H34   S    
C88   O44   A    
Cr4   O13   S    
C66   C92   S    
Cr5   O12   S    
C68   C73   A    
C71   N1    S    
C105  H8    S    
C14   H60   S    
C46   C51   A    
C67   C90   S    
C17   C21   A    
Cr8   O45   S    
C108  C112  S    
C7    H35   S    
C47   O21   A    
C6    H30   S    
C74   N7    S    
H44   N10   S    
C77   H3    S    
C63   C67   A    
Cr3   O3    S    
C53   C110  S    
C8    N8    S    
C78   H4    S    
Cr8   O9    S    
Cr2   O2    S    
C3    C56   S    
Cr1   O1    S    
C66   C71   A    
Cr3   O29   S    
C100  O39   A    
C28   C32   A    
C50   H15   S    
C19   F13   S    
Cr2   O28   S    
C80   C112  S    
C84   O31   A    
C10   H47   S    
C93   O45   A    
H40   N9    S    
C58   C69   S    
C89   O46   A    
C42   C48   A    
C32   C37   A    
Cr7   O17   S    
C13   C38   A    
C15   H65   S    
Cr4   O35   S    
Cr8   O18   S    
Cr10  O47   S    
Cr11  O26   S    
C8    H38   S    
C55   O29   A    
Cr12  O9    S    
C40   C41   A    
C105  C112  S    
C38   C86   S    
C26   C30   A    
C5    H25   S    
C83   C100  S    
C29   F3    S    
Cr3   O33   S    
C1    C26   S    
C1    O14   A    
C41   C44   A    
C31   C35   A    
Cr9   O46   S    
C95   O3    A    
C23   C28   A    
C42   C43   A    
C107  H12   S    
C91   N11   S    
H58   N2    S    
C64   C68   A    
C96   O4    A    
C58   C107  S    
C54   O28   A    
C88   O40   A    
C106  H1    S    
C47   O17   A    
C106  C110  S    
C11   N11   S    
Cr6   O16   S    
C101  C106  S    
Cr9   O19   S    
C105  C109  S    
C43   F8    S    
C85   O32   A    
C73   C77   A    
C4    N1    S    
C13   C20   A    
C2    C19   A    
C58   C110  S    
C107  C111  S    
C91   C108  S    
C79   C97   S    
Cr7   O13   S    
C70   C88   S    
Cr12  O5    S    
C16   H68   S    
C76   C81   A    
Cr2   O6    S    
C62   F1    S    
Cr10  O20   S    
C35   C84   S    
H49   N11   S    
C60   H67   S    
C44   C94   S    
C59   H56   S    
C101  C111  S    
C6    N6    S    
Cr2   O32   S    
C14   H59   S    
C61   H71   S    
C59   C63   A    
C33   C38   A    
Cr9   O10   S    
C60   C64   A    
C22   C27   A    
C11   H50   S    
C12   H55   S    
C60   C82   A    
C80   C91   S    
C16   H70   S    
C32   N2    S    
C51   C52   A    
C34   N4    S    
Cr10  O25   S    
C71   C75   A    
Cr9   O24   S    
Cr12  O52   S    
C8    H39   S    
C4    H20   S    
C77   C82   A    
C3    C109  S    
C7    H33   S    
C74   C78   A    
C10   H46   S    
C89   O41   A    
C73   N6    S    
C22   C47   S    
C86   O33   A    
C69   N9    S    
C61   C65   A    
C43   C46   A    
Cr9   O49   S    
C9    H41   S    
C1    O18   A    
C10   N10   S    
C102  H9    S    
C80   N10   S    
C31   N12   S    
C9    N9    S    
C48   C52   A    
Cr7   O34   S    
C46   C96   S    
Cr5   O15   S    
C23   C36   S    
H36   N8    S    
C7    N7    S    
C96   O51   A    
C21   F15   S    
C4    H21   S    
C5    N5    S    
C103  C107  S    
C15   H63   S    
C54   C111  S    
Cr6   O11   S    
C75   C79   A    
C30   F4    S    
Cr7   O43   S    
H31   N7    S    
C97   O36   A    
C12   H54   S    
Cr11  O13   S    
C6    H29   S    
C76   H2    S    
