data_mof_unit_27780.cif
_audit_creation_date              2012-12-11T16:53:34-0500
_audit_creation_method            fapswitch 2.2
_symmetry_space_group_name_H-M    P1
_symmetry_Int_Tables_number       1
_space_group_crystal_system       triclinic
_cell_length_a                    14.903518
_cell_length_b                    14.77125
_cell_length_c                    17.005111
_cell_angle_alpha                 108.934008
_cell_angle_beta                  106.410206
_cell_angle_gamma                 108.228792
_cell_volume                      3040.59201308

loop_
_atom_site_label
_atom_site_type_symbol
_atom_type_description
_atom_site_fract_x
_atom_site_fract_y
_atom_site_fract_z
_atom_type_partial_charge
C1    C     C_R   0.088588 0.283686 0.071774 -0.127195
C2    C     C_R   0.065236 0.541668 0.265855 -0.129103
C3    C     C_R   0.278804 0.786375 0.176885 -0.136224
C4    C     C_R   0.935682 0.521652 0.748123 -0.140734
C5    C     C_R   0.732646 0.461329 0.043722 -0.124447
C6    C     C_R   0.335120 0.783621 0.255605 0.067193
C7    C     C_R   0.708910 0.540762 0.031713 0.072134
C8    C     C_R   0.973106 0.519437 0.276555 0.063029
C9    C     C_R   0.999935 0.816739 0.965806 0.057374
C10   C     C_R   0.522926 0.655169 0.042771 0.161270
C11   C     C_R   0.472175 0.600034 0.082829 0.033846
C12   C     C_R   0.027090 0.582907 0.747217 0.067392
C13   C     C_R   0.528396 0.567059 0.139693 -0.197907
C14   C     C_R   0.618476 0.561755 0.133984 -0.196862
C15   C     C_R   0.650541 0.588788 0.071032 0.037162
C16   C     C_R   0.776138 0.200872 0.812285 -0.132935
C17   C     C_R   0.611465 0.649563 0.036914 0.156775
C18   C     C_3   0.580296 0.645875 0.943717 -0.525721
C19   C     C_3   0.483495 0.652054 0.950011 -0.518500
C20   C     C_R   0.963804 0.562640 0.362793 0.132989
C21   C     C_R   0.035026 0.625476 0.681516 0.128706
C22   C     C_R   0.139575 0.692096 0.608761 -0.223997
C23   C     C_R   0.759531 0.195072 0.725640 0.059862
C24   C     C_R   0.133116 0.680069 0.684872 -0.175604
C25   C     C_R   0.943814 0.598393 0.607300 -0.282480
C26   C     C_R   0.949548 0.603779 0.528879 0.191078
C27   C     C_R   0.048259 0.645992 0.528304 0.188933
C28   C     C_R   0.299931 0.594054 0.001855 -0.143542
C29   C     C_R   0.054415 0.628816 0.445334 -0.279041
C30   C     C_R   0.865335 0.532666 0.364477 -0.173047
C31   C     C_R   0.858288 0.554628 0.447717 -0.226691
C32   C     C_R   0.718226 0.098741 0.638912 0.131244
C33   C     C_R   0.443964 0.857271 0.322218 0.129459
C34   C     C_R   0.359871 0.561258 0.052718 0.072469
C35   C     C_R   0.589458 0.033347 0.395219 -0.222440
C36   C     C_R   0.496921 0.953143 0.320330 -0.176906
C37   C     C_R   0.491647 0.837427 0.394476 -0.280716
C38   C     C_R   0.580209 0.919462 0.471920 0.190699
C39   C     C_R   0.626815 0.019600 0.473664 0.187484
C40   C     C_R   0.782334 0.297694 0.735172 -0.125971
C41   C     C_R   0.700128 0.107640 0.556750 -0.277682
C42   C     C_R   0.681940 0.996899 0.635374 -0.171268
C43   C     C_R   0.614503 0.906978 0.551537 -0.226959
C44   C     C_R   0.090055 0.109814 0.132638 0.165733
C45   C     C_R   0.273298 0.689851 0.253281 -0.138605
C46   C     C_R   0.999528 0.106181 0.075310 0.019880
C47   C     C_R   0.904249 0.021570 0.054677 -0.206490
C48   C     C_R   0.903447 0.949728 0.093774 -0.193447
C49   C     C_R   0.997218 0.959304 0.153627 0.025531
C50   C     C_R   0.088428 0.040291 0.169325 0.178201
C51   C     C_3   0.203472 0.092235 0.223261 -0.490702
C52   C     C_R   0.295957 0.497447 0.078381 -0.121316
C53   C     C_3   0.206245 0.171807 0.182660 -0.541136
C54   C     C_R   0.108863 0.604064 0.824728 -0.130278
C55   C     C_R   0.915627 0.199645 0.996893 -0.137063
C56   C     C_R   0.749320 0.564991 0.973658 -0.145504
C57   C     C_R   0.002004 0.188537 0.042678 0.068567
C58   C     C_R   0.891609 0.448897 0.190179 -0.132567
C59   C     C_R   0.084910 0.803752 0.010770 -0.120613
C60   C     C_R   0.913851 0.719225 0.930871 -0.130338
H1    H     H_    0.167117 0.310433 0.120654 0.096408
H2    H     H_    0.653496 0.523667 0.169093 0.123569
H3    H     H_    0.634012 0.718285 0.944376 0.187133
H4    H     H_    0.856867 0.502881 0.705678 0.085853
H5    H     H_    0.562094 0.568315 0.888148 0.202267
H6    H     H_    0.481451 0.728046 0.954249 0.186891
H7    H     H_    0.411130 0.578058 0.897871 0.204691
H8    H     H_    0.130830 0.657764 0.445800 0.117923
H9    H     H_    0.793684 0.487120 0.301957 0.109929
H10   H     H_    0.215839 0.726973 0.609728 0.126768
H11   H     H_    0.781923 0.524275 0.447584 0.124754
H12   H     H_    0.746406 0.623579 0.950040 0.106992
H13   H     H_    0.205131 0.706057 0.742707 0.114201
H14   H     H_    0.867550 0.560939 0.605059 0.115425
H15   H     H_    0.732303 0.184564 0.557454 0.118703
H16   H     H_    0.765930 0.136216 0.830606 0.093171
H17   H     H_    0.698576 0.986809 0.697250 0.114902
H18   H     H_    0.625599 0.109463 0.395246 0.126863
H19   H     H_    0.580968 0.829897 0.550642 0.124731
H20   H     H_    0.464018 0.969638 0.264321 0.113487
H21   H     H_    0.454834 0.762729 0.395979 0.113914
H22   H     H_    0.830050 0.011167 0.009952 0.124583
H23   H     H_    0.811400 0.405214 0.175433 0.082834
H24   H     H_    0.829792 0.887022 0.077980 0.131634
H25   H     H_    0.226977 0.128976 0.298612 0.196351
H26   H     H_    0.239378 0.039880 0.198577 0.188394
H27   H     H_    0.231717 0.254111 0.235250 0.193000
H28   H     H_    0.326949 0.658730 0.984780 0.098489
H29   H     H_    0.244630 0.166108 0.135106 0.195875
H30   H     H_    0.778101 0.324399 0.682922 0.095136
H31   H     H_    0.320087 0.470069 0.128735 0.082932
H32   H     H_    0.189705 0.660983 0.852879 0.082738
H33   H     H_    0.835069 0.149493 0.978245 0.086403
H34   H     H_    0.166057 0.859934 0.038731 0.088235
H35   H     H_    0.296542 0.652933 0.295479 0.082814
H36   H     H_    0.836363 0.696765 0.882422 0.089713
H37   H     H_    0.144376 0.590916 0.318006 0.093769
H38   H     H_    0.307951 0.839721 0.149409 0.080883
H39   H     H_    0.702490 0.415727 0.076186 0.085270
H40   H     H_    0.496582 0.532210 0.178482 0.123573
N1    N     N_R   0.055640 0.348550 0.045600 -0.040807
N2    N     N_R   0.811290 0.303400 0.871650 -0.041254
N3    N     N_R   0.205180 0.552990 0.997660 -0.038753
N4    N     N_R   0.814810 0.361830 0.823710 -0.042150
N5    N     N_R   0.201660 0.494570 0.045600 -0.039087
N6    N     N_R   0.068420 0.560530 0.871650 -0.037706
N7    N     N_R   0.948050 0.295860 0.997660 -0.039483
N8    N     N_R   0.185190 0.638170 0.176290 -0.037864
N9    N     N_R   0.798340 0.505430 0.954400 -0.040658
N10   N     N_R   0.931580 0.439470 0.128350 -0.037715
N11   N     N_R   0.051950 0.704140 0.002340 -0.039540
N12   N     N_R   0.944360 0.651450 0.954400 -0.039148
N13   N     N_R   0.039170 0.492150 0.176290 -0.040477
N14   N     N_R   0.188710 0.696600 0.128350 -0.036855
N15   N     N_R   0.794820 0.447010 0.002340 -0.040020
N16   N     N_R   0.960830 0.507850 0.823710 -0.038203
Ni1   Ni    Ni4+2 0.119330 0.493420 0.109950 0.206994
Ni2   Ni    Ni4+2 0.880670 0.506580 0.890050 0.209159
Ni3   Ni    Ni4+2 0.872590 0.372590 0.000000 0.213280
Ni4   Ni    Ni4+2 0.127410 0.627410 0.000000 0.206106

loop_
_geom_bond_atom_site_label_1
_geom_bond_atom_site_label_2
_ccdc_geom_bond_type
N1    N7    A    
C6    C45   A    
C27   C29   A    
N3    Ni4   S    
C28   N3    A    
C55   H33   S    
C3    C6    A    
N5    Ni1   S    
C51   H25   S    
C39   C41   A    
C20   C30   A    
C18   H5    S    
C26   C27   A    
C8    C20   S    
C18   C19   S    
C30   C31   A    
C2    N13   A    
C24   H13   S    
C41   H15   S    
C10   C17   A    
C43   H19   S    
C23   C40   A    
C14   H2    S    
C33   C36   A    
C19   H6    S    
C25   H14   S    
C47   H22   S    
N8    N14   A    
C8    C58   A    
C44   C53   S    
C5    H39   S    
C2    H37   S    
C56   H12   S    
C28   H28   S    
C59   N11   A    
C32   C41   A    
C19   H7    S    
C59   H34   S    
C4    C12   A    
C45   N8    A    
C31   H11   S    
C28   C34   A    
C26   C31   A    
C58   N10   A    
C13   C14   A    
C5    N15   A    
C37   H21   S    
C7    C56   A    
C40   H30   S    
C51   H26   S    
N7    Ni3   S    
C44   C46   A    
N9    Ni2   S    
C50   C51   S    
N4    Ni2   S    
C20   C29   A    
C54   N6    A    
N3    N5    A    
C36   H20   S    
C5    C7    A    
C25   C26   A    
C12   C21   S    
C33   C37   A    
C48   H24   S    
C55   N7    A    
N11   Ni4   S    
C9    C59   A    
C35   C36   A    
C35   C39   A    
C54   H32   S    
C37   C38   A    
C60   N12   A    
C1    C57   A    
C40   N4    A    
C29   H8    S    
C47   C48   A    
C10   C19   S    
C17   C18   S    
C53   H27   S    
N2    N4    A    
N10   N13   A    
N13   Ni1   S    
C60   H36   S    
C16   N2    A    
C48   C49   A    
C52   N5    A    
C16   C23   A    
N15   Ni3   S    
C22   C27   A    
C55   C57   A    
C46   C57   S    
C53   H29   S    
C22   C24   A    
C42   C43   A    
C45   H35   S    
C1    N1    A    
C56   N9    A    
C30   H9    S    
C44   C50   A    
C15   C17   A    
C21   C25   A    
C46   C47   A    
N11   N12   A    
N6    Ni4   S    
C16   H16   S    
N8    Ni1   S    
C4    N16   A    
C11   C34   S    
C2    C8    A    
C3    N14   A    
C1    H1    S    
N10   Ni3   S    
C4    H4    S    
C35   H18   S    
C34   C52   A    
C6    C33   S    
C9    C60   A    
N1    Ni1   S    
C23   C32   S    
C13   H40   S    
C38   C43   A    
C58   H23   S    
N12   Ni2   S    
C11   C13   A    
C3    H38   S    
C38   C39   A    
C7    C15   S    
N16   Ni2   S    
C18   H3    S    
C12   C54   A    
C10   C11   A    
N9    N15   A    
C42   H17   S    
C49   C50   A    
C21   C24   A    
N6    N16   A    
C32   C42   A    
C14   C15   A    
C52   H31   S    
C51   C53   S    
C22   H10   S    
N14   Ni4   S    
N2    Ni3   S    
