data_mof_unit_53131.cif
_audit_creation_date              2012-12-11T19:58:12-0500
_audit_creation_method            fapswitch 2.2
_symmetry_space_group_name_H-M    P1
_symmetry_Int_Tables_number       1
_space_group_crystal_system       triclinic
_cell_length_a                    8.24796
_cell_length_b                    16.291649
_cell_length_c                    22.980528
_cell_angle_alpha                 108.703825
_cell_angle_beta                  89.435774
_cell_angle_gamma                 83.650717
_cell_volume                      2903.57098661

loop_
_atom_site_label
_atom_site_type_symbol
_atom_type_description
_atom_site_fract_x
_atom_site_fract_y
_atom_site_fract_z
_atom_type_partial_charge
Ba1   Ba    Ba6+2 0.335320 0.541410 0.478120 1.631305
Ba2   Ba    Ba6+2 0.854470 0.458670 0.521900 1.631225
C1    C     C_3   0.029094 0.858815 0.371936 -0.361246
C2    C     C_R   0.657182 0.544819 0.939946 -0.025413
C3    C     C_R   0.629733 0.535683 0.877558 0.591441
C4    C     C_3   0.532229 0.722646 0.343332 0.327255
C5    C     C_R   0.484337 0.414013 0.867797 0.575911
C6    C     C_R   0.523758 0.415950 0.928294 -0.017288
C7    C     C_R   0.604159 0.484205 0.965403 -0.051798
C8    C     C_R   0.738505 0.612931 0.977294 -0.080841
C9    C     C_R   0.762074 0.621767 0.039131 -0.074610
C10   C     C_R   0.713473 0.559950 0.064749 -0.017404
C11   C     C_R   0.638673 0.489555 0.027175 -0.052275
C12   C     C_3   0.039232 0.769242 0.379765 0.355486
C13   C     C_R   0.484390 0.351002 0.952642 -0.076722
C14   C     C_R   0.523733 0.354419 0.012549 -0.077187
C15   C     C_R   0.600393 0.423978 0.050803 -0.024893
C16   C     C_3   0.507866 0.745375 0.284620 -0.336858
C17   C     C_R   0.643064 0.428217 0.111406 0.592676
C18   C     C_R   0.738990 0.567096 0.126935 0.573176
C19   C     C_2   0.313365 0.452761 0.763489 -0.126841
C20   C     C_3   0.245131 0.468335 0.706359 -0.032595
C21   C     C_1   0.490872 0.526070 0.691255 0.038828
C22   C     C_2   0.512342 0.547337 0.752260 0.060752
C23   C     C_3   0.059567 0.334386 0.326035 0.292757
C24   C     C_2   0.452140 0.488403 0.786467 0.169965
C25   C     C_R   0.894718 0.540980 0.238253 -0.099317
C26   C     C_R   0.930032 0.552616 0.299700 -0.018180
C27   C     C_R   0.695728 0.482293 0.312713 0.036759
C28   C     C_3   0.611689 0.724571 0.626397 0.312070
C29   C     C_R   0.652633 0.475592 0.251950 -0.103961
C30   C     C_R   0.751132 0.505735 0.213420 0.188744
C31   C     C_2   0.381470 0.474471 0.664817 -0.295259
C32   C     C_2   0.408986 0.238020 0.480351 -0.293233
C33   C     C_R   0.805599 0.751671 0.509945 -0.312395
C34   C     C_3   0.047733 0.310017 0.256674 -0.363077
C35   C     C_2   0.252073 0.121979 0.422062 -0.122319
C36   C     C_2   0.270319 0.206953 0.442858 0.037152
C37   C     C_2   0.533907 0.182453 0.487688 0.032505
C38   C     C_3   0.537491 0.085198 0.454134 -0.041794
C39   C     C_3   0.365953 0.056517 0.439734 0.006431
C40   C     C_3   0.589025 0.823419 0.655534 -0.398154
C41   C     C_2   0.644997 0.027635 0.481787 -0.074726
C42   C     C_2   0.591523 0.963916 0.499549 -0.082698
C43   C     C_R   0.834440 0.929528 0.554049 0.010719
C44   C     C_R   0.705858 0.900333 0.516678 -0.053777
C45   C     C_3   0.691129 0.281644 0.656085 0.324138
C46   C     C_R   0.944820 0.871468 0.571768 -0.011959
C47   C     C_R   0.933420 0.780944 0.547726 0.075665
C48   C     C_R   0.685694 0.811052 0.497744 0.002272
C49   C     C_3   0.573974 0.270553 0.363358 0.311020
C50   C     C_3   0.586805 0.173599 0.327265 -0.380303
C51   C     C_3   0.115774 0.657804 0.672351 0.304811
C52   C     C_3   0.063667 0.680569 0.740006 -0.369518
C53   C     C_3   0.635858 0.191992 0.726924 -0.382184
C54   C     C_3   0.321641 0.220472 0.613174 -0.315665
C55   C     C_3   0.494600 0.644442 0.787212 -0.298142
C56   C     C_3   0.726873 0.263320 0.716704 -0.203186
C57   C     C_3   0.062415 0.908845 0.620028 -0.370453
C58   C     C_3   0.138572 0.229046 0.624361 0.341796
C59   C     C_3   0.096463 0.143154 0.631067 -0.385836
C60   C     C_R   0.829518 0.524509 0.336590 -0.301986
H1    H     H_    0.108903 0.771421 0.421272 0.088015
H2    H     H_    0.250570 0.646794 0.666848 -0.007224
H3    H     H_    0.063785 0.597392 0.646366 0.071514
H4    H     H_    0.153590 0.875224 0.365237 0.143779
H5    H     H_    0.108180 0.742808 0.767173 0.115467
H6    H     H_    0.113995 0.628926 0.758689 0.067899
H7    H     H_    0.928284 0.688135 0.745391 0.139009
H8    H     H_    0.913012 0.755148 0.386600 -0.054939
H9    H     H_    0.968539 0.908783 0.413666 0.064660
H10   H     H_    0.934997 0.355310 0.347929 0.022766
H11   H     H_    0.135130 0.389051 0.341804 0.060085
H12   H     H_    0.680226 0.843739 0.690997 0.122637
H13   H     H_    0.969155 0.256845 0.239966 0.140142
H14   H     H_    0.994060 0.367113 0.244221 0.064574
H15   H     H_    0.171321 0.287711 0.233729 0.130303
H16   H     H_    0.957085 0.859621 0.331499 0.122447
H17   H     H_    0.552035 0.687826 0.244431 0.122199
H18   H     H_    0.779245 0.324729 0.650173 0.107688
H19   H     H_    0.567561 0.317655 0.660576 -0.017463
H20   H     H_    0.694802 0.324697 0.755563 0.120621
H21   H     H_    0.858846 0.244580 0.718945 0.143049
H22   H     H_    0.075792 0.237680 0.583954 0.108343
H23   H     H_    0.604409 0.855378 0.620404 0.062540
H24   H     H_    0.147940 0.086900 0.590885 0.084882
H25   H     H_    0.963522 0.140986 0.632379 0.152554
H26   H     H_    0.474192 0.662707 0.338681 0.094568
H27   H     H_    0.146116 0.134345 0.673742 0.123048
H28   H     H_    0.492275 0.302662 0.029033 0.121570
H29   H     H_    0.423401 0.296912 0.925326 0.120417
H30   H     H_    0.821845 0.676328 0.066508 0.121605
H31   H     H_    0.980279 0.559410 0.210095 0.125625
H32   H     H_    0.780388 0.661095 0.959226 0.115094
H33   H     H_    0.239746 0.421972 0.787645 0.154322
H34   H     H_    0.464128 0.845616 0.677337 0.124631
H35   H     H_    0.543397 0.446586 0.235242 0.144956
H36   H     H_    0.861157 0.531073 0.383318 0.081011
H37   H     H_    0.665432 0.709802 0.348689 -0.043100
H38   H     H_    0.403060 0.428763 0.618526 0.074059
H39   H     H_    0.150498 0.099691 0.393969 0.077460
H40   H     H_    0.408754 0.307854 0.501879 0.069756
H41   H     H_    0.792509 0.682736 0.493923 0.073019
H42   H     H_    0.774529 0.034279 0.482398 0.101678
H43   H     H_    0.463721 0.954091 0.497131 0.110062
H44   H     H_    0.376282 0.764131 0.279976 0.147645
H45   H     H_    0.446038 0.294801 0.379837 0.004956
H46   H     H_    0.576860 0.800480 0.285355 0.121343
H47   H     H_    0.739236 0.702229 0.608815 0.002465
H48   H     H_    0.528066 0.706527 0.588074 0.079134
H49   H     H_    0.650233 0.132268 0.685914 0.149573
H50   H     H_    0.686528 0.174469 0.766549 0.128139
H51   H     H_    0.504781 0.215729 0.738479 0.171730
H52   H     H_    0.354621 0.277254 0.601351 0.042786
H53   H     H_    0.381672 0.217759 0.655131 0.125982
H54   H     H_    0.364482 0.159438 0.575567 0.078009
H55   H     H_    0.404660 0.680985 0.766230 0.072910
H56   H     H_    0.654604 0.280716 0.402849 0.050326
H57   H     H_    0.448771 0.658937 0.835464 0.114577
H58   H     H_    0.613941 0.669820 0.786750 0.161092
H59   H     H_    0.046571 0.981063 0.634699 0.097700
H60   H     H_    0.038828 0.890351 0.661467 0.125303
H61   H     H_    0.190340 0.885526 0.602737 0.158530
H62   H     H_    0.509239 0.162866 0.286869 0.138778
H63   H     H_    0.545356 0.136611 0.356055 0.061851
H64   H     H_    0.715608 0.148246 0.311099 0.122077
N1    N     N_R   0.522011 0.479616 0.844401 -0.418100
N2    N     N_R   0.708832 0.500415 0.150055 -0.421436
O1    O     O_2   0.414630 0.451750 0.353890 -0.462328
O2    O     O_2   0.869240 0.192893 0.503729 -0.499070
O3    O     O_3   0.705814 0.204230 0.605202 -0.627342
O4    O     O_3   0.654720 0.452660 0.425060 -0.493318
O5    O     O_3   0.021450 0.605740 0.544090 -0.491162
O6    O     O_2   0.953100 0.285520 0.441860 -0.454517
O7    O     O_3   0.131470 0.261137 0.339656 -0.641636
O8    O     O_2   0.918414 0.448720 0.698060 -0.474236
O9    O     O_3   0.089606 0.298645 0.678916 -0.610245
O10   O     O_2   0.707571 0.575504 0.852675 -0.602271
O11   O     O_2   0.421505 0.351796 0.835602 -0.622351
O12   O     O_3   0.058857 0.729163 0.653771 -0.639308
O13   O     O_2   0.624582 0.366458 0.128938 -0.600446
O14   O     O_2   0.786727 0.633675 0.160563 -0.612144
O15   O     O_3   0.116150 0.611500 0.411510 -0.489867
O16   O     O_2   0.268860 0.548226 0.300301 -0.495019
O17   O     O_3   0.622806 0.312811 0.323479 -0.628294
O18   O     O_3   0.119052 0.706508 0.327309 -0.594207
O19   O     O_2   0.236590 0.714510 0.558180 -0.464702
O20   O     O_3   0.511480 0.656670 0.446630 -0.490635
O21   O     O_2   0.347315 0.811089 0.503704 -0.501150
O22   O     O_3   0.458827 0.792320 0.393265 -0.599899
O23   O     O_2   0.775060 0.548280 0.646150 -0.456994
O24   O     O_3   0.534950 0.547420 0.574950 -0.493360
O25   O     O_3   0.073530 0.388570 0.588510 -0.484459
O26   O     O_3   0.576803 0.688216 0.671714 -0.639955
O27   O     O_3   0.168220 0.394330 0.455930 -0.479910
O28   O     O_3   0.678190 0.343400 0.553390 -0.496934
P1    P     P_3+3 0.594550 0.425840 0.359090 0.995589
P2    P     P_3+3 0.065650 0.701630 0.573510 0.982522
P3    P     P_3+3 0.500690 0.768757 0.461066 0.932163
P4    P     P_3+3 0.595130 0.574230 0.640920 0.990703
P5    P     P_3+3 0.699284 0.230012 0.536345 0.926938
P6    P     P_3+3 0.109813 0.602913 0.333767 0.954601
P7    P     P_3+3 0.133531 0.285726 0.419500 0.950225
P8    P     P_3+3 0.084894 0.400618 0.667071 0.941551

loop_
_geom_bond_atom_site_label_1
_geom_bond_atom_site_label_2
_ccdc_geom_bond_type
C57   H59   S    
C35   H39   S    
C19   C24   D    
O24   P4    S    
C14   H28   S    
Ba2   O27   S    
C53   H50   S    
C51   O12   S    
C58   H22   S    
Ba1   O4    S    
O1    P1    D    
C26   P6    S    
C3    O10   D    
C43   C44   A    
O18   P6    S    
Ba2   O6    S    
C28   H48   S    
C40   H34   S    
Ba1   P2    S    
C22   C24   S    
C18   N2    Am   
C33   H41   S    
C34   H15   S    
C56   H20   S    
C49   O17   S    
C51   H2    S    
C52   H6    S    
C8    H32   S    
C13   C14   A    
C17   N2    Am   
C49   H56   S    
C4    H26   S    
O6    P7    D    
Ba1   O24   S    
Ba1   Ba2   S    
Ba1   O27   S    
C7    C11   A    
C41   H42   S    
C59   H25   S    
O12   P2    S    
C60   H36   S    
C9    H30   S    
C38   C41   S    
C59   H27   S    
C16   H17   S    
C21   C31   D    
C34   H14   S    
C33   C47   A    
Ba2   O4    S    
C21   C22   D    
C37   P5    S    
C51   H3    S    
O15   P6    S    
C58   O9    S    
C55   H57   S    
C53   H49   S    
C57   H60   S    
C29   H35   S    
C17   O13   D    
C19   C20   S    
C57   H61   S    
C12   H8    S    
C10   C18   A    
C45   H18   S    
Ba1   O5    S    
C42   C44   S    
Ba2   O24   S    
C4    C16   S    
C40   H12   S    
Ba2   O5    S    
O22   P3    S    
C28   H47   S    
C32   C37   D    
C18   O14   D    
C5    C6    A    
C8    C9    A    
C37   C38   S    
C40   H23   S    
C50   H64   S    
C14   C15   A    
C54   H54   S    
C27   P1    S    
C52   H5    S    
C53   H51   S    
O27   P7    S    
C42   H43   S    
C49   C50   S    
C45   O3    S    
C58   C59   S    
O20   P3    S    
O19   P2    D    
C1    H9    S    
C41   C42   D    
C16   H44   S    
O26   P4    S    
C35   C36   D    
Ba1   O15   S    
C34   H13   S    
C20   P8    S    
C29   C30   A    
C28   O26   S    
C9    C10   A    
C21   P4    S    
C3    N1    Am   
C33   C48   A    
C6    C7    A    
C23   H10   S    
C32   H40   S    
O21   P3    D    
C1    C12   S    
C55   H58   S    
O2    P5    D    
C49   H45   S    
C36   P7    S    
O28   P5    S    
C6    C13   A    
C47   P2    S    
C25   H31   S    
C1    H4    S    
C2    C8    A    
O25   P8    S    
C46   C57   S    
C55   H55   S    
O8    P8    D    
C43   C46   A    
Ba2   O23   S    
C20   C31   S    
C44   C48   A    
C27   C60   A    
C46   C47   A    
Ba2   O28   S    
O16   P6    D    
C25   C30   A    
C32   C36   S    
O7    P7    S    
C22   C55   S    
O9    P8    S    
C50   H63   S    
C51   C52   S    
C48   P3    S    
Ba2   O25   S    
C19   H33   S    
O17   P1    S    
C12   O18   S    
Ba1   O1    S    
O4    P1    S    
C11   C15   A    
C31   H38   S    
C4    H37   S    
C30   N2    S    
Ba1   P1    S    
C27   C29   A    
C56   H21   S    
O23   P4    D    
C45   C56   S    
C5    O11   D    
C50   H62   S    
C53   C56   S    
C52   H7    S    
C12   H1    S    
C15   C17   A    
C54   H53   S    
C23   H11   S    
C24   N1    S    
C45   H19   S    
C35   C39   S    
O5    P2    S    
C16   H46   S    
Ba1   O19   S    
C59   H24   S    
C23   C34   S    
C13   H29   S    
C4    O22   S    
C54   H52   S    
C2    C3    A    
C54   C58   S    
C10   C11   A    
Ba2   P4    S    
C23   O7    S    
C25   C26   A    
O3    P5    S    
C28   C40   S    
Ba1   O20   S    
C38   C39   S    
C5    N1    Am   
C2    C7    A    
C1    H16   S    
C26   C60   A    
