data_mof_unit_7337.cif
_audit_creation_date              2012-12-10T20:36:42-0500
_audit_creation_method            fapswitch 2.2
_symmetry_space_group_name_H-M    P1
_symmetry_Int_Tables_number       1
_space_group_crystal_system       triclinic
_cell_length_a                    10.499676
_cell_length_b                    10.673434
_cell_length_c                    9.872753
_cell_angle_alpha                 89.968246
_cell_angle_beta                  89.414493
_cell_angle_gamma                 90.064816
_cell_volume                      1106.35706717

loop_
_atom_site_label
_atom_site_type_symbol
_atom_type_description
_atom_site_fract_x
_atom_site_fract_y
_atom_site_fract_z
_atom_type_partial_charge
C1    C     C_R   0.503851 0.259975 0.500034 0.873843
C2    C     C_3   0.961522 0.498537 0.370141 -0.141135
C3    C     C_3   0.043183 0.396245 0.437454 -0.185744
C4    C     C_3   0.122228 0.500148 0.501804 0.029184
C5    C     C_R   0.521489 0.063786 0.622953 0.138254
C6    C     C_R   0.524101 0.128590 0.500589 -0.105148
C7    C     C_R   0.551172 0.064912 0.379431 -0.233248
C8    C     C_R   0.551414 0.935324 0.379404 -0.233357
C9    C     C_R   0.524531 0.871386 0.500525 -0.103782
C10   C     C_R   0.521795 0.936007 0.622936 0.123834
C11   C     C_3   0.428654 0.928446 0.738249 -0.476854
C12   C     C_R   0.257288 0.500056 0.500670 0.864360
C13   C     C_3   0.428112 0.070454 0.738078 -0.494156
C14   C     C_R   0.439960 0.406631 0.071972 0.218736
C15   C     C_R   0.568711 0.585620 0.071142 -0.139536
C16   C     C_R   0.568686 0.585660 0.927202 -0.135208
C17   C     C_R   0.439818 0.406727 0.929471 0.218841
C18   C     C_3   0.301341 0.376023 0.925935 -0.523116
C19   C     C_3   0.301779 0.375156 0.079671 -0.512445
C20   C     C_R   0.504098 0.740002 0.499939 0.873773
C21   C     C_R   0.742697 0.499984 0.499259 0.855515
C22   C     C_3   0.038311 0.501573 0.629238 -0.138086
C23   C     C_3   0.956634 0.397630 0.564829 -0.175259
C24   C     C_3   0.877714 0.499934 0.497723 0.037414
C25   C     C_3   0.956745 0.603848 0.561908 -0.181763
C26   C     C_3   0.043305 0.602443 0.434569 -0.183753
H1    H     H_    0.916547 0.314312 0.617538 0.131522
H2    H     H_    0.471849 0.887623 0.830648 0.201034
H3    H     H_    0.335150 0.111218 0.707956 0.196367
H4    H     H_    0.470742 0.111783 0.830513 0.202745
H5    H     H_    0.622245 0.656247 0.124779 0.140597
H6    H     H_    0.622171 0.656336 0.872330 0.143985
H7    H     H_    0.243744 0.453462 0.883208 0.213229
H8    H     H_    0.282979 0.282312 0.881327 0.197150
H9    H     H_    0.243473 0.451430 0.125316 0.222724
H10   H     H_    0.284937 0.280662 0.123772 0.197135
H11   H     H_    0.072455 0.503317 0.735110 0.132240
H12   H     H_    0.916690 0.688272 0.612259 0.128230
H13   H     H_    0.083461 0.685736 0.381880 0.132028
H14   H     H_    0.926200 0.497292 0.264523 0.141300
H15   H     H_    0.083335 0.311911 0.387003 0.130222
H16   H     H_    0.563293 0.114074 0.284122 0.169991
H17   H     H_    0.335944 0.886621 0.708607 0.202253
N1    N     N_R   0.499140 0.499140 0.142800 -0.105752
N2    N     N_R   0.499140 0.499180 0.857150 -0.105203
O1    O     O_R   0.500020 0.316790 0.614690 -0.615267
O2    O     O_R   0.500000 0.316760 0.385350 -0.623600
O3    O     O_R   0.313960 0.499990 0.614650 -0.626328
O4    O     O_R   0.313940 0.499950 0.385310 -0.620201
O5    O     O_R   0.500000 0.683240 0.614650 -0.620333
O6    O     O_R   0.499980 0.683210 0.385310 -0.625254
O7    O     O_R   0.686060 0.500050 0.614690 -0.621924
O8    O     O_R   0.686040 0.500010 0.385350 -0.628377
Zn1   Zn    Zn3+2 0.500010 0.500020 0.653130 0.937256
Zn2   Zn    Zn3+2 0.499990 0.499980 0.346870 0.935260
H18   H     H_    0.563685 0.886324 0.284093 0.165806

loop_
_geom_bond_atom_site_label_1
_geom_bond_atom_site_label_2
_ccdc_geom_bond_type
C16   N2    A    
O3    Zn1   S    
C4    C26   S    
C23   C24   S    
C15   H5    S    
C6    C7    A    
C23   H1    S    
C25   H12   S    
C16   H6    S    
C4    C22   S    
C9    C10   A    
C9    C20   S    
O6    Zn2   S    
C14   C17   A    
C12   O3    A    
C5    C13   S    
O1    Zn1   S    
C12   O4    A    
O2    Zn2   S    
C7    C8    A    
C2    C26   S    
C19   H9    S    
C21   O8    A    
C11   C13   S    
N1    Zn2   S    
C8    H18   S    
O5    Zn1   S    
C11   H2    S    
C18   H8    S    
C5    C6    A    
C14   C19   S    
C13   H3    S    
C17   N2    A    
N2    Zn1   S    
C17   C18   S    
C20   O6    A    
C2    C3    S    
C19   H10   S    
O8    Zn2   S    
C2    C24   S    
C15   N1    A    
C26   H13   S    
C18   H7    S    
C1    O1    A    
C7    H16   S    
C4    C12   S    
C10   C11   S    
C15   C16   A    
C2    H14   S    
C13   H4    S    
C5    C10   A    
C24   C25   S    
C14   N1    A    
C18   C19   S    
C21   C24   S    
C22   C23   S    
C1    O2    A    
C20   O5    A    
C25   C26   S    
O4    Zn2   S    
C22   H11   S    
C3    C23   S    
C11   H17   S    
C21   O7    A    
C3    H15   S    
C3    C4    S    
C1    C6    S    
O7    Zn1   S    
C8    C9    A    
C22   C25   S    
