data_mof_unit_38039.cif
_audit_creation_date              2012-12-10T20:11:11-0500
_audit_creation_method            fapswitch 2.2
_symmetry_space_group_name_H-M    P1
_symmetry_Int_Tables_number       1
_space_group_crystal_system       triclinic
_cell_length_a                    15.875604
_cell_length_b                    15.882773
_cell_length_c                    51.56172
_cell_angle_alpha                 89.992576
_cell_angle_beta                  90.018743
_cell_angle_gamma                 89.989921
_cell_volume                      13001.2152568

loop_
_atom_site_label
_atom_site_type_symbol
_atom_type_description
_atom_site_fract_x
_atom_site_fract_y
_atom_site_fract_z
_atom_type_partial_charge
C1    C     C_R   0.929588 0.530218 0.636923 0.291991
C2    C     C_R   0.423331 0.002660 0.863478 0.280911
C3    C     C_1   0.276723 0.223496 0.249949 -0.157990
C4    C     C_1   0.223302 0.723504 0.749963 -0.154564
C5    C     C_1   0.776560 0.276669 0.250007 -0.148288
C6    C     C_1   0.276495 0.223298 0.749963 -0.154516
C7    C     C_1   0.723232 0.776458 0.249923 -0.158881
C8    C     C_1   0.776445 0.723242 0.249924 -0.150323
C9    C     C_1   0.223281 0.276510 0.749960 -0.158937
C10   C     C_1   0.723363 0.223442 0.250007 -0.150310
C11   C     C_1   0.276499 0.776727 0.749965 -0.158592
C12   C     C_1   0.223526 0.276723 0.249959 -0.152374
C13   C     C_R   0.960053 0.434641 0.137214 0.307011
C14   C     C_1   0.776708 0.723481 0.749958 -0.159227
C15   C     C_1   0.276689 0.776501 0.249966 -0.154565
C16   C     C_1   0.723500 0.223274 0.749970 -0.158820
C17   C     C_R   0.518711 0.071809 0.945463 0.739789
C18   C     C_R   0.485525 0.924752 0.055066 0.739438
C19   C     C_R   0.928474 0.520486 0.945483 0.738952
C20   C     C_R   0.073109 0.479914 0.055209 0.742414
C21   C     C_R   0.482022 0.926396 0.945339 0.729521
C22   C     C_R   0.516691 0.071418 0.055158 0.726324
C23   C     C_R   0.072433 0.478205 0.945451 0.730211
C24   C     C_R   0.994514 0.423207 0.863465 0.279406
C25   C     C_R   0.928217 0.518852 0.055209 0.723488
C26   C     C_R   0.017197 0.573760 0.445386 0.742554
C27   C     C_R   0.987317 0.426281 0.555021 0.740421
C28   C     C_R   0.429117 0.028142 0.445447 0.731353
C29   C     C_R   0.570609 0.976852 0.555092 0.734321
C30   C     C_R   0.985171 0.427207 0.445316 0.727354
C31   C     C_R   0.014656 0.573701 0.555080 0.726916
C32   C     C_R   0.568478 0.972692 0.445396 0.732080
C33   C     C_R   0.427957 0.023232 0.555165 0.720593
C34   C     C_R   0.486535 0.922579 0.972741 -0.190457
C35   C     C_R   0.569458 0.965227 0.137168 0.300215
C36   C     C_R   0.522328 0.072701 0.027771 -0.192464
C37   C     C_R   0.076110 0.482116 0.972868 -0.192453
C38   C     C_R   0.927206 0.524074 0.027803 -0.190867
C39   C     C_R   0.514548 0.075005 0.972867 -0.175955
C40   C     C_R   0.479637 0.923884 0.027676 -0.185439
C41   C     C_R   0.924929 0.516272 0.972884 -0.174379
C42   C     C_R   0.073932 0.474359 0.027806 -0.187804
C43   C     C_R   0.989314 0.423780 0.472723 -0.187699
C44   C     C_R   0.020547 0.574933 0.527705 -0.192130
C45   C     C_R   0.572817 0.977118 0.472784 -0.172608
C46   C     C_R   0.577232 0.997004 0.863436 0.289998
C47   C     C_R   0.427355 0.029394 0.527773 -0.184533
C48   C     C_R   0.013050 0.576893 0.472793 -0.185306
C49   C     C_R   0.981645 0.425239 0.527637 -0.186615
C50   C     C_R   0.424971 0.023405 0.472836 -0.171273
C51   C     C_R   0.570826 0.970754 0.527706 -0.172262
C52   C     C_3   0.872569 0.648069 0.654848 0.149607
C53   C     C_3   0.794419 0.683044 0.668389 -0.263257
C54   C     C_3   0.805526 0.775551 0.675611 -0.960743
C55   C     C_3   0.826738 0.403138 0.347804 0.179443
C56   C     C_3   0.742634 0.396007 0.333520 -0.329467
C57   C     C_R   0.038070 0.566992 0.137141 0.289277
C58   C     C_3   0.717335 0.304256 0.329383 -0.863951
C59   C     C_3   0.343267 0.884103 0.655562 0.148849
C60   C     C_3   0.303112 0.808720 0.669215 -0.265472
C61   C     C_3   0.212144 0.826857 0.676956 -0.964066
C62   C     C_3   0.437310 0.190483 0.348105 0.190504
C63   C     C_3   0.445903 0.271123 0.332146 -0.343607
C64   C     C_3   0.361041 0.314905 0.328650 -0.867574
C65   C     C_3   0.126051 0.351043 0.655431 0.126871
C66   C     C_3   0.204842 0.314782 0.668299 -0.268487
C67   C     C_3   0.192620 0.222677 0.675833 -0.963600
C68   C     C_R   0.005773 0.576707 0.863505 0.289954
C69   C     C_3   0.171513 0.599259 0.346900 0.166576
C70   C     C_3   0.253744 0.607430 0.331687 -0.334670
C71   C     C_3   0.274632 0.699369 0.325924 -0.895155
C72   C     C_3   0.656042 0.116142 0.656073 0.139164
C73   C     C_3   0.695985 0.192002 0.669538 -0.258163
C74   C     C_3   0.786396 0.173679 0.677857 -0.971206
C75   C     C_3   0.567752 0.813274 0.348536 0.204821
C76   C     C_3   0.565064 0.732559 0.332370 -0.365006
C77   C     C_3   0.516486 0.662419 0.346019 -0.703304
C78   C     C_3   0.376754 0.150699 0.154741 0.149531
C79   C     C_R   0.500732 0.998641 0.986521 -0.081885
C80   C     C_3   0.299705 0.187898 0.168318 -0.263701
C81   C     C_3   0.313348 0.280149 0.175435 -0.962854
C82   C     C_3   0.316742 0.921217 0.847927 0.187636
C83   C     C_3   0.234150 0.922958 0.832682 -0.335877
C84   C     C_3   0.198343 0.834563 0.828970 -0.865658
C85   C     C_3   0.828818 0.388593 0.149488 0.202766
C86   C     C_3   0.799409 0.440343 0.172894 -0.435392
C87   C     C_3   0.703674 0.448474 0.173514 -0.913885
C88   C     C_3   0.071997 0.313577 0.848030 0.189786
C89   C     C_3   0.067415 0.231662 0.832531 -0.338006
C90   C     C_R   0.500927 0.998395 0.013996 -0.077671
C91   C     C_3   0.154459 0.192434 0.828987 -0.867180
C92   C     C_3   0.619208 0.844905 0.155617 0.121321
C93   C     C_3   0.696730 0.804494 0.168053 -0.268750
C94   C     C_3   0.680820 0.712477 0.175069 -0.968607
C95   C     C_3   0.683784 0.077602 0.847505 0.181564
C96   C     C_3   0.765827 0.075239 0.832003 -0.324204
C97   C     C_3   0.801693 0.163443 0.827936 -0.876675
C98   C     C_3   0.160285 0.610138 0.156007 0.123736
C99   C     C_3   0.203741 0.684898 0.169008 -0.271302
C100  C     C_3   0.293694 0.663347 0.177058 -0.971962
C101  C     C_R   0.000553 0.499251 0.986596 -0.081883
C102  C     C_3   0.929064 0.686454 0.847814 0.182519
C103  C     C_3   0.934175 0.768149 0.832213 -0.326110
C104  C     C_3   0.847306 0.807544 0.828428 -0.875192
C105  C     C_R   0.923597 0.495631 0.363472 0.284482
C106  C     C_R   0.000568 0.499230 0.014080 -0.078464
C107  C     C_R   0.001174 0.500268 0.486467 -0.077861
C108  C     C_R   0.001132 0.500142 0.513944 -0.080068
C109  C     C_R   0.498963 0.000287 0.486540 -0.078953
C110  C     C_R   0.499069 0.000209 0.514013 -0.077038
C111  C     C_R   0.473807 0.846482 0.986791 0.343442
C112  C     C_R   0.545149 0.146322 0.013761 0.346484
C113  C     C_R   0.151461 0.466025 0.986984 0.344242
C114  C     C_R   0.854648 0.549885 0.013711 0.339720
C115  C     C_R   0.527054 0.150875 0.987028 0.343164
C116  C     C_R   0.464330 0.931984 0.637078 0.291494
C117  C     C_R   0.456284 0.850604 0.013574 0.339240
C118  C     C_R   0.849519 0.531745 0.986993 0.346454
C119  C     C_R   0.146279 0.448057 0.013722 0.347293
C120  C     C_R   0.978468 0.347537 0.486823 0.330695
C121  C     C_R   0.041934 0.648862 0.513691 0.351963
C122  C     C_R   0.647018 0.955969 0.486809 0.281750
C123  C     C_R   0.356609 0.060258 0.513737 0.301561
C124  C     C_R   0.023808 0.653000 0.486959 0.330522
C125  C     C_R   0.960296 0.351430 0.513553 0.343235
C126  C     C_R   0.350719 0.043879 0.486909 0.281851
C127  C     C_R   0.508700 0.076668 0.363423 0.278373
C128  C     C_R   0.641167 0.939382 0.513618 0.312290
C129  C     C_R   0.927690 0.525661 0.609605 0.344830
C130  C     C_R   0.923576 0.502591 0.390768 0.350423
C131  C     C_R   0.467890 0.929808 0.609748 0.348973
C132  C     C_R   0.515020 0.075903 0.390752 0.349362
C133  C     C_R   0.073220 0.473896 0.609741 0.306823
C134  C     C_R   0.077768 0.498981 0.390634 0.327113
C135  C     C_R   0.531690 0.070518 0.609729 0.264715
C136  C     C_R   0.483174 0.925089 0.390784 0.354610
C137  C     C_R   0.428433 0.026119 0.109612 0.344048
C138  C     C_R   0.070730 0.469000 0.637042 0.297275
C139  C     C_R   0.423750 0.008866 0.890802 0.349928
C140  C     C_R   0.966617 0.430550 0.109916 0.320622
C141  C     C_R   0.988174 0.423663 0.890792 0.350678
C142  C     C_R   0.572256 0.969759 0.109864 0.303911
C143  C     C_R   0.576955 0.990395 0.890765 0.265163
C144  C     C_R   0.033570 0.569638 0.109831 0.304456
C145  C     C_R   0.012394 0.575968 0.890844 0.263155
C146  C     C_R   0.000608 0.499851 0.595977 -0.093795
C147  C     C_R   0.000823 0.500746 0.404415 -0.095455
C148  C     C_R   0.499719 0.000172 0.596056 -0.081397
C149  C     C_R   0.077144 0.505730 0.363351 0.288422
C150  C     C_R   0.498721 0.000596 0.404475 -0.097401
C151  C     C_R   0.500589 0.997938 0.096035 -0.093631
C152  C     C_R   0.500402 0.999595 0.904461 -0.077810
C153  C     C_R   0.000691 0.499707 0.096150 -0.086692
C154  C     C_R   0.000279 0.499762 0.904505 -0.076996
C155  C     C_R   0.999984 0.500000 0.820391 0.908136
C156  C     C_R   0.000021 0.500076 0.179774 0.883655
C157  C     C_R   0.500038 0.000017 0.820387 0.905614
C158  C     C_R   0.499980 0.999727 0.179742 0.880979
C159  C     C_R   0.500082 0.000018 0.320384 0.917245
C160  C     C_R   0.535783 0.068229 0.637070 0.298751
C161  C     C_R   0.500027 0.000007 0.679750 0.878737
C162  C     C_R   0.000034 0.500080 0.320369 0.900738
C163  C     C_R   0.999995 0.499947 0.679727 0.880300
C164  C     C_R   0.839745 0.660355 0.749973 0.849026
C165  C     C_R   0.160373 0.339751 0.249980 0.851270
C166  C     C_R   0.339635 0.839757 0.749979 0.848369
C167  C     C_R   0.660305 0.160313 0.250002 0.856698
C168  C     C_R   0.160245 0.339638 0.749975 0.848716
C169  C     C_R   0.839610 0.660224 0.249962 0.853321
C170  C     C_R   0.660371 0.160246 0.749981 0.848349
C171  C     C_R   0.491056 0.923865 0.363514 0.281007
C172  C     C_R   0.339720 0.839649 0.249983 0.855600
C173  C     C_R   0.839673 0.339721 0.249999 0.842055
C174  C     C_R   0.160266 0.660355 0.749981 0.855127
C175  C     C_R   0.339752 0.160362 0.249970 0.849642
C176  C     C_R   0.660366 0.839744 0.749984 0.854301
C177  C     C_R   0.160367 0.660251 0.249983 0.847072
C178  C     C_R   0.839725 0.339645 0.749980 0.854827
C179  C     C_R   0.660220 0.839614 0.249961 0.847083
C180  C     C_R   0.339642 0.160260 0.749981 0.854087
C181  C     C_R   0.000061 0.499660 0.650833 -0.355908
C182  C     C_R   0.430451 0.031120 0.136919 0.291226
C183  C     C_R   0.000232 0.500448 0.349427 -0.359634
C184  C     C_R   0.500186 0.000020 0.650884 -0.350526
C185  C     C_R   0.499936 0.000167 0.349472 -0.361395
C186  C     C_R   0.499964 0.998723 0.150876 -0.355202
C187  C     C_R   0.500200 0.000035 0.849476 -0.349803
C188  C     C_R   0.999720 0.500381 0.150957 -0.340013
C189  C     C_R   0.999957 0.499992 0.849497 -0.348924
C190  C     C_1   0.776689 0.276502 0.749965 -0.154952
C191  C     C_1   0.223501 0.723273 0.249970 -0.158563
C192  C     C_1   0.723512 0.776708 0.749968 -0.155167
H1    H     H_    0.534299 0.622685 0.986173 0.396351
H2    H     H_    0.210960 0.805295 0.513677 0.376645
H3    H     H_    0.243329 0.794839 0.817896 0.259697
H4    H     H_    0.138333 0.838248 0.817954 0.261187
H5    H     H_    0.185564 0.804804 0.848067 0.307964
H6    H     H_    0.796459 0.326593 0.149913 0.199368
H7    H     H_    0.808505 0.420134 0.131179 0.171126
H8    H     H_    0.820961 0.409622 0.191085 0.242742
H9    H     H_    0.826926 0.504528 0.171899 0.210822
H10   H     H_    0.680735 0.480046 0.155627 0.286280
H11   H     H_    0.684666 0.486877 0.190532 0.262455
H12   H     H_    0.674001 0.385365 0.175162 0.269375
H13   H     H_    0.805182 0.040376 0.503633 0.369533
H14   H     H_    0.098903 0.299592 0.867499 0.196681
H15   H     H_    0.114717 0.358159 0.837738 0.120232
H16   H     H_    0.025989 0.186191 0.842825 0.249172
H17   H     H_    0.039612 0.244552 0.813139 0.246070
H18   H     H_    0.196293 0.236038 0.818130 0.261417
H19   H     H_    0.148720 0.132912 0.817826 0.261371
H20   H     H_    0.183126 0.178014 0.848137 0.306237
H21   H     H_    0.604151 0.810276 0.137395 0.147386
H22   H     H_    0.565092 0.838957 0.169235 0.112310
H23   H     H_    0.750600 0.808092 0.154328 0.257941
H24   H     H_    0.199931 0.231129 0.514544 0.413131
H25   H     H_    0.713799 0.839691 0.185924 0.247424
H26   H     H_    0.628415 0.707586 0.189262 0.256335
H27   H     H_    0.738435 0.685160 0.183942 0.275610
H28   H     H_    0.664832 0.675635 0.157430 0.283335
H29   H     H_    0.696757 0.106034 0.866814 0.141630
H30   H     H_    0.637592 0.118064 0.837011 0.122514
H31   H     H_    0.812923 0.036223 0.842511 0.247664
H32   H     H_    0.753969 0.045819 0.812783 0.245955
H33   H     H_    0.756429 0.202942 0.816881 0.260668
H34   H     H_    0.861335 0.159312 0.816759 0.262740
H35   H     H_    0.961525 0.875887 0.487374 0.431308
H36   H     H_    0.815153 0.193723 0.846910 0.303307
H37   H     H_    0.195265 0.593999 0.137942 0.148558
H38   H     H_    0.162476 0.555286 0.169450 0.110401
H39   H     H_    0.205022 0.739017 0.155338 0.256526
H40   H     H_    0.167499 0.703873 0.186492 0.247513
H41   H     H_    0.293639 0.610719 0.191254 0.257350
H42   H     H_    0.323337 0.719137 0.186293 0.271122
H43   H     H_    0.331562 0.645172 0.159832 0.282783
H44   H     H_    0.901801 0.700737 0.867191 0.142194
H45   H     H_    0.886398 0.641870 0.837499 0.123858
H46   H     H_    0.792195 0.193739 0.513409 0.386547
H47   H     H_    0.975489 0.813663 0.842531 0.247486
H48   H     H_    0.962343 0.754930 0.812902 0.245104
H49   H     H_    0.805592 0.763909 0.817544 0.262072
H50   H     H_    0.853407 0.866888 0.817198 0.261738
H51   H     H_    0.818287 0.822293 0.847491 0.301959
H52   H     H_    0.193454 0.957905 0.503725 0.369205
H53   H     H_    0.797065 0.767850 0.514089 0.403857
H54   H     H_    0.790881 0.669292 0.573955 0.412666
H55   H     H_    0.741542 0.425576 0.426878 0.404837
H56   H     H_    0.310657 0.809472 0.573974 0.410366
H57   H     H_    0.703729 0.315249 0.014159 0.404693
H58   H     H_    0.473259 0.265999 0.428356 0.404338
H59   H     H_    0.194294 0.311842 0.596050 0.378584
H60   H     H_    0.261296 0.596282 0.407164 0.384685
H61   H     H_    0.699286 0.129067 0.591649 0.363167
H62   H     H_    0.524218 0.727763 0.424766 0.401372
H63   H     H_    0.295503 0.173120 0.073870 0.413031
H64   H     H_    0.240246 0.946064 0.928714 0.409644
H65   H     H_    0.818013 0.304071 0.072508 0.414049
H66   H     H_    0.043425 0.238019 0.928830 0.408027
H67   H     H_    0.686991 0.803826 0.096845 0.375808
H68   H     H_    0.376022 0.523348 0.986837 0.392988
H69   H     H_    0.713751 0.097358 0.912611 0.370241
H70   H     H_    0.206349 0.673769 0.096907 0.375623
H71   H     H_    0.910761 0.715952 0.913015 0.370924
H72   H     H_    0.881992 0.683111 0.636346 0.187593
H73   H     H_    0.928277 0.658256 0.667616 0.101602
H74   H     H_    0.739081 0.676574 0.655324 0.264926
H75   H     H_    0.781946 0.646180 0.686295 0.245869
H76   H     H_    0.859198 0.783089 0.689245 0.253702
H77   H     H_    0.747450 0.798896 0.685225 0.274908
H78   H     H_    0.817132 0.813932 0.657958 0.286503
H79   H     H_    0.691291 0.714260 0.013711 0.413322
H80   H     H_    0.820341 0.372604 0.367149 0.195110
H81   H     H_    0.875830 0.369156 0.336435 0.115326
H82   H     H_    0.692835 0.428278 0.344962 0.250934
H83   H     H_    0.747636 0.427636 0.314348 0.245563
H84   H     H_    0.765221 0.271329 0.317388 0.253267
H85   H     H_    0.655832 0.301513 0.319146 0.268045
H86   H     H_    0.710970 0.271514 0.348319 0.309826
H87   H     H_    0.308115 0.896403 0.637233 0.186729
H88   H     H_    0.337985 0.940232 0.668417 0.099065
H89   H     H_    0.304528 0.753277 0.656065 0.266084
H90   H     H_    0.464527 0.374067 0.987045 0.397584
H91   H     H_    0.339933 0.793134 0.686902 0.244105
H92   H     H_    0.209574 0.880708 0.690682 0.254348
H93   H     H_    0.184937 0.770635 0.686641 0.271877
H94   H     H_    0.173751 0.841693 0.659529 0.287943
H95   H     H_    0.412238 0.207043 0.367603 0.197196
H96   H     H_    0.391530 0.147955 0.338232 0.122669
H97   H     H_    0.490182 0.314767 0.342064 0.245414
H98   H     H_    0.472209 0.255622 0.312743 0.246795
H99   H     H_    0.316464 0.273097 0.318157 0.263372
H100  H     H_    0.369666 0.373384 0.317147 0.262229
H101  H     H_    0.298011 0.681315 0.013982 0.413480
H102  H     H_    0.333918 0.331925 0.347805 0.303004
H103  H     H_    0.113732 0.315576 0.637172 0.148313
H104  H     H_    0.071570 0.342485 0.668779 0.113425
H105  H     H_    0.258914 0.319840 0.654693 0.257153
H106  H     H_    0.219886 0.351766 0.685997 0.249609
H107  H     H_    0.140187 0.216513 0.689971 0.255164
H108  H     H_    0.251148 0.198378 0.684963 0.275797
H109  H     H_    0.178503 0.184160 0.658384 0.282268
H110  H     H_    0.179288 0.630991 0.366003 0.167482
H111  H     H_    0.120468 0.631628 0.335886 0.123644
H112  H     H_    0.625474 0.472409 0.986973 0.394967
H113  H     H_    0.306009 0.578979 0.343061 0.236051
H114  H     H_    0.248079 0.572640 0.313066 0.254380
H115  H     H_    0.223472 0.728788 0.314342 0.259539
H116  H     H_    0.333994 0.702915 0.314589 0.274216
H117  H     H_    0.283037 0.734977 0.344286 0.301511
H118  H     H_    0.692004 0.102639 0.637997 0.132209
H119  H     H_    0.660447 0.060676 0.669225 0.106584
H120  H     H_    0.695682 0.246727 0.656097 0.263259
H121  H     H_    0.658327 0.208817 0.686941 0.245245
H122  H     H_    0.787841 0.120629 0.691896 0.255169
H123  H     H_    0.307593 0.281659 0.013909 0.405074
H124  H     H_    0.813507 0.230266 0.687365 0.272861
H125  H     H_    0.825594 0.157545 0.660721 0.282529
H126  H     H_    0.594031 0.798571 0.368026 0.191686
H127  H     H_    0.611518 0.857912 0.338702 0.090021
H128  H     H_    0.535332 0.745869 0.313279 0.245391
H129  H     H_    0.630577 0.710729 0.328808 0.190255
H130  H     H_    0.545420 0.648188 0.365145 0.279560
H131  H     H_    0.518040 0.604550 0.333949 0.219805
H132  H     H_    0.449786 0.681005 0.348877 0.296300
H133  H     H_    0.386994 0.185325 0.136206 0.188493
H134  H     H_    0.039298 0.124240 0.487009 0.431527
H135  H     H_    0.432812 0.159434 0.167465 0.100987
H136  H     H_    0.244079 0.182769 0.155313 0.265608
H137  H     H_    0.286441 0.151571 0.186275 0.245265
H138  H     H_    0.367364 0.286399 0.189002 0.253996
H139  H     H_    0.256028 0.305120 0.185091 0.273191
H140  H     H_    0.325756 0.318028 0.157732 0.287769
H141  H     H_    0.304513 0.893140 0.867349 0.196697
H142  H     H_    0.362730 0.880742 0.837365 0.118577
H143  H     H_    0.187351 0.962163 0.843238 0.250077
H144  H     H_    0.245259 0.951865 0.813345 0.245777
N1    N     N_R   0.500562 0.999171 0.932482 -0.315632
N2    N     N_R   0.501086 0.998004 0.068036 -0.313835
N3    N     N_R   0.000512 0.499700 0.932537 -0.315546
N4    N     N_R   0.000702 0.499448 0.068136 -0.313596
N5    N     N_R   0.001101 0.500570 0.432430 -0.314820
N6    N     N_R   0.000919 0.499947 0.567984 -0.314143
N7    N     N_R   0.498811 0.000620 0.432488 -0.315110
N8    N     N_R   0.499467 0.000345 0.568049 -0.312815
O1    O     O_3   0.000000 0.500000 0.750000 -0.490940
O2    O     O_R   0.000000 0.430630 0.192350 -0.600297
O3    O     O_2   0.749054 0.040780 0.453993 -0.195557
O4    O     O_3   0.822775 0.986947 0.495359 -0.457498
O5    O     O_2   0.216646 0.087622 0.542290 -0.184878
O6    O     O_2   0.331164 0.190131 0.546523 -0.193304
O7    O     O_3   0.240498 0.195098 0.505062 -0.443712
O8    O     O_2   0.071320 0.787724 0.458630 -0.144930
O9    O     O_2   0.923994 0.742852 0.454967 -0.189077
O10   O     O_3   0.968915 0.821484 0.496486 -0.460748
O11   O     O_2   0.945449 0.208734 0.541734 -0.159611
O12   O     O_2   0.832583 0.313190 0.545834 -0.209069
O13   O     O_R   0.430630 1.000000 0.807650 -0.613480
O14   O     O_3   0.837810 0.223591 0.504078 -0.480285
O15   O     O_2   0.224076 0.109636 0.458409 -0.110176
O16   O     O_2   0.249338 0.958397 0.454052 -0.194889
O17   O     O_3   0.175249 0.011156 0.495463 -0.457751
O18   O     O_2   0.780892 0.909852 0.542098 -0.188935
O19   O     O_2   0.665031 0.808784 0.546239 -0.214190
O20   O     O_3   0.755514 0.803179 0.504750 -0.448869
O21   O     O_2   0.823633 0.503789 0.568467 -0.257361
O22   O     O_2   0.758011 0.543571 0.609468 -0.194076
O23   O     O_3   0.841919 0.657623 0.584412 -0.517344
O24   O     O_R   0.569370 1.000000 0.192350 -0.601944
O25   O     O_2   0.835973 0.567403 0.431153 -0.258300
O26   O     O_2   0.759562 0.549541 0.390439 -0.237180
O27   O     O_3   0.794714 0.415935 0.417283 -0.509189
O28   O     O_2   0.478998 0.823473 0.568756 -0.257398
O29   O     O_2   0.431243 0.763055 0.609689 -0.196134
O30   O     O_3   0.327842 0.859088 0.584342 -0.525092
O31   O     O_2   0.597622 0.150040 0.430569 -0.255119
O32   O     O_2   0.588712 0.229980 0.390245 -0.247464
O33   O     O_3   0.453824 0.216514 0.418316 -0.513503
O34   O     O_2   0.179210 0.499364 0.569304 -0.213612
O35   O     O_R   0.500000 0.930630 0.307650 -0.617325
O36   O     O_2   0.243091 0.455974 0.610074 -0.212150
O37   O     O_3   0.160188 0.344242 0.583434 -0.484061
O38   O     O_2   0.166667 0.435319 0.431038 -0.220983
O39   O     O_2   0.241197 0.450571 0.390031 -0.258926
O40   O     O_3   0.208026 0.585935 0.416636 -0.486136
O41   O     O_2   0.503230 0.185035 0.572241 -0.195242
O42   O     O_2   0.579352 0.235662 0.610121 -0.197642
O43   O     O_3   0.658600 0.140082 0.577498 -0.486407
O44   O     O_2   0.404334 0.850534 0.431394 -0.252060
O45   O     O_2   0.404267 0.774281 0.390348 -0.267539
O46   O     O_R   0.500000 0.069370 0.692350 -0.606068
O47   O     O_3   0.543773 0.780637 0.416554 -0.517479
O48   O     O_2   0.323924 0.006670 0.068468 -0.258374
O49   O     O_2   0.259324 0.048601 0.109422 -0.193888
O50   O     O_3   0.346317 0.160114 0.084281 -0.516813
O51   O     O_2   0.341209 0.082852 0.930678 -0.250426
O52   O     O_2   0.262127 0.064662 0.890499 -0.242325
O53   O     O_3   0.291518 0.932388 0.918606 -0.510537
O54   O     O_2   0.986654 0.321107 0.070214 -0.252492
O55   O     O_2   0.932602 0.263691 0.110860 -0.195627
O56   O     O_3   0.832072 0.354806 0.082807 -0.523618
O57   O     O_R   0.069370 0.500000 0.307650 -0.610534
O58   O     O_2   0.910365 0.343859 0.930498 -0.250479
O59   O     O_2   0.926455 0.264269 0.890348 -0.249709
O60   O     O_3   0.059201 0.288650 0.918724 -0.513248
O61   O     O_2   0.679141 0.991431 0.069458 -0.211611
O62   O     O_2   0.741452 0.946809 0.110340 -0.207024
O63   O     O_3   0.655530 0.837140 0.083810 -0.481702
O64   O     O_2   0.657507 0.896482 0.926297 -0.190665
O65   O     O_2   0.743010 0.944908 0.890101 -0.246050
O66   O     O_3   0.701123 0.052972 0.925508 -0.474013
O67   O     O_2   0.019085 0.676463 0.069108 -0.213064
O68   O     O_R   0.930630 0.500000 0.692350 -0.605872
O69   O     O_2   0.066511 0.737044 0.109933 -0.207680
O70   O     O_3   0.171497 0.644113 0.083857 -0.480720
O71   O     O_2   0.109864 0.652403 0.926301 -0.186631
O72   O     O_2   0.064021 0.740136 0.890277 -0.242945
O73   O     O_3   0.955044 0.701904 0.925819 -0.474094
O74   O     O_3   0.860358 0.561287 0.650114 -0.556325
O75   O     O_3   0.847692 0.489246 0.350424 -0.561893
O76   O     O_3   0.428648 0.865320 0.650409 -0.557060
O77   O     O_3   0.517351 0.151976 0.350204 -0.570476
O78   O     O_3   0.139587 0.437415 0.650318 -0.555853
O79   O     O_R   0.500000 0.069370 0.307650 -0.617417
O80   O     O_3   0.152809 0.512881 0.350222 -0.563817
O81   O     O_3   0.571015 0.135103 0.650407 -0.555282
O82   O     O_3   0.485822 0.847882 0.350477 -0.552422
O83   O     O_3   0.362105 0.064267 0.150069 -0.556349
O84   O     O_3   0.347361 0.004475 0.850329 -0.567789
O85   O     O_3   0.916737 0.372974 0.150774 -0.563423
O86   O     O_3   0.989936 0.347498 0.850268 -0.569186
O87   O     O_3   0.636706 0.930606 0.150524 -0.553960
O88   O     O_3   0.652994 0.994504 0.850216 -0.565521
O89   O     O_3   0.076058 0.632479 0.150418 -0.556540
O90   O     O_R   0.500000 0.930630 0.692350 -0.605749
O91   O     O_3   0.010986 0.652365 0.850314 -0.566900
O92   O     O_R   0.930630 0.500000 0.307650 -0.609925
O93   O     O_3   0.000000 0.500000 0.250000 -0.495233
O94   O     O_R   0.069370 0.500000 0.692350 -0.604719
O95   O     O_R   0.902350 0.666510 0.764820 -0.653101
O96   O     O_R   0.097650 0.333490 0.235180 -0.629866
O97   O     O_R   0.333490 0.902350 0.764820 -0.653222
O98   O     O_R   0.666510 0.097650 0.235180 -0.623813
O99   O     O_R   0.097650 0.333490 0.764820 -0.652989
O100  O     O_R   0.902350 0.666510 0.235180 -0.630271
O101  O     O_R   0.666510 0.097650 0.764820 -0.653914
O102  O     O_R   0.333490 0.902350 0.235180 -0.628179
O103  O     O_R   0.902350 0.333490 0.235180 -0.625731
O104  O     O_3   0.500000 0.000000 0.750000 -0.491223
O105  O     O_R   0.097650 0.666510 0.764820 -0.642337
O106  O     O_R   0.333490 0.097650 0.235180 -0.639211
O107  O     O_R   0.666510 0.902350 0.764820 -0.641002
O108  O     O_R   0.097650 0.666510 0.235180 -0.635625
O109  O     O_R   0.902350 0.333490 0.764820 -0.641998
O110  O     O_R   0.666510 0.902350 0.235180 -0.635945
O111  O     O_R   0.333490 0.097650 0.764820 -0.640719
O112  O     O_R   0.402350 0.166510 0.264820 -0.652454
O113  O     O_R   0.597650 0.833490 0.735180 -0.631047
O114  O     O_R   0.833490 0.402350 0.264820 -0.655298
O115  O     O_3   0.500000 0.000000 0.250000 -0.491563
O116  O     O_R   0.166510 0.597650 0.735180 -0.629062
O117  O     O_R   0.597650 0.833490 0.264820 -0.659149
O118  O     O_R   0.402350 0.166510 0.735180 -0.630988
O119  O     O_R   0.166510 0.597650 0.264820 -0.654140
O120  O     O_R   0.833490 0.402350 0.735180 -0.629486
O121  O     O_R   0.402350 0.833490 0.735180 -0.638191
O122  O     O_R   0.597650 0.166510 0.264820 -0.647070
O123  O     O_R   0.833490 0.597650 0.735180 -0.640311
O124  O     O_R   0.166510 0.402350 0.264820 -0.639435
O125  O     O_R   0.597650 0.166510 0.735180 -0.638378
O126  O     O_R   0.000000 0.430630 0.807650 -0.614844
O127  O     O_R   0.402350 0.833490 0.264820 -0.644123
O128  O     O_R   0.166510 0.402350 0.735180 -0.639286
O129  O     O_R   0.833490 0.597650 0.264820 -0.638171
O130  O     O_2   0.542589 0.139724 0.931657 -0.459646
O131  O     O_2   0.477924 0.853093 0.068837 -0.443483
O132  O     O_2   0.861544 0.547005 0.931652 -0.460566
O133  O     O_2   0.144144 0.468219 0.069034 -0.438778
O134  O     O_2   0.457096 0.859086 0.931435 -0.426703
O135  O     O_2   0.524376 0.142881 0.069017 -0.435568
O136  O     O_2   0.138951 0.450934 0.931593 -0.426464
O137  O     O_R   0.000000 0.569370 0.192350 -0.608912
O138  O     O_2   0.857292 0.530808 0.069052 -0.442071
O139  O     O_2   0.039188 0.642265 0.431567 -0.431333
O140  O     O_2   0.981480 0.354410 0.568777 -0.441203
O141  O     O_2   0.365252 0.061558 0.431667 -0.429314
O142  O     O_2   0.640996 0.961409 0.568886 -0.463273
O143  O     O_2   0.963308 0.358822 0.431425 -0.431166
O144  O     O_2   0.020335 0.645485 0.568881 -0.435401
O145  O     O_2   0.632019 0.938930 0.431569 -0.431687
O146  O     O_2   0.357501 0.037574 0.569019 -0.438851
O147  O     O_2   0.421149 0.714235 0.958144 -0.158759
O148  O     O_R   0.569370 1.000000 0.807650 -0.614854
O149  O     O_2   0.569834 0.754036 0.954396 -0.189660
O150  O     O_3   0.522907 0.675600 0.995715 -0.484472
O151  O     O_2   0.560650 0.288015 0.042317 -0.163024
O152  O     O_2   0.673372 0.183229 0.046097 -0.225341
O153  O     O_3   0.668325 0.274174 0.004663 -0.459517
O154  O     O_2   0.282491 0.409318 0.958502 -0.154841
O155  O     O_2   0.247757 0.559260 0.954909 -0.192160
O156  O     O_3   0.323715 0.508980 0.996326 -0.490047
O157  O     O_2   0.713522 0.571341 0.042181 -0.164427
O158  O     O_2   0.822548 0.680024 0.045772 -0.202870
O159  O     O_R   0.430630 1.000000 0.192350 -0.606659
O160  O     O_3   0.731537 0.677628 0.004321 -0.450208
O161  O     O_2   0.577580 0.284382 0.958581 -0.165154
O162  O     O_2   0.429266 0.242906 0.955016 -0.188917
O163  O     O_3   0.476223 0.320913 0.996430 -0.485067
O164  O     O_2   0.440786 0.708553 0.041962 -0.164474
O165  O     O_2   0.328518 0.813678 0.046072 -0.203823
O166  O     O_3   0.332366 0.723338 0.004518 -0.457519
O167  O     O_2   0.717604 0.586532 0.958512 -0.159621
O168  O     O_2   0.754380 0.437037 0.955008 -0.196185
O169  O     O_3   0.677923 0.486602 0.996423 -0.492622
O170  O     O_R   0.000000 0.569370 0.807650 -0.616030
O171  O     O_2   0.287384 0.425609 0.042172 -0.159114
O172  O     O_2   0.177344 0.318054 0.045951 -0.229226
O173  O     O_3   0.268108 0.318994 0.004463 -0.459759
O174  O     O_2   0.930625 0.213438 0.458268 -0.148704
O175  O     O_2   0.078167 0.257749 0.454812 -0.186468
O176  O     O_3   0.032551 0.178626 0.496170 -0.458549
O177  O     O_2   0.056780 0.791446 0.541928 -0.158153
O178  O     O_2   0.169467 0.686827 0.546095 -0.235702
O179  O     O_3   0.164615 0.776553 0.504348 -0.478373
O180  O     O_2   0.772914 0.889271 0.458231 -0.109863
S1    S     S_3+6 0.496696 0.746045 0.972748 0.153656
S2    S     S_3+6 0.108671 0.727523 0.527550 0.145297
S3    S     S_3+6 0.749205 0.968008 0.472654 0.167846
S4    S     S_3+6 0.284790 0.133889 0.527915 0.158909
S5    S     S_3+6 0.997156 0.752875 0.473238 0.170774
S6    S     S_3+6 0.893555 0.272632 0.527331 0.153996
S7    S     S_3+6 0.248572 0.031000 0.472769 0.166234
S8    S     S_3+6 0.712098 0.864644 0.527685 0.145108
S9    S     S_3+6 0.834411 0.555468 0.592646 0.101614
S10   S     S_3+6 0.826098 0.512118 0.407702 0.085231
S11   S     S_3+6 0.428358 0.840195 0.592817 0.097600
S12   S     S_3+6 0.612401 0.224457 0.027729 0.155175
S13   S     S_3+6 0.542424 0.169923 0.407698 0.079744
S14   S     S_3+6 0.167159 0.445371 0.592929 0.117876
S15   S     S_3+6 0.175692 0.489617 0.407345 0.100195
S16   S     S_3+6 0.567004 0.161344 0.592482 0.118517
S17   S     S_3+6 0.455288 0.831014 0.407596 0.080272
S18   S     S_3+6 0.336043 0.058277 0.092603 0.101123
S19   S     S_3+6 0.327440 0.025650 0.907867 0.083575
S20   S     S_3+6 0.931231 0.338952 0.093183 0.094142
S21   S     S_3+6 0.967511 0.328024 0.907800 0.080201
S22   S     S_3+6 0.665370 0.938173 0.093155 0.121973
S23   S     S_3+6 0.252922 0.485605 0.973162 0.152561
S24   S     S_3+6 0.672101 0.968549 0.907989 0.102559
S25   S     S_3+6 0.070985 0.660182 0.092952 0.121618
S26   S     S_3+6 0.038045 0.669965 0.908127 0.104330
S27   S     S_3+6 0.779063 0.620323 0.027516 0.169428
S28   S     S_3+6 0.502719 0.251355 0.973251 0.150179
S29   S     S_3+6 0.388973 0.772513 0.027545 0.163934
S30   S     S_3+6 0.748266 0.510740 0.973215 0.147831
S31   S     S_3+6 0.221284 0.377079 0.027595 0.153133
S32   S     S_3+6 0.004815 0.247743 0.472998 0.172239
Zn1   Zn    Zn3+2 0.900880 0.500000 0.727850 0.990120
Zn2   Zn    Zn3+2 0.599120 1.000000 0.772150 0.967418
Zn3   Zn    Zn3+2 0.000000 0.400880 0.227850 1.001033
Zn4   Zn    Zn3+2 0.000000 0.599120 0.772150 0.966859
Zn5   Zn    Zn3+2 0.599120 1.000000 0.227850 1.000199
Zn6   Zn    Zn3+2 0.400880 1.000000 0.772150 0.968774
Zn7   Zn    Zn3+2 0.000000 0.599120 0.227850 0.990811
Zn8   Zn    Zn3+2 0.000000 0.400880 0.772150 0.967488
Zn9   Zn    Zn3+2 0.099120 0.500000 0.272150 0.969766
Zn10  Zn    Zn3+2 0.500000 0.900880 0.727850 0.990976
Zn11  Zn    Zn3+2 0.500000 0.099120 0.272150 0.964986
Zn12  Zn    Zn3+2 0.099120 0.500000 0.727850 0.991694
Zn13  Zn    Zn3+2 0.900880 0.500000 0.272150 0.971783
Zn14  Zn    Zn3+2 0.500000 0.099120 0.727850 0.990463
Zn15  Zn    Zn3+2 0.500000 0.900880 0.272150 0.963218
Zn16  Zn    Zn3+2 0.400880 1.000000 0.227850 0.992483

loop_
_geom_bond_atom_site_label_1
_geom_bond_atom_site_label_2
_ccdc_geom_bond_type
C30   O143  S    
C95   O88   S    
C102  H44   S    
C81   H138  S    
C177  C191  S    
C78   H133  S    
C67   H108  S    
C132  C150  A    
C124  S5    S    
C25   O138  S    
C100  H42   S    
O115  Zn11  S    
C75   O82   S    
C159  O35   A    
O31   S13   D    
C140  S20   S    
C30   N5    A    
C64   H99   S    
O124  Zn9   S    
H63   O50   S    
C178  O109  A    
C74   H124  S    
C20   N4    A    
O105  Zn4   S    
C38   C114  A    
C45   C109  A    
C141  C154  A    
O128  Zn12  S    
C111  S1    S    
O107  Zn2   S    
O104  Zn2   S    
C44   C121  A    
C54   H77   S    
C17   C39   A    
O39   S15   D    
H64   O53   S    
C18   C40   A    
C70   H114  S    
C79   C90   A    
C155  C189  S    
C165  O96   A    
O2    Zn3   S    
O24   Zn5   S    
C157  O148  A    
C154  N3    S    
O47   S17   S    
C179  O110  A    
C41   C118  A    
C74   H125  S    
C71   H117  S    
C134  S15   S    
C43   C120  A    
O22   S9    D    
C72   O81   S    
C168  O128  A    
C97   H34   S    
C59   C60   S    
O174  S32   D    
C59   H88   S    
C57   O89   S    
C137  S18   S    
C91   H18   S    
O43   S16   S    
H62   O47   S    
C17   N1    A    
C176  O107  A    
H112  O169  S    
H35   O10   S    
C171  C185  A    
O17   S7    S    
C174  O105  A    
C69   H110  S    
C182  O83   S    
C1    C181  A    
C120  C125  A    
C123  C126  A    
O170  Zn4   S    
C23   C37   A    
C121  S2    S    
O104  Zn14  S    
O160  S27   S    
C123  S4    S    
C142  S22   S    
O150  S1    S    
C169  O129  A    
C75   C76   S    
C166  O97   A    
C65   H103  S    
C47   C123  A    
O44   S17   D    
C136  C171  A    
C24   C141  A    
C20   O133  S    
O6    S4    D    
C92   H21   S    
O100  Zn7   S    
O19   S8    D    
C42   C106  A    
C170  O101  A    
C23   N3    A    
C162  O92   A    
C81   H140  S    
C39   C115  A    
C166  O121  A    
C56   H82   S    
C33   C47   A    
C27   O140  S    
C164  O123  A    
O1    Zn12  S    
O23   S9    S    
C87   H12   S    
C8    C169  S    
C15   C191  T    
C158  O24   A    
C72   C73   S    
C74   H122  S    
C71   H116  S    
O120  Zn1   S    
C25   N4    A    
C99   H39   S    
C160  O81   S    
C105  O75   S    
C137  C182  A    
O172  S31   D    
O36   S14   D    
C84   H5    S    
O147  S1    D    
C172  O127  A    
C22   C36   A    
O50   S18   S    
C1    C129  A    
O104  Zn10  S    
C161  C184  S    
O15   S7    D    
C162  C183  S    
C53   H75   S    
C150  N7    S    
C163  O94   A    
C102  O91   S    
O154  S23   D    
O125  Zn14  S    
O5    S4    D    
C68   C189  A    
C180  O118  A    
C18   O131  S    
O93   Zn7   S    
O66   S24   S    
C94   H27   S    
C127  C185  A    
C15   C172  S    
C32   O145  S    
C69   C70   S    
C42   C119  A    
C162  O57   A    
C62   H96   S    
C21   O134  S    
O96   Zn3   S    
O57   Zn9   S    
C85   H6    S    
C114  S27   S    
C97   H36   S    
O37   S14   S    
C98   C99   S    
C2    O84   S    
C168  O99   A    
C60   H89   S    
C84   H3    S    
C167  O98   A    
O25   S10   D    
O53   S19   S    
H54   O23   S    
C163  C181  S    
C139  C152  A    
O71   S26   D    
C144  S25   S    
O48   S18   D    
C31   O144  S    
C6    C9    T    
O126  Zn8   S    
C7    C8    T    
C85   C86   S    
C67   H109  S    
O163  S28   S    
C177  O108  A    
O3    S3    D    
O123  Zn1   S    
O117  Zn15  S    
O179  S2    S    
C78   C80   S    
C48   C107  A    
O92   Zn13  S    
O65   S24   D    
H66   O60   S    
C104  H49   S    
C163  O68   A    
O93   Zn3   S    
C93   H25   S    
O69   S25   D    
C73   H120  S    
C2    C187  A    
H46   O14   S    
C98   H38   S    
H2    O179  S    
C169  O100  A    
C119  S31   S    
C103  H48   S    
O42   S16   D    
C107  C108  A    
C83   H144  S    
C151  N2    S    
C89   C91   S    
O165  S29   D    
C67   H107  S    
C87   H10   S    
C14   C192  T    
C52   H73   S    
C180  O111  A    
O38   S15   D    
O8    S5    D    
O153  S12   S    
O11   S6    D    
C49   C108  A    
C82   O84   S    
C58   H84   S    
O162  S28   D    
C91   H19   S    
O178  S2    D    
C12   C165  S    
C19   N3    A    
C89   H17   S    
H53   O20   S    
C161  O90   A    
O175  S32   D    
C134  C149  A    
C66   H106  S    
C33   O146  S    
O119  Zn9   S    
O10   S5    S    
C25   C38   A    
O156  S23   S    
C83   C84   S    
C58   H85   S    
C96   H31   S    
C24   O86   S    
C77   H131  S    
C60   H91   S    
O51   S19   D    
C61   H94   S    
O14   S6    S    
O167  S30   D    
C145  C154  A    
O27   S10   S    
O32   S13   D    
C33   N8    A    
O94   Zn12  S    
C52   C53   S    
O102  Zn16  S    
O59   S21   D    
C36   C90   A    
C101  C106  A    
O161  S28   D    
C120  S32   S    
C102  H45   S    
C59   O76   S    
C69   H111  S    
C57   C144  A    
C6    C180  S    
C130  C147  A    
C5    C173  S    
C82   H141  S    
C157  C187  S    
O112  Zn11  S    
O149  S1    D    
C152  N1    S    
C105  C130  A    
C133  C146  A    
C104  H51   S    
C175  O106  A    
H67   O63   S    
C64   H100  S    
O63   S22   S    
C159  C185  S    
C157  O13   A    
C31   N6    A    
H57   O153  S    
C149  O80   S    
O49   S18   D    
C84   H4    S    
C35   C186  A    
C136  S17   S    
C116  C184  A    
C54   H78   S    
C56   C58   S    
C40   C117  A    
O52   S19   D    
C14   C164  S    
C102  C103  S    
O115  Zn5   S    
H90   O163  S    
O26   S10   D    
C35   C142  A    
C63   C64   S    
O55   S20   D    
H79   O160  S    
H101  O166  S    
O54   S20   D    
C172  O102  A    
C32   N7    A    
C173  O103  A    
C177  O119  A    
C72   H119  S    
C27   N6    A    
C97   H33   S    
C55   C56   S    
C112  S12   S    
C130  S10   S    
C59   H87   S    
O56   S20   S    
O104  Zn6   S    
C73   C74   S    
O115  Zn16  S    
C26   O139  S    
C127  O77   S    
C139  S19   S    
O7    S4    S    
O90   Zn10  S    
C98   O89   S    
H134  O176  S    
C134  C147  A    
H71   O73   S    
C95   H29   S    
O67   S25   D    
C2    C139  A    
C148  N8    S    
O99   Zn8   S    
C171  O82   S    
C21   N1    A    
C1    O74   S    
C29   C51   A    
O106  Zn16  S    
C178  C190  S    
O58   S21   D    
C46   O88   S    
O137  Zn7   S    
C37   C113  A    
C76   H129  S    
O158  S27   D    
C182  C186  A    
C78   O83   S    
C156  O2    A    
O1    Zn4   S    
C18   N2    A    
C115  S28   S    
C113  C119  A    
C176  O113  A    
C116  O76   S    
C95   C96   S    
C36   C112  A    
C63   H98   S    
H13   O4    S    
C92   H22   S    
C70   C71   S    
C46   C187  A    
C22   O135  S    
O46   Zn14  S    
C26   C48   A    
C140  C153  A    
C35   O87   S    
C156  C188  S    
O173  S31   S    
C69   O80   S    
C133  C138  A    
C81   H139  S    
C4    C174  S    
O113  Zn10  S    
C100  H41   S    
C146  N6    S    
C158  C186  S    
C87   H11   S    
H70   O70   S    
C9    C168  S    
O155  S23   D    
C52   H72   S    
C175  O112  A    
H59   O37   S    
C95   H30   S    
C13   C140  A    
C143  S24   S    
C62   O77   S    
O18   S8    D    
C23   O136  S    
C71   H115  S    
C86   C87   S    
C91   H20   S    
O127  Zn15  S    
O13   Zn6   S    
C53   C54   S    
H55   O27   S    
C50   C109  A    
C54   H76   S    
O12   S6    D    
C60   C61   S    
C80   H136  S    
C126  S7    S    
C70   H113  S    
O168  S30   D    
C62   C63   S    
C136  C150  A    
H60   O40   S    
C78   H135  S    
C94   H28   S    
C43   C107  A    
C105  C183  A    
C4    C11   T    
C13   O85   S    
O34   S14   D    
C86   H9    S    
C129  C146  A    
C16   C190  T    
C76   H128  S    
C22   N2    A    
C3    C175  S    
C143  C152  A    
C29   O142  S    
C51   C110  A    
C145  S26   S    
O122  Zn11  S    
C51   C128  A    
C88   H15   S    
C75   H126  S    
O151  S12   D    
O93   Zn13  S    
C128  S8    S    
C29   N8    A    
O61   S22   D    
O129  Zn13  S    
H123  O173  S    
O70   S25   S    
O20   S8    S    
C178  O120  A    
O21   S9    D    
O103  Zn3   S    
C21   C34   A    
C45   C122  A    
C49   C125  A    
O108  Zn7   S    
C111  C117  A    
C135  C160  A    
O114  Zn13  S    
O29   S11   D    
O166  S29   S    
C109  C110  A    
C85   O85   S    
C65   H104  S    
C170  O125  A    
C104  H50   S    
O60   S21   S    
C28   O141  S    
C92   C93   S    
C41   C101  A    
O98   Zn5   S    
C122  C128  A    
O79   Zn11  S    
O95   Zn4   S    
C118  S30   S    
C16   C170  S    
O169  S30   S    
C103  H47   S    
C82   C83   S    
C103  C104  S    
C149  C183  A    
C100  H43   S    
C83   H143  S    
C55   H80   S    
O40   S15   S    
C40   C90   A    
O116  Zn12  S    
C65   O78   S    
H68   O156  S    
C68   C145  A    
C19   C41   A    
C39   C79   A    
C142  C151  A    
C155  O126  A    
C37   C101  A    
C34   C79   A    
C93   C94   S    
O93   Zn9   S    
O41   S16   D    
O73   S26   S    
O177  S2    D    
C28   N7    A    
C174  O116  A    
C99   H40   S    
C72   H118  S    
C20   C42   A    
O171  S31   D    
C122  S3    S    
O111  Zn6   S    
O157  S27   D    
O30   S11   S    
C176  C192  S    
C89   H16   S    
C158  O159  A    
H69   O66   S    
C94   H26   S    
O121  Zn10  S    
C144  C153  A    
C138  C181  A    
C127  C132  A    
C121  C124  A    
C3    C12   T    
C62   H95   S    
C28   C50   A    
C85   H7    S    
O101  Zn2   S    
C58   H86   S    
C10   C167  S    
C57   C188  A    
C11   C166  S    
C77   H130  S    
O180  S3    D    
O110  Zn5   S    
C141  S21   S    
C24   C189  A    
C50   C126  A    
C61   H93   S    
C113  S23   S    
H61   O43   S    
C68   O91   S    
O1    Zn1   S    
C138  O78   S    
C88   C89   S    
C55   O75   S    
C92   O87   S    
C13   C188  A    
C34   C111  A    
O64   S24   D    
O33   S13   S    
C26   N5    A    
C159  O79   A    
C44   C108  A    
C55   H81   S    
C31   C44   A    
C135  S16   S    
C61   H92   S    
C82   H142  S    
C76   C77   S    
C167  O122  A    
O1    Zn8   S    
O4    S3    S    
C19   O132  S    
C96   H32   S    
C17   O130  S    
C52   O74   S    
C93   H23   S    
C156  O137  A    
C38   C106  A    
C153  N4    S    
C73   H121  S    
C179  O117  A    
O72   S26   D    
C98   H37   S    
C99   C100  S    
C96   C97   S    
C56   H83   S    
O152  S12   D    
H24   O7    S    
C7    C179  S    
C131  C148  A    
C165  O124  A    
C32   C45   A    
O16   S7    D    
C114  C118  A    
C65   C66   S    
O45   S17   D    
O35   Zn15  S    
O97   Zn6   S    
O62   S22   D    
O68   Zn1   S    
C133  S14   S    
C117  S29   S    
C88   O86   S    
C63   H97   S    
O159  Zn16  S    
O28   S11   D    
O115  Zn15  S    
O164  S29   D    
O176  S32   S    
C88   H14   S    
C80   C81   S    
O148  Zn2   S    
H52   O17   S    
C48   C124  A    
C75   H127  S    
C129  S9    S    
C46   C143  A    
O118  Zn14  S    
C47   C110  A    
C66   H105  S    
C131  S11   S    
C80   H137  S    
C132  S13   S    
C5    C10   T    
O109  Zn8   S    
H65   O56   S    
H58   O33   S    
C116  C131  A    
H56   O30   S    
C161  O46   A    
C77   H132  S    
C66   C67   S    
C125  S6    S    
C30   C43   A    
C53   H74   S    
C27   C49   A    
C135  C148  A    
C164  O95   A    
C155  O170  A    
C137  C151  A    
C64   H102  S    
O9    S5    D    
H1    O150  S    
C160  C184  A    
C112  C115  A    
C86   H8    S    
C173  O114  A    
C147  N5    S    
