data_mof_unit_20551.cif
_audit_creation_date              2012-12-10T18:58:14-0500
_audit_creation_method            fapswitch 2.2
_symmetry_space_group_name_H-M    P1
_symmetry_Int_Tables_number       1
_space_group_crystal_system       triclinic
_cell_length_a                    10.994835
_cell_length_b                    10.852563
_cell_length_c                    9.566197
_cell_angle_alpha                 90.187982
_cell_angle_beta                  102.605356
_cell_angle_gamma                 90.803319
_cell_volume                      1113.81278047

loop_
_atom_site_label
_atom_site_type_symbol
_atom_type_description
_atom_site_fract_x
_atom_site_fract_y
_atom_site_fract_z
_atom_type_partial_charge
C1    C     C_R   0.500333 0.262755 0.499840 0.831613
C2    C     C_R   0.498032 0.130047 0.497621 -0.082955
C3    C     C_R   0.515964 0.064073 0.376777 -0.152759
C4    C     C_R   0.512127 0.934954 0.376047 -0.182690
C5    C     C_R   0.488079 0.869751 0.495022 -0.111547
C6    C     C_R   0.461459 0.938505 0.607438 0.111362
C7    C     C_3   0.432329 0.933178 0.753631 -0.061552
C8    C     C_3   0.449854 0.074854 0.758012 -0.466257
C9    C     C_R   0.563059 0.589917 0.089946 0.148559
C10   C     C_R   0.429153 0.416324 0.054041 0.077459
C11   C     C_R   0.429573 0.418260 0.905562 -0.053022
C12   C     C_R   0.262421 0.497012 0.442140 0.840193
C13   C     C_R   0.563264 0.589505 0.942691 0.207631
C14   C     C_3   0.699662 0.617073 0.969984 -0.555490
C15   C     C_3   0.700109 0.616310 0.129143 -0.213614
C16   C     C_R   0.495398 0.737132 0.498867 0.818134
C17   C     C_R   0.737089 0.494419 0.557712 0.933890
C18   C     C_2   0.127101 0.481099 0.411149 -0.338763
C19   C     C_2   0.068676 0.464952 0.519309 -0.229610
C20   C     C_2   0.872737 0.488577 0.588344 -0.324205
C21   C     C_2   0.934893 0.437842 0.495851 0.043749
C22   C     C_R   0.473264 0.062569 0.611354 0.052107
Cu1   Cu    Cu3+1 0.499990 0.499980 0.640670 0.935602
Cu2   Cu    Cu3+1 0.500010 0.500020 0.359330 0.968293
H1    H     H_    0.534357 0.107103 0.836638 0.200774
H2    H     H_    0.373914 0.352518 0.832441 0.171340
H3    H     H_    0.753418 0.539964 0.937903 0.219884
H4    H     H_    0.719331 0.708490 0.926761 0.184055
H5    H     H_    0.754332 0.539268 0.187259 0.191759
H6    H     H_    0.119784 0.474578 0.629869 0.185526
H7    H     H_    0.923302 0.538883 0.682161 0.121152
H8    H     H_    0.076415 0.477723 0.300256 0.139867
H9    H     H_    0.534923 0.111439 0.284154 0.192976
H10   H     H_    0.529763 0.886895 0.283396 0.159066
H11   H     H_    0.504127 0.884543 0.833635 0.157856
H12   H     H_    0.364335 0.128195 0.758522 0.217274
N1    N     N_R   0.500780 0.500930 0.148120 -0.227599
N2    N     N_R   0.500790 0.500890 0.852210 -0.202316
O1    O     O_R   0.500000 0.319640 0.618810 -0.586511
O2    O     O_R   0.500010 0.319680 0.381230 -0.591549
O3    O     O_R   0.320680 0.500000 0.575130 -0.589025
O4    O     O_R   0.320690 0.500040 0.337550 -0.616775
O5    O     O_R   0.499990 0.680320 0.618770 -0.583696
O6    O     O_R   0.500000 0.680360 0.381190 -0.582145
O7    O     O_R   0.679310 0.499960 0.662450 -0.590878
O8    O     O_R   0.679320 0.500000 0.424870 -0.534962
C23   C     C_2   0.877250 0.349288 0.379456 0.397172
H13   H     H_    0.919895 0.334464 0.288903 0.055002
O9    O     O_2   0.786184 0.286311 0.387659 -0.549749
C24   C     C_2   0.351279 0.319002 0.101503 0.338003
H14   H     H_    0.316936 0.327384 0.197702 0.135983
O10   O     O_2   0.322018 0.225465 0.029954 -0.603079
C25   C     C_2   0.729733 0.739877 0.200367 0.429054
H15   H     H_    0.685839 0.822265 0.149863 0.044552
O11   O     O_2   0.803660 0.748454 0.315512 -0.539678
C26   C     C_3   0.296361 0.896372 0.754257 -0.374369
C27   C     C_3   0.268801 0.759632 0.725927 -0.754279
H16   H     H_    0.270109 0.737124 0.613164 0.258665
H17   H     H_    0.337487 0.703386 0.800147 0.254370
H18   H     H_    0.174323 0.736831 0.742874 0.227743
H19   H     H_    0.278556 0.919611 0.861194 0.227035
H20   H     H_    0.230194 0.949649 0.672744 0.221376

loop_
_geom_bond_atom_site_label_1
_geom_bond_atom_site_label_2
_ccdc_geom_bond_type
C26   H19   S    
C2    C22   A    
C11   N2    A    
C8    C22   S    
Cu1   Cu2   S    
C14   H4    S    
C12   O3    A    
Cu1   O7    S    
C14   H3    S    
Cu1   N2    S    
Cu2   O4    S    
C16   O6    A    
C24   O10   D    
C23   H13   S    
Cu1   O3    S    
Cu2   O8    S    
C1    O2    A    
C9    N1    A    
C24   H14   S    
C27   H16   S    
C7    C8    S    
C23   O9    D    
C25   H15   S    
C20   C21   D    
C8    H1    S    
C16   O5    A    
C13   N2    A    
C6    C7    S    
C7    C26   S    
C10   N1    A    
Cu1   O1    S    
C15   C25   S    
C19   C21   S    
C17   O7    A    
C15   H5    S    
C2    C3    A    
C25   O11   D    
C4    H10   S    
C9    C15   S    
C5    C6    A    
Cu2   O6    S    
C26   H20   S    
C27   H17   S    
C18   H8    S    
C10   C11   A    
C1    O1    A    
C12   O4    A    
C3    C4    A    
C6    C22   A    
C27   H18   S    
C17   C20   S    
Cu1   O5    S    
C17   O8    A    
Cu2   N1    S    
C1    C2    S    
C8    H12   S    
C12   C18   S    
C26   C27   S    
C3    H9    S    
C14   C15   S    
C18   C19   D    
C5    C16   S    
C9    C13   A    
C11   H2    S    
Cu2   O2    S    
C13   C14   S    
C19   H6    S    
C7    H11   S    
C4    C5    A    
C21   C23   S    
C20   H7    S    
C10   C24   S    
