data_mof_unit_38436.cif
_audit_creation_date              2012-10-26T18:31:55-0400
_audit_creation_method            fapswitch 2.2
_symmetry_space_group_name_H-M    P1
_symmetry_Int_Tables_number       1
_space_group_crystal_system       triclinic
_cell_length_a                    12.434759
_cell_length_b                    13.269421
_cell_length_c                    14.245997
_cell_angle_alpha                 94.267872
_cell_angle_beta                  108.048626
_cell_angle_gamma                 117.218003
_cell_volume                      1921.45688666

loop_
_atom_site_label
_atom_site_type_symbol
_atom_type_description
_atom_site_fract_x
_atom_site_fract_y
_atom_site_fract_z
_atom_type_partial_charge
C1    C     C_R   0.651638 0.714532 0.510360 0.613752
C2    C     C_R   0.138459 0.397889 0.999116 -0.031424
C3    C     C_R   0.120724 0.457297 0.074657 -0.020012
C4    C     C_R   0.617310 0.515273 0.686860 0.586512
C5    C     C_R   0.238328 0.370237 0.027434 -0.093887
C6    C     C_R   0.318595 0.399051 0.129781 -0.174271
C7    C     C_R   0.218272 0.504758 0.174662 0.225697
C8    C     C_R   0.146957 0.958462 0.377248 0.242541
C9    C     C_R   0.252400 0.161133 0.468753 -0.049448
C10   C     C_R   0.754142 0.921925 0.601266 0.333135
C11   C     C_R   0.865374 0.032163 0.642252 0.012410
C12   C     C_R   0.833800 0.479004 0.917127 0.052753
C13   C     C_R   0.967981 0.062739 0.609673 0.352599
C14   C     C_R   0.954455 0.987031 0.525009 0.027783
C15   C     C_R   0.839940 0.874434 0.482572 -0.049150
C16   C     C_R   0.345603 0.285083 0.485225 0.544631
C17   C     C_R   0.052186 0.017077 0.483262 0.029055
C18   C     C_R   0.043174 0.930930 0.410620 0.054211
C19   C     C_R   0.927414 0.822376 0.368097 -0.083519
C20   C     C_R   0.824778 0.797795 0.398979 -0.088567
C21   C     C_R   0.153645 0.132471 0.505920 -0.075646
C22   C     C_R   0.252328 0.073193 0.408270 -0.073123
C23   C     C_R   0.791530 0.504008 0.992901 0.053328
C24   C     C_R   0.744442 0.839492 0.526359 0.015997
C25   C     C_R   0.246408 0.629615 0.693594 -0.112859
C26   C     C_R   0.653731 0.354322 0.352194 0.006739
C27   C     C_R   0.728099 0.322265 0.315724 0.239211
C28   C     C_R   0.381976 0.483878 0.313098 0.556921
C29   C     C_R   0.862106 0.371188 0.372311 0.382333
C30   C     C_R   0.925016 0.455646 0.466970 -0.056492
C31   C     C_R   0.844206 0.486204 0.502808 0.131718
C32   C     C_R   0.064634 0.511126 0.528104 0.014329
C33   C     C_R   0.112984 0.573295 0.630557 0.014632
C34   C     C_R   0.932576 0.447820 0.942455 -0.027731
C35   C     C_R   0.030936 0.588468 0.668523 -0.061922
C36   C     C_R   0.909409 0.565692 0.602989 0.267210
C37   C     C_R   0.160459 0.510119 0.493819 0.118869
C38   C     C_R   0.334164 0.626689 0.655035 0.094405
C39   C     C_R   0.677757 0.515260 0.793451 0.005616
C40   C     C_R   0.308297 0.465312 0.204255 0.022738
C41   C     C_R   0.689391 0.529000 0.967202 -0.102256
C42   C     C_R   0.631432 0.532897 0.867553 -0.108831
C43   C     C_R   0.780559 0.491814 0.819792 -0.055045
C44   C     C_R   0.007361 0.468258 0.047073 -0.006835
C45   C     C_R   0.959619 0.488142 0.120325 -0.006306
C46   C     C_R   0.852104 0.504085 0.093264 -0.066565
C47   C     C_R   0.955083 0.391590 0.867946 0.379359
C48   C     C_R   0.055190 0.365513 0.896673 0.422592
Cl1   Cl    Cl    0.146823 0.853587 0.293425 -0.519454
Cl2   Cl    Cl    0.250623 0.633791 0.253627 -0.511213
Cl3   Cl    Cl    0.651169 0.218239 0.197973 -0.495915
Cl4   Cl    Cl    0.890435 0.680925 0.648223 -0.590464
Cu1   Cu    Cu3+1 0.416420 0.526630 0.522910 1.079317
Cu2   Cu    Cu3+1 0.583580 0.473370 0.477090 1.015605
F1    F     F_    0.662858 0.892546 0.643096 -0.589165
F2    F     F_    0.082645 0.161265 0.668674 -0.587828
F3    F     F_    0.925664 0.328119 0.336299 -0.624124
F4    F     F_    0.070802 0.308359 0.823410 -0.564601
F5    F     F_    0.871704 0.347691 0.768315 -0.609397
H1    H     H_    0.818415 0.519343 0.151608 0.120792
H2    H     H_    0.283158 0.677571 0.772097 0.121398
H3    H     H_    0.134742 0.465569 0.417422 0.211990
H4    H     H_    0.549909 0.315016 0.307531 0.161228
H5    H     H_    0.388792 0.369508 0.150548 0.147602
H6    H     H_    0.654637 0.545754 0.024231 0.120911
H7    H     H_    0.551603 0.550740 0.848863 0.142991
H8    H     H_    0.822113 0.488635 0.764501 0.210910
H9    H     H_    0.001057 0.486024 0.198482 0.198126
H10   H     H_    0.251236 0.322195 0.971082 0.208577
H11   H     H_    0.329135 0.094847 0.379394 0.180546
H12   H     H_    0.912602 0.757383 0.307353 0.162601
H13   H     H_    0.151850 0.203340 0.545748 0.230833
H14   H     H_    0.876170 0.091680 0.705347 0.238473
H15   H     H_    0.733475 0.716913 0.356715 0.141260
H16   H     H_    0.436775 0.668009 0.704249 0.158862
H17   H     H_    0.072258 0.640110 0.746681 0.156492
N1    N     N_R   0.290690 0.566960 0.557640 -0.244546
N2    N     N_R   0.709100 0.433710 0.442970 -0.267724
O1    O     O_R   0.545970 0.684450 0.528810 -0.412077
O2    O     O_R   0.687130 0.639470 0.490120 -0.467773
O3    O     O_R   0.519670 0.535100 0.660030 -0.517032
O4    O     O_R   0.660830 0.490120 0.621340 -0.450968
O5    O     O_R   0.312870 0.360530 0.509880 -0.504191
O6    O     O_R   0.454030 0.315550 0.471190 -0.499211
O7    O     O_R   0.339170 0.509880 0.378660 -0.464129
O8    O     O_R   0.480330 0.464900 0.339970 -0.545890

loop_
_geom_bond_atom_site_label_1
_geom_bond_atom_site_label_2
_ccdc_geom_bond_type
C27   C29   A    
C41   C42   A    
C19   H12   S    
C19   C20   A    
Cu2   O6    S    
C37   H3    S    
Cu1   Cu2   S    
C12   C23   A    
C26   C27   A    
C26   N2    A    
Cu1   O1    S    
C9    C16   S    
C12   C43   A    
C3    C7    A    
C5    C6    A    
C9    C22   A    
C28   C40   S    
C16   O6    A    
Cu1   O3    S    
C18   C19   A    
C6    H5    S    
C5    H10   S    
C4    O3    A    
C35   C36   A    
C8    C22   A    
C7    C40   A    
C36   Cl4   S    
C13   F2    S    
C23   C46   A    
C13   C14   A    
C14   C17   A    
C27   Cl3   S    
C39   C42   A    
Cu2   O2    S    
C38   H16   S    
C15   C20   A    
C3    C44   A    
C35   H17   S    
C21   H13   S    
C34   C44   A    
C11   H14   S    
Cu2   O8    S    
C41   H6    S    
C10   C24   A    
C45   C46   A    
C37   N1    A    
C16   O5    A    
C17   C21   A    
Cu1   N1    S    
C26   H4    S    
C29   C30   A    
C25   C38   A    
C47   C48   A    
C4    C39   S    
C45   H9    S    
C17   C18   A    
C20   H15   S    
C25   H2    S    
C32   C37   A    
C10   F1    S    
C15   C24   A    
C29   F3    S    
C28   O8    A    
C1    O1    A    
C6    C40   A    
C2    C5    A    
C12   C34   A    
Cu2   O4    S    
C44   C45   A    
C31   N2    A    
C46   H1    S    
C14   C15   A    
C7    Cl2   S    
C39   C43   A    
C48   F4    S    
C38   N1    A    
C23   C41   A    
Cu1   O5    S    
C2    C48   A    
C32   C33   A    
C2    C3    A    
C30   C32   A    
C11   C13   A    
C9    C21   A    
C30   C31   A    
C33   C35   A    
C8    C18   A    
C10   C11   A    
C47   F5    S    
C4    O4    A    
C1    C24   S    
C43   H8    S    
C28   O7    A    
C42   H7    S    
C1    O2    A    
C31   C36   A    
Cu1   O7    S    
C34   C47   A    
C8    Cl1   S    
C22   H11   S    
C25   C33   A    
Cu2   N2    S    
