data_mof_unit_27509.cif
_audit_creation_date              2012-12-11T16:57:16-0500
_audit_creation_method            fapswitch 2.2
_symmetry_space_group_name_H-M    P1
_symmetry_Int_Tables_number       1
_space_group_crystal_system       triclinic
_cell_length_a                    14.472205
_cell_length_b                    16.267959
_cell_length_c                    6.958939
_cell_angle_alpha                 89.999067
_cell_angle_beta                  98.784588
_cell_angle_gamma                 89.999962
_cell_volume                      1619.14668741

loop_
_atom_site_label
_atom_site_type_symbol
_atom_type_description
_atom_site_fract_x
_atom_site_fract_y
_atom_site_fract_z
_atom_type_partial_charge
O1    O     O_R   0.584990 0.413650 0.534420 -0.522356
O2    O     O_R   0.584990 0.586350 0.534420 -0.522354
O3    O     O_R   0.596190 0.585230 0.208380 -0.520676
O4    O     O_R   0.596190 0.414770 0.208380 -0.520677
O5    O     O_R   0.415010 0.586420 0.976930 -0.518906
O6    O     O_R   0.415010 0.413580 0.976930 -0.518921
C1    C     C_R   0.618731 0.614224 0.384353 0.761093
C2    C     C_R   0.618732 0.385777 0.384356 0.761030
O7    O     O_3   0.440560 0.500000 0.319140 -0.343268
V1    V     V_3+5 0.511030 0.500000 0.068070 1.744288
O8    O     O_R   0.403810 0.414840 0.643540 -0.530330
O9    O     O_R   0.403810 0.585160 0.643540 -0.530327
C3    C     C_R   0.379522 0.387726 0.806411 0.817297
C4    C     C_R   0.379521 0.612275 0.806409 0.817348
V2    V     V_3+5 0.488970 0.500000 0.560620 1.720154
O10   O     O_3   0.559440 0.500000 0.859420 -0.331685
H1    H     H_    0.189478 0.806450 0.807571 0.129667
H2    H     H_    0.189463 0.193562 0.807563 0.129679
C5    C     C_2   0.311361 0.680908 0.801639 -0.333208
C6    C     C_2   0.311368 0.319087 0.801641 -0.333256
C7    C     C_2   0.269791 0.703173 0.957007 0.406656
C8    C     C_2   0.269798 0.296823 0.957025 0.406609
H3    H     H_    0.214157 0.790055 0.253899 0.176446
H4    H     H_    0.214176 0.209928 0.253905 0.176435
C9    C     C_2   0.188729 0.814801 0.110800 -0.261375
C10   C     C_2   0.188735 0.185192 0.110801 -0.261389
C11   C     C_2   0.212646 0.779259 0.949374 -0.168206
C12   C     C_2   0.212647 0.220740 0.949375 -0.168252
H5    H     H_    0.298961 0.717608 0.669728 0.125811
H6    H     H_    0.298974 0.282376 0.669710 0.125826
C13   C     C_R   0.754847 0.687411 0.585554 0.079327
C14   C     C_R   0.754892 0.312618 0.585508 0.079238
C15   C     C_R   0.689033 0.681994 0.415852 -0.129735
C16   C     C_R   0.689034 0.318009 0.415854 -0.129722
C17   C     C_R   0.686161 0.747359 0.283744 -0.119886
C18   C     C_R   0.686117 0.252616 0.283790 -0.119790
H7    H     H_    0.628817 0.750257 0.166002 0.209110
H8    H     H_    0.628709 0.249682 0.166127 0.209044
C19   C     C_R   0.749348 0.813930 0.314472 0.378865
C20   C     C_R   0.749324 0.186057 0.314498 0.378891
C21   C     C_R   0.818984 0.816849 0.481287 -0.159055
C22   C     C_R   0.818988 0.183154 0.481281 -0.159047
C23   C     C_R   0.820170 0.752146 0.615280 -0.067505
C24   C     C_R   0.820212 0.247881 0.615226 -0.067493
C25   C     C_3   0.808766 0.761358 0.823122 -0.399137
C26   C     C_3   0.808884 0.238711 0.823138 -0.399198
C27   C     C_3   0.734455 0.695385 0.788810 0.637263
C28   C     C_3   0.734556 0.304674 0.788821 0.637399
H9    H     H_    0.873023 0.742933 0.922468 0.185174
H10   H     H_    0.873174 0.257170 0.922368 0.185158
O11   O     O_R   0.921430 0.915960 0.371040 -0.514701
O12   O     O_R   0.921430 0.084040 0.371040 -0.514707
O13   O     O_R   0.910450 0.087500 0.697310 -0.542508
O14   O     O_R   0.910450 0.912500 0.697310 -0.542509
O15   O     O_R   0.091710 0.087460 0.928430 -0.547065
O16   O     O_R   0.091710 0.912540 0.928430 -0.547060
C29   C     C_R   0.887065 0.113606 0.518998 0.782063
C30   C     C_R   0.887063 0.886395 0.519000 0.782072
O17   O     O_3   0.065970 0.000000 0.586140 -0.391908
V3    V     V_3+5 0.995640 0.000000 0.837400 1.526792
O18   O     O_R   0.103020 0.915700 0.261710 -0.548053
O19   O     O_R   0.103020 0.084300 0.261710 -0.548054
C31   C     C_R   0.124464 0.885718 0.100011 0.726130
C32   C     C_R   0.124465 0.114280 0.100010 0.726136
V4    V     V_3+5 0.017940 0.000000 0.344880 1.514778
O20   O     O_3   0.947330 0.000000 0.046180 -0.335134
Cl1   Cl    Cl    0.762594 0.605304 0.930940 -0.546312
Cl2   Cl    Cl    0.762702 0.394774 0.930860 -0.546243
Cl3   Cl    Cl    0.274482 0.640607 0.167760 -0.603307
Cl4   Cl    Cl    0.274479 0.359403 0.167828 -0.603269
Cl5   Cl    Cl    0.728153 0.898613 0.157851 -0.529475
Cl6   Cl    Cl    0.728133 0.101376 0.157876 -0.529426
H11   H     H_    0.781772 0.823033 0.852310 0.242345
H12   H     H_    0.781912 0.177040 0.852488 0.242303
Cl7   Cl    Cl    0.618776 0.733544 0.795350 -0.647466
Cl8   Cl    Cl    0.618890 0.266510 0.795490 -0.647475

loop_
_geom_bond_atom_site_label_1
_geom_bond_atom_site_label_2
_ccdc_geom_bond_type
O1    C2    A    
C14   C28   S    
C28   Cl8   S    
O2    C1    A    
O4    C2    A    
C19   C21   A    
C6    H6    S    
C13   C23   A    
C5    C7    D    
H4    C10   S    
C21   C30   S    
O3    C1    A    
C9    C31   S    
V2    O10   S    
C25   H11   S    
O11   V4    S    
O18   C31   A    
C10   C32   S    
O19   C32   A    
O8    V2    S    
C13   C15   A    
O1    V2    S    
O7    V1    S    
C3    C6    S    
C20   C22   A    
C7    C11   S    
V3    O20   S    
O17   V3    S    
C13   C27   S    
O15   V3    S    
C21   C23   A    
C22   C24   A    
C22   C29   S    
C27   Cl1   S    
O13   V3    S    
C24   C26   S    
C25   C27   S    
C26   C28   S    
C1    C15   S    
H1    C11   S    
C18   C20   A    
H2    C12   S    
O13   C29   A    
O14   V3    S    
O16   V3    S    
C7    Cl3   S    
C14   C16   A    
C17   C19   A    
O9    V2    S    
C25   H9    S    
O15   C32   A    
C14   C24   A    
O16   C31   A    
O11   C30   A    
C2    C16   S    
C28   Cl2   S    
O2    V2    S    
C23   C25   S    
O5    C4    A    
O9    C4    A    
O4    V1    S    
C5    H5    S    
C26   H12   S    
O14   C30   A    
C20   Cl6   S    
O19   V4    S    
C17   H7    S    
C4    C5    S    
C6    C8    D    
O6    V1    S    
C9    C11   D    
C26   H10   S    
C10   C12   D    
C18   H8    S    
O7    V2    S    
C27   Cl7   S    
O5    V1    S    
O3    V1    S    
V1    O10   S    
O17   V4    S    
O6    C3    A    
O8    C3    A    
C15   C17   A    
C16   C18   A    
H3    C9    S    
O12   C29   A    
O18   V4    S    
V4    O20   S    
C19   Cl5   S    
C8    C12   S    
C8    Cl4   S    
O12   V4    S    
