data_mof_unit_53079.cif
_audit_creation_date              2012-12-11T15:39:23-0500
_audit_creation_method            fapswitch 2.2
_symmetry_space_group_name_H-M    P1
_symmetry_Int_Tables_number       1
_space_group_crystal_system       triclinic
_cell_length_a                    14.347062
_cell_length_b                    14.790744
_cell_length_c                    33.212303
_cell_angle_alpha                 97.653734
_cell_angle_beta                  90.357276
_cell_angle_gamma                 118.8871
_cell_volume                      6095.60712805

loop_
_atom_site_label
_atom_site_type_symbol
_atom_type_description
_atom_site_fract_x
_atom_site_fract_y
_atom_site_fract_z
_atom_type_partial_charge
C1    C     C_R   0.616852 0.910289 0.437000 0.551105
C2    C     C_R   0.712256 0.437770 0.949218 0.534159
C3    C     C_R   0.740271 0.821054 0.767437 -0.179880
C4    C     C_R   0.734148 0.842787 0.728426 -0.137417
C5    C     C_R   0.681629 0.761429 0.695650 -0.033878
C6    C     C_R   0.634980 0.657211 0.702863 -0.070748
C7    C     C_R   0.641129 0.635179 0.742273 0.400507
C8    C     C_R   0.694186 0.717415 0.774848 0.026217
C9    C     C_R   0.571372 0.732885 0.631807 -0.112689
C10   C     C_R   0.554944 0.768490 0.597019 -0.118306
C11   C     C_R   0.737538 0.910305 0.606577 -0.122085
C12   C     C_R   0.743207 0.716514 0.945902 0.567199
C13   C     C_R   0.828926 0.433309 0.163877 -0.112696
C14   C     C_R   0.825385 0.446462 0.123166 -0.121915
C15   C     C_R   0.775381 0.347520 0.245220 -0.096626
C16   C     C_R   0.767183 0.333726 0.285993 -0.098192
C17   C     C_R   0.736741 0.393591 0.313547 0.058085
C18   C     C_R   0.721711 0.472201 0.300397 -0.039932
C19   C     C_R   0.729002 0.485356 0.259589 -0.096855
C20   C     C_R   0.752517 0.420814 0.231547 0.027935
C21   C     C_R   0.746028 0.425668 0.187805 0.024189
C22   C     C_R   0.608494 0.345365 0.367569 0.418366
C23   C     C_R   0.593874 0.205374 0.456483 0.564879
C24   C     C_R   0.573204 0.299441 0.402442 0.425794
C25   C     C_R   0.739877 0.297461 0.412435 -0.206503
C26   C     C_R   0.775128 0.343643 0.377690 -0.201853
C27   C     C_R   0.708490 0.364801 0.354267 -0.032141
C28   C     C_R   0.637085 0.271274 0.424339 -0.038637
C29   C     C_R   0.244959 0.877731 0.393204 -0.046547
C30   C     C_R   0.224945 0.954958 0.380840 0.380696
C31   C     C_R   0.201727 0.952339 0.339627 -0.128291
C32   C     C_R   0.754179 0.874171 0.641208 -0.111463
C33   C     C_R   0.197451 0.872857 0.310413 -0.025678
C34   C     C_R   0.209862 0.792037 0.322648 0.396836
C35   C     C_R   0.295519 0.892762 0.434371 0.566100
C36   C     C_R   0.233061 0.794270 0.363770 -0.145818
C37   C     C_R   0.196967 0.808718 0.162953 -0.092396
C38   C     C_R   0.168576 0.787030 0.121133 -0.121456
C39   C     C_R   0.090322 0.900914 0.129615 -0.122568
C40   C     C_R   0.118281 0.922011 0.171559 -0.114267
C41   C     C_R   0.168150 0.872885 0.188390 0.032280
C42   C     C_1   0.179286 0.878177 0.231749 0.016570
C43   C     C_R   0.670122 0.787314 0.654984 0.032857
C44   C     C_1   0.186820 0.877237 0.267783 0.057565
C45   C     C_R   0.110766 0.829252 0.104314 0.019108
C46   C     C_R   0.637126 0.878657 0.395433 -0.040462
C47   C     C_R   0.613968 0.904808 0.551532 0.545898
C48   C     C_R   0.552122 0.800348 0.368399 -0.083918
C49   C     C_R   0.563978 0.788084 0.326667 0.420895
C50   C     C_R   0.661209 0.853409 0.311715 0.031200
C51   C     C_R   0.748376 0.926176 0.338673 -0.185354
C52   C     C_R   0.736587 0.938695 0.380351 -0.137731
C53   C     C_R   0.778431 0.919742 0.174750 -0.187964
C54   C     C_R   0.636804 0.859561 0.584822 0.018948
C55   C     C_R   0.793772 0.906772 0.133363 -0.147558
C56   C     C_R   0.618318 0.752873 0.121375 -0.093026
C57   C     C_R   0.602957 0.766098 0.162689 0.403977
C58   C     C_R   0.684639 0.847364 0.189602 0.038924
C59   C     C_R   0.589608 0.199325 0.570902 0.540930
C60   C     C_1   0.676330 0.850728 0.232655 0.060614
C61   C     C_1   0.669665 0.851500 0.268710 0.060611
C62   C     C_R   0.715635 0.820484 0.106638 -0.037182
C63   C     C_R   0.622656 0.249919 0.613815 -0.042213
C64   C     C_R   0.555814 0.278332 0.636537 -0.090964
C65   C     C_R   0.052187 0.781367 0.063769 0.541618
C66   C     C_R   0.572210 0.302084 0.678946 0.429374
C67   C     C_R   0.656179 0.298541 0.699045 0.047651
C68   C     C_R   0.727590 0.277735 0.676562 -0.188145
C69   C     C_R   0.711204 0.253819 0.634130 -0.149217
C70   C     C_R   0.761773 0.342477 0.845305 -0.103531
C71   C     C_R   0.288986 0.886853 0.548467 0.544061
C72   C     C_R   0.771083 0.368780 0.887651 -0.094555
C73   C     C_R   0.593848 0.350836 0.884830 -0.129967
C74   C     C_R   0.584758 0.324490 0.842521 -0.090844
C75   C     C_R   0.670212 0.324112 0.822660 0.029720
C76   C     C_R   0.744080 0.487043 0.066269 0.543668
C77   C     C_1   0.667343 0.314212 0.779105 0.023622
C78   C     C_1   0.663838 0.307913 0.742616 0.071144
C79   C     C_R   0.689189 0.378102 0.907656 0.010864
C80   C     C_R   0.068002 0.753769 0.908212 0.027528
C81   C     C_R   0.101660 0.852311 0.896772 -0.201069
C82   C     C_R   0.121154 0.866763 0.856497 -0.147220
C83   C     C_R   0.738368 0.451175 0.105890 0.016313
C84   C     C_R   0.108366 0.783143 0.827282 -0.027647
C85   C     C_R   0.083066 0.687107 0.839330 -0.075934
C86   C     C_R   0.063295 0.672247 0.879499 0.379455
C87   C     C_R   0.742996 0.789263 0.066406 0.558427
C88   C     C_R   0.168038 0.751098 0.759447 -0.108937
C89   C     C_R   0.171461 0.757568 0.718126 -0.112729
C90   C     C_R   0.121613 0.806110 0.700562 0.056307
C91   C     C_R   0.067212 0.847223 0.724788 -0.044967
C92   C     C_R   0.064471 0.841434 0.766301 -0.099426
C93   C     C_R   0.115009 0.793397 0.783889 0.033421
C94   C     C_R   0.180492 0.923230 0.647883 0.385352
C95   C     C_R   0.652388 0.436473 0.129327 -0.115781
C96   C     C_R   0.222170 0.942684 0.610320 -0.080908
C97   C     C_R   0.168542 0.759103 0.591239 -0.145337
C98   C     C_R   0.021469 0.731958 0.947330 0.555807
C99   C     C_R   0.125838 0.739286 0.628570 -0.182395
C100  C     C_R   0.136822 0.822011 0.657934 0.027793
C101  C     C_R   0.221902 0.861834 0.582790 -0.036398
C102  C     C_R   0.726485 0.701968 0.901217 0.015020
C103  C     C_R   0.626871 0.636497 0.879211 -0.132439
C104  C     C_R   0.616070 0.635764 0.837055 -0.068198
C105  C     C_R   0.705141 0.699065 0.816825 0.064869
C106  C     C_R   0.805404 0.756960 0.838560 -0.121015
C107  C     C_R   0.656516 0.424384 0.169981 -0.108401
C108  C     C_R   0.815642 0.759070 0.880171 -0.123893
Cr1   Cr    Cr6+3 0.424820 0.846020 0.489780 1.033348
Cr2   Cr    Cr6+3 0.657880 0.078580 0.505700 1.021905
Cr3   Cr    Cr6+3 0.417280 0.075360 0.504550 1.124167
Cr4   Cr    Cr6+3 0.903360 0.812540 0.006510 1.011432
Cr5   Cr    Cr6+3 0.914630 0.587050 0.006280 1.050308
Cr6   Cr    Cr6+3 0.673560 0.582680 0.008540 1.025532
F1    F     F_    0.473804 0.276675 0.413008 -0.531816
F2    F     F_    0.540950 0.362572 0.345025 -0.583376
F3    F     F_    0.204862 0.713795 0.294601 -0.578352
F4    F     F_    0.233092 0.035932 0.408111 -0.564899
F5    F     F_    0.511258 0.695917 0.176754 -0.593752
F6    F     F_    0.479025 0.716691 0.300732 -0.559317
F7    F     F_    0.502526 0.322483 0.700445 -0.563528
F8    F     F_    0.031289 0.575732 0.889189 -0.637449
F9    F     F_    0.193629 0.005196 0.675815 -0.624541
F10   F     F_    0.597566 0.534265 0.748402 -0.594230
H1    H     H_    0.584124 0.439487 0.116922 0.149282
H2    H     H_    0.845479 0.389219 0.904295 0.181942
H3    H     H_    0.852715 0.358772 0.368085 0.149386
H4    H     H_    0.828170 0.341942 0.830117 0.131744
H5    H     H_    0.792986 0.275221 0.691906 0.123657
H6    H     H_    0.764052 0.232212 0.617545 0.149623
H7    H     H_    0.529411 0.357475 0.899199 0.135800
H8    H     H_    0.106833 0.916478 0.918441 0.134698
H9    H     H_    0.091050 0.660566 0.635690 0.124323
H10   H     H_    0.778493 0.272141 0.295459 0.115669
H11   H     H_    0.215945 0.727422 0.700083 0.113676
H12   H     H_    0.898321 0.433739 0.177149 0.129526
H13   H     H_    0.208433 0.714676 0.772455 0.113938
H14   H     H_    0.027944 0.884562 0.711682 0.153427
H15   H     H_    0.262397 0.022534 0.604303 0.161046
H16   H     H_    0.537729 0.590472 0.820794 0.160712
H17   H     H_    0.594306 0.593033 0.678018 0.146962
H18   H     H_    0.590662 0.416196 0.187819 0.142878
H19   H     H_    0.802484 0.979826 0.597636 0.136885
H20   H     H_    0.700282 0.520562 0.321355 0.164488
H21   H     H_    0.713312 0.543911 0.249632 0.128088
H22   H     H_    0.791449 0.277925 0.428884 0.161122
H23   H     H_    0.185364 0.731606 0.102416 0.139953
H24   H     H_    0.247944 0.733793 0.372140 0.178514
H25   H     H_    0.892866 0.457715 0.105842 0.135311
H26   H     H_    0.191063 0.014522 0.330377 0.167138
H27   H     H_    0.841902 0.982969 0.195441 0.120544
H28   H     H_    0.824031 0.976556 0.327308 0.128518
H29   H     H_    0.803536 0.999478 0.400415 0.159380
H30   H     H_    0.487058 0.276146 0.621789 0.161565
H31   H     H_    0.513406 0.310010 0.825153 0.154570
H32   H     H_    0.142804 0.942160 0.847894 0.134241
H33   H     H_    0.022335 0.873855 0.784530 0.097518
H34   H     H_    0.235791 0.770513 0.175726 0.164306
H35   H     H_    0.072516 0.621484 0.817162 0.132460
H36   H     H_    0.165650 0.695178 0.570106 0.148810
H37   H     H_    0.557150 0.590298 0.894707 0.130815
H38   H     H_    0.793684 0.297130 0.223981 0.114858
H39   H     H_    0.893316 0.809040 0.896312 0.137556
H40   H     H_    0.831896 0.916395 0.658066 0.119574
H41   H     H_    0.768155 0.923725 0.724171 0.127626
H42   H     H_    0.780123 0.885824 0.792155 0.123752
H43   H     H_    0.504915 0.666328 0.641803 0.115919
H44   H     H_    0.476386 0.727307 0.580810 0.136938
H45   H     H_    0.095551 0.971739 0.191053 0.116420
H46   H     H_    0.875319 0.805123 0.823645 0.105879
H47   H     H_    0.045015 0.933875 0.117642 0.128910
H48   H     H_    0.869728 0.959728 0.122950 0.142468
H49   H     H_    0.474473 0.753256 0.379085 0.162465
H50   H     H_    0.556673 0.685957 0.101415 0.149646
O1    O     O_R   0.318160 0.824460 0.443680 -0.533914
O2    O     O_R   0.668160 0.499860 0.053480 -0.513558
O3    O     O_R   0.689170 0.693840 0.050110 -0.494731
O4    O     O_R   0.525040 0.857250 0.449830 -0.500098
O5    O     O_R   0.803860 0.812940 0.962540 -0.506839
O6    O     O_R   0.982950 0.787950 0.964120 -0.544856
O7    O     O_R   0.007050 0.649970 0.960540 -0.434197
O8    O     O_R   0.807910 0.482370 0.965590 -0.491925
O9    O     O_R   0.643310 0.460980 0.963840 -0.524138
O10   O     O_R   0.666140 0.657800 0.967020 -0.495587
O11   O     O_3   0.830520 0.660760 0.007110 -0.272435
O12   O     O_R   0.645130 0.163230 0.552140 -0.501293
O13   O     O_R   0.684760 0.998800 0.456360 -0.508796
O14   O     O_R   0.647540 0.166310 0.470260 -0.519070
O15   O     O_R   0.500960 0.181750 0.467450 -0.408886
O16   O     O_R   0.331100 0.981120 0.457080 -0.414210
O17   O     O_R   0.315560 0.821140 0.532010 -0.514400
O18   O     O_R   0.522630 0.854180 0.531710 -0.498599
O19   O     O_R   0.682160 0.995480 0.544690 -0.514823
O20   O     O_R   0.498360 0.178430 0.555780 -0.516558
O21   O     O_R   0.328690 0.978040 0.538950 -0.504156
O22   O     O_3   0.499990 0.999990 0.500010 -0.262383
O23   O     O_R   0.828710 0.851830 0.052170 -0.508456
O24   O     O_R   0.005980 0.823990 0.047210 -0.502136
O25   O     O_R   0.031900 0.688850 0.050170 -0.514116
O26   O     O_R   0.830940 0.518420 0.048680 -0.500097

loop_
_geom_bond_atom_site_label_1
_geom_bond_atom_site_label_2
_ccdc_geom_bond_type
C73   H7    S    
C41   C42   S    
C89   H11   S    
C64   H30   S    
C73   C74   A    
C55   H48   S    
C15   H38   S    
C19   C20   A    
C23   O15   A    
C7    F10   S    
C16   H10   S    
C8    C105  S    
C96   H15   S    
C81   C82   A    
C90   C91   A    
C7    C8    A    
C12   O10   A    
C77   C78   T    
C56   C57   A    
C25   C28   A    
C29   C36   A    
Cr2   O14   S    
C26   C27   A    
C19   H21   S    
Cr6   O11   S    
C59   O12   A    
C22   C24   A    
C37   C38   A    
C72   C79   A    
Cr5   O26   S    
C5    C6    A    
C1    C46   S    
C49   F6    S    
Cr1   O18   S    
C58   C60   S    
C15   C16   A    
C55   C62   A    
C46   C52   A    
C4    H41   S    
C99   H9    S    
Cr1   O22   S    
C17   C18   A    
C18   C19   A    
C2    O8    A    
Cr4   O24   S    
C47   O18   A    
C57   F5    S    
C104  C105  A    
C38   C45   A    
C80   C86   A    
C2    C79   S    
C103  C104  A    
C65   O25   A    
Cr1   O4    S    
C36   H24   S    
Cr5   O7    S    
C63   C69   A    
C16   C17   A    
C86   F8    S    
C39   H47   S    
C31   C33   A    
C102  C108  A    
C25   H22   S    
C9    C10   A    
Cr3   O22   S    
C39   C45   A    
C82   H32   S    
C94   F9    S    
C34   F3    S    
C53   C55   A    
C66   C67   A    
C71   C101  S    
C83   C95   A    
C96   C101  A    
C106  H46   S    
C68   H5    S    
C67   C78   S    
C42   C44   T    
C14   C83   A    
C76   C83   S    
C90   C100  S    
C40   H45   S    
C97   C99   A    
C47   O19   A    
C50   C51   A    
C1    O13   A    
C59   O20   A    
Cr5   O25   S    
C15   C20   A    
C88   H13   S    
C108  H39   S    
C46   C48   A    
Cr2   O13   S    
C103  H37   S    
C9    C43   A    
C74   C75   A    
C67   C68   A    
C17   C27   S    
C97   H36   S    
C9    H43   S    
C76   O2    A    
C84   C85   A    
C3    C8    A    
C76   O26   A    
C91   C92   A    
C31   H26   S    
C69   H6    S    
C81   H8    S    
C30   F4    S    
C25   C26   A    
C85   C86   A    
C92   H33   S    
C104  H16   S    
C56   H50   S    
C60   C61   T    
C107  H18   S    
C64   C66   A    
C37   H34   S    
C12   C102  S    
C29   C30   A    
C87   O3    A    
C91   H14   S    
C1    O4    A    
C95   H1    S    
C71   O21   A    
Cr5   O8    S    
C94   C100  A    
Cr6   O3    S    
Cr5   O11   S    
C20   C21   S    
Cr2   O19   S    
C33   C34   A    
C73   C79   A    
C66   F7    S    
C13   C21   A    
C23   C28   S    
C65   O24   A    
C6    H17   S    
C94   C96   A    
C75   C77   S    
Cr2   O12   S    
C21   C107  A    
C11   C54   A    
C95   C107  A    
Cr3   O16   S    
C47   C54   S    
C23   O14   A    
C40   C41   A    
C51   H28   S    
Cr3   O15   S    
C35   O16   A    
C82   C84   A    
C22   C27   A    
Cr4   O5    S    
C45   C65   S    
C13   H12   S    
C56   C62   A    
C87   O23   A    
C98   O6    A    
C3    C4    A    
Cr4   O23   S    
C39   C40   A    
Cr4   O11   S    
C26   H3    S    
C48   H49   S    
C105  C106  A    
C70   H4    S    
C88   C93   A    
C48   C49   A    
C80   C98   S    
C33   C44   S    
C68   C69   A    
C24   C28   A    
C80   C81   A    
C11   C32   A    
C53   C58   A    
Cr1   O1    S    
C6    C7    A    
C62   C87   S    
C29   C35   S    
C59   C63   S    
C99   C100  A    
Cr4   O6    S    
C84   C93   S    
C98   O7    A    
C18   H20   S    
C52   H29   S    
C35   O1    A    
C51   C52   A    
Cr2   O22   S    
Cr6   O2    S    
C57   C58   A    
C30   C31   A    
C106  C108  A    
Cr1   O17   S    
Cr6   O10   S    
C32   H40   S    
C14   H25   S    
C22   F2    S    
C92   C93   A    
C32   C43   A    
C74   H31   S    
C34   C36   A    
C2    O9    A    
C37   C41   A    
C102  C103  A    
C10   C54   A    
C38   H23   S    
Cr3   O20   S    
C63   C64   A    
C4    C5    A    
C12   O5    A    
C88   C89   A    
C24   F1    S    
C10   H44   S    
C49   C50   A    
C72   H2    S    
C70   C75   A    
C53   H27   S    
C50   C61   S    
C5    C43   S    
C70   C72   A    
C85   H35   S    
C71   O17   A    
C89   C90   A    
C13   C14   A    
C11   H19   S    
C97   C101  A    
Cr6   O9    S    
C3    H42   S    
Cr3   O21   S    
