data_mof_unit_6880.cif
_audit_creation_date              2012-12-10T16:49:30-0500
_audit_creation_method            fapswitch 2.2
_symmetry_space_group_name_H-M    P1
_symmetry_Int_Tables_number       1
_space_group_crystal_system       triclinic
_cell_length_a                    7.821615
_cell_length_b                    8.57967
_cell_length_c                    12.771401
_cell_angle_alpha                 89.56438
_cell_angle_beta                  86.568639
_cell_angle_gamma                 92.79355
_cell_volume                      854.448082155

loop_
_atom_site_label
_atom_site_type_symbol
_atom_type_description
_atom_site_fract_x
_atom_site_fract_y
_atom_site_fract_z
_atom_type_partial_charge
C1    C     C_R   0.455533 0.205771 0.497389 0.942818
C2    C     C_R   0.648991 0.368452 0.143696 0.342406
C3    C     C_R   0.512481 0.395619 0.872339 0.085588
C4    C     C_R   0.487519 0.604381 0.127661 0.085588
C5    C     C_R   0.536672 0.432455 0.977684 0.060566
C6    C     C_R   0.463329 0.567545 0.022316 0.060566
C7    C     C_2   0.431909 0.042636 0.495888 -0.317644
C8    C     C_2   0.568091 0.957364 0.504112 -0.317644
C9    C     C_3   0.437136 0.761162 0.173965 -0.380019
C10   C     C_3   0.553851 0.895179 0.127343 -0.798028
C11   C     C_3   0.562864 0.238838 0.826035 -0.380019
C12   C     C_R   0.544467 0.794229 0.502611 0.942818
C13   C     C_3   0.446149 0.104822 0.872657 -0.798027
C14   C     C_R   0.463372 0.502335 0.699450 0.885792
C15   C     C_R   0.536628 0.497665 0.300550 0.885792
C16   C     C_R   0.565199 0.494322 0.188957 -0.138474
C17   C     C_R   0.434801 0.505678 0.811043 -0.138473
C18   C     C_R   0.363545 0.660173 0.961496 -0.245399
C19   C     C_R   0.636455 0.339827 0.038504 -0.245399
C20   C     C_R   0.351009 0.631548 0.856304 0.342406
Cl1   Cl    Cl    0.763083 0.237201 0.216996 -0.599215
Cl2   Cl    Cl    0.236918 0.762799 0.783003 -0.599215
Cl3   Cl    Cl    0.981616 0.662415 0.377451 -0.473865
Cl4   Cl    Cl    0.018384 0.337585 0.622548 -0.473865
H1    H     H_    0.298782 0.759257 0.993152 0.195948
H2    H     H_    0.315283 0.112655 0.844296 0.301236
H3    H     H_    0.498105 0.992094 0.847445 0.273877
H4    H     H_    0.436246 0.107259 0.959487 0.253880
H5    H     H_    0.551254 0.232546 0.740178 0.223425
H6    H     H_    0.699573 0.218736 0.837501 0.231694
H7    H     H_    0.701219 0.240744 0.006848 0.195948
H8    H     H_    0.302642 0.993149 0.487990 0.216165
H9    H     H_    0.697358 0.006851 0.512009 0.216165
H10   H     H_    0.501895 0.007906 0.152555 0.273877
H11   H     H_    0.563754 0.892742 0.040513 0.253880
H12   H     H_    0.684717 0.887345 0.155704 0.301236
H13   H     H_    0.300427 0.781265 0.162499 0.231695
H14   H     H_    0.448746 0.767454 0.259822 0.223425
N1    N     N_2   0.054030 0.541640 0.471970 0.150426
N2    N     N_2   0.945970 0.458360 0.528030 0.150426
O1    O     O_R   0.609680 0.261530 0.506880 -0.602406
O2    O     O_R   0.390320 0.738470 0.493120 -0.602406
O3    O     O_R   0.323330 0.288220 0.488910 -0.582687
O4    O     O_R   0.676670 0.711780 0.511090 -0.582687
O5    O     O_R   0.619510 0.488830 0.661140 -0.613824
O6    O     O_R   0.380490 0.511170 0.338860 -0.613824
O7    O     O_R   0.333160 0.515520 0.643180 -0.535554
O8    O     O_R   0.666840 0.484480 0.356820 -0.535554
Zn1   Zn    Zn3+2 0.691200 0.482180 0.511990 1.123292
Zn2   Zn    Zn3+2 0.308800 0.517820 0.488010 1.123292

loop_
_geom_bond_atom_site_label_1
_geom_bond_atom_site_label_2
_ccdc_geom_bond_type
O4    Zn1   S    
C4    C16   A    
C10   H12   S    
C13   H4    S    
C10   H11   S    
C5    C19   A    
O7    Zn2   S    
C2    C16   A    
C9    C10   S    
O6    Zn2   S    
O5    Zn1   S    
C8    C12   S    
C19   H7    S    
N1    Zn2   S    
C2    Cl1   S    
C9    H13   S    
C2    C19   A    
C7    C8    D    
O3    Zn2   S    
C11   C13   S    
C14   C17   S    
C14   O7    A    
C18   H1    S    
C15   O8    A    
O2    Zn2   S    
Cl3   N1    S    
O1    Zn1   S    
O8    Zn1   S    
Cl4   N2    S    
C20   Cl2   S    
C3    C17   A    
C14   O5    A    
C18   C20   A    
C8    H9    S    
C5    C6    A    
C6    C18   A    
C13   H2    S    
C4    C6    A    
C3    C11   S    
N2    Zn1   S    
C17   C20   A    
C11   H5    S    
C10   H10   S    
C12   O4    A    
C1    O1    A    
N1    N2    D    
C9    H14   S    
C12   O2    A    
C7    H8    S    
C15   O6    A    
C4    C9    S    
C1    C7    S    
C1    O3    A    
C13   H3    S    
C15   C16   S    
C11   H6    S    
C3    C5    A    
