data_mof_unit_41624.cif
_audit_creation_date              2012-10-26T20:11:43-0400
_audit_creation_method            fapswitch 2.2
_symmetry_space_group_name_H-M    P1
_symmetry_Int_Tables_number       1
_space_group_crystal_system       triclinic
_cell_length_a                    10.862942
_cell_length_b                    15.171127
_cell_length_c                    13.82449
_cell_angle_alpha                 91.233571
_cell_angle_beta                  100.597382
_cell_angle_gamma                 89.608869
_cell_volume                      2238.93032457

loop_
_atom_site_label
_atom_site_type_symbol
_atom_type_description
_atom_site_fract_x
_atom_site_fract_y
_atom_site_fract_z
_atom_type_partial_charge
C1    C     C_R   0.499162 0.329703 0.498670 0.580125
C2    C     C_R   0.601422 0.531933 0.805595 0.051003
C3    C     C_R   0.401379 0.541952 0.094388 0.105979
C4    C     C_R   0.605346 0.533270 0.908322 0.103704
C5    C     C_R   0.499721 0.501887 0.054632 0.062610
C6    C     C_R   0.501618 0.501548 0.945848 0.062728
C7    C     C_R   0.261908 0.496151 0.461978 0.567145
C8    C     C_R   0.738091 0.495384 0.537812 0.581874
C9    C     C_2   0.125649 0.486044 0.445784 -0.107205
C10   C     C_2   0.874484 0.484882 0.553716 -0.105836
C11   C     C_2   0.070515 0.438332 0.507343 0.214591
C12   C     C_R   0.498737 0.670238 0.501102 0.563883
C13   C     C_2   0.930768 0.437657 0.489952 0.215667
C14   C     C_R   0.461992 0.097167 0.574569 -0.154936
C15   C     C_R   0.446015 0.902535 0.416463 -0.159678
C16   C     C_R   0.464525 0.188506 0.574917 -0.208895
C17   C     C_R   0.448684 0.811184 0.416973 -0.212456
C18   C     C_R   0.497024 0.233024 0.495576 -0.025952
C19   C     C_R   0.495821 0.766836 0.503840 -0.021301
C20   C     C_R   0.526103 0.184275 0.414415 0.259688
C21   C     C_R   0.538236 0.815400 0.592012 0.270140
C22   C     C_R   0.536193 0.092238 0.419048 0.255803
C23   C     C_R   0.499676 0.048189 0.497932 0.004736
C24   C     C_R   0.551328 0.907336 0.587570 0.245021
C25   C     C_3   0.929297 0.334424 0.360013 -0.027198
C26   C     C_3   0.844337 0.268650 0.295687 -0.361874
C27   C     C_3   0.076232 0.334127 0.632186 -0.021230
C28   C     C_3   0.164493 0.268746 0.691814 -0.386671
C29   C     C_3   0.328768 0.671437 0.001709 -0.319265
C30   C     C_3   0.702799 0.653990 0.010964 -0.313382
C31   C     C_3   0.451272 0.220043 0.254699 0.025882
C32   C     C_3   0.498013 0.222147 0.157642 -0.368451
C33   C     C_3   0.500474 0.794320 0.748797 0.008484
C34   C     C_R   0.499272 0.951327 0.500753 0.000557
C35   C     C_3   0.382817 0.737467 0.733264 -0.384511
C36   C     C_3   0.705703 0.027267 0.371732 0.005791
C37   C     C_3   0.759578 0.003223 0.280611 -0.374903
C38   C     C_3   0.740043 0.959303 0.665108 0.004455
C39   C     C_3   0.807475 0.009407 0.755667 -0.374768
C40   C     C_R   0.597709 0.462322 0.120430 -0.170764
C41   C     C_R   0.398200 0.469674 0.877837 -0.164783
C42   C     C_R   0.596062 0.462230 0.221833 0.019458
C43   C     C_R   0.399321 0.469432 0.776333 -0.002496
C44   C     C_R   0.404159 0.539743 0.196902 0.044638
Cu1   Cu    Cu3+1 0.500000 0.499990 0.596430 0.962082
Cu2   Cu    Cu3+1 0.500000 0.500010 0.403570 0.964367
H1    H     H_    0.930139 0.516608 0.618324 0.045955
H2    H     H_    0.318886 0.445081 0.725567 0.181190
H3    H     H_    0.329859 0.571486 0.227188 0.120165
H4    H     H_    0.679883 0.558128 0.777593 0.141323
H5    H     H_    0.999888 0.295140 0.410030 0.133955
H6    H     H_    0.976634 0.374704 0.311557 0.127702
H7    H     H_    0.901331 0.223785 0.256989 0.076574
H8    H     H_    0.794109 0.228664 0.342110 0.205148
H9    H     H_    0.775820 0.303207 0.239759 0.147399
H10   H     H_    0.005385 0.294729 0.581028 0.137975
H11   H     H_    0.029573 0.373834 0.683626 0.129595
H12   H     H_    0.069441 0.517967 0.382914 0.045426
H13   H     H_    0.236073 0.303835 0.746398 0.139678
H14   H     H_    0.110502 0.224796 0.731731 0.092094
H15   H     H_    0.211720 0.227762 0.641953 0.152049
H16   H     H_    0.217574 0.584354 0.059830 0.236309
H17   H     H_    0.244965 0.699075 0.953464 0.137201
H18   H     H_    0.405768 0.668066 0.959010 0.158359
H19   H     H_    0.355821 0.716240 0.066732 0.129956
H20   H     H_    0.795594 0.557097 0.944896 0.238366
H21   H     H_    0.790142 0.671753 0.062888 0.140272
H22   H     H_    0.623975 0.658739 0.051705 0.161805
H23   H     H_    0.431107 0.064667 0.634857 0.158347
H24   H     H_    0.688204 0.701643 0.950065 0.130475
H25   H     H_    0.387929 0.277313 0.258834 0.141983
H26   H     H_    0.395491 0.158399 0.254055 0.128486
H27   H     H_    0.559493 0.164339 0.151266 0.163938
H28   H     H_    0.417315 0.220098 0.095328 0.086608
H29   H     H_    0.551807 0.283259 0.153528 0.145740
H30   H     H_    0.472578 0.864988 0.748888 0.156772
H31   H     H_    0.554200 0.781903 0.823565 0.132372
H32   H     H_    0.324170 0.756854 0.788095 0.077339
H33   H     H_    0.327057 0.746603 0.658371 0.142795
H34   H     H_    0.403511 0.935134 0.349559 0.161322
H35   H     H_    0.408443 0.667054 0.743249 0.190196
H36   H     H_    0.718695 0.970014 0.421459 0.123908
H37   H     H_    0.759718 0.084518 0.409437 0.118260
H38   H     H_    0.749300 0.059728 0.229943 0.151365
H39   H     H_    0.860556 0.986829 0.302161 0.084773
H40   H     H_    0.709614 0.945233 0.241954 0.155228
H41   H     H_    0.754289 0.995601 0.598930 0.109366
H42   H     H_    0.782610 0.892317 0.663989 0.148627
H43   H     H_    0.796391 0.974453 0.823309 0.154717
H44   H     H_    0.908760 0.014197 0.753017 0.083670
H45   H     H_    0.438909 0.224377 0.636873 0.147290
H46   H     H_    0.767975 0.076984 0.758097 0.157575
H47   H     H_    0.411052 0.775082 0.349666 0.137560
H48   H     H_    0.674712 0.430587 0.093424 0.120119
H49   H     H_    0.316997 0.444318 0.903158 0.121837
H50   H     H_    0.671817 0.431702 0.271238 0.187623
N1    N     N_R   0.500000 0.500020 0.258690 -0.242238
N2    N     N_R   0.500000 0.499980 0.741310 -0.251081
N3    N     N_2   0.299980 0.584687 0.032768 -0.536374
N4    N     N_2   0.714204 0.565481 0.972545 -0.535738
O1    O     O_R   0.500010 0.371450 0.581440 -0.500955
O2    O     O_3   0.145431 0.389866 0.581318 -0.564852
O3    O     O_3   0.554840 0.226009 0.333436 -0.538811
O4    O     O_3   0.578438 0.772207 0.679807 -0.541527
O5    O     O_3   0.576875 0.046385 0.343172 -0.562964
O6    O     O_3   0.611603 0.954095 0.669520 -0.575726
O7    O     O_R   0.499990 0.628550 0.418560 -0.517153
O8    O     O_R   0.500010 0.371460 0.418560 -0.455674
O9    O     O_R   0.499990 0.628540 0.581440 -0.462108
O10   O     O_R   0.320690 0.500000 0.551510 -0.462718
O11   O     O_R   0.679310 0.500000 0.448490 -0.451703
O12   O     O_R   0.320690 0.500010 0.388630 -0.533017
O13   O     O_R   0.679310 0.499990 0.611370 -0.522485
O14   O     O_3   0.857526 0.389440 0.412730 -0.555514

loop_
_geom_bond_atom_site_label_1
_geom_bond_atom_site_label_2
_ccdc_geom_bond_type
C44   H3    S    
C29   H17   S    
Cu2   O12   S    
C33   O4    S    
C43   N2    A    
C26   H9    S    
C32   H29   S    
C35   H35   S    
C20   O3    S    
C41   H49   S    
Cu1   Cu2   S    
C1    C18   S    
C42   H50   S    
C37   H39   S    
C36   C37   S    
C19   C21   A    
Cu1   N2    S    
C32   H28   S    
C38   C39   S    
Cu1   O9    S    
C36   H37   S    
C30   N4    S    
C7    O12   A    
C15   C17   A    
C9    H12   S    
H20   N4    S    
C2    H4    S    
C17   C19   A    
C21   O4    S    
C31   C32   S    
C36   H36   S    
C6    C41   A    
Cu2   O8    S    
C37   H38   S    
C43   H2    S    
C15   C34   A    
C13   O14   S    
C28   H15   S    
C40   C42   A    
C29   H18   S    
Cu2   O11   S    
C41   C43   A    
C26   H8    S    
C12   O9    A    
C30   H24   S    
C28   H14   S    
C3    C44   A    
C29   N3    S    
C37   H40   S    
C4    C6    A    
C27   H11   S    
C8    O11   A    
C32   H27   S    
C27   H10   S    
C35   H32   S    
C25   C26   S    
C24   C34   A    
C38   H42   S    
C31   O3    S    
C14   C23   A    
C38   O6    S    
C2    C4    A    
C25   H5    S    
C3    N3    S    
C44   N1    A    
C33   H30   S    
C15   H34   S    
C23   C34   S    
Cu2   O7    S    
C9    C11   D    
Cu1   O1    S    
C8    O13   A    
C29   H19   S    
C16   C18   A    
C31   H26   S    
Cu2   N1    S    
C20   C22   A    
C4    N4    S    
C14   H23   S    
C14   C16   A    
C42   N1    A    
C17   H47   S    
C26   H7    S    
C1    O1    A    
C39   H46   S    
C27   C28   S    
C28   H13   S    
C7    C9    S    
C39   H44   S    
C36   O5    S    
Cu1   O10   S    
C30   H21   S    
C40   H48   S    
C3    C5    A    
C10   C13   D    
C12   O7    A    
C22   O5    S    
C27   O2    S    
C7    O10   A    
C38   H41   S    
C25   H6    S    
C25   O14   S    
C11   C13   S    
C33   H31   S    
C5    C6    S    
C12   C19   S    
C35   H33   S    
C33   C35   S    
C11   O2    S    
C18   C20   A    
C1    O8    A    
H16   N3    S    
Cu1   O13   S    
C24   O6    S    
C2    N2    A    
C16   H45   S    
C8    C10   S    
C21   C24   A    
C10   H1    S    
C22   C23   A    
C5    C40   A    
C39   H43   S    
C30   H22   S    
C31   H25   S    
