data_mof_unit_34071.cif
_audit_creation_date              2012-12-11T14:14:33-0500
_audit_creation_method            fapswitch 2.2
_symmetry_space_group_name_H-M    P1
_symmetry_Int_Tables_number       1
_space_group_crystal_system       monoclinic
_cell_length_a                    24.428932
_cell_length_b                    17.254769
_cell_length_c                    15.580218
_cell_angle_alpha                 90.0
_cell_angle_beta                  128.997302
_cell_angle_gamma                 90.0
_cell_volume                      5103.94886136

loop_
_atom_site_label
_atom_site_type_symbol
_atom_type_description
_atom_site_fract_x
_atom_site_fract_y
_atom_site_fract_z
_atom_type_partial_charge
C1    C     C_R   0.332777 0.395444 0.198650 -0.131744
C2    C     C_R   0.667223 0.395444 0.801350 -0.131745
C3    C     C_R   0.832777 0.895444 0.198650 -0.131744
C4    C     C_R   0.167223 0.895444 0.801350 -0.131744
C5    C     C_R   0.388906 0.609430 0.592317 -0.124455
C6    C     C_R   0.611094 0.609430 0.407683 -0.124455
C7    C     C_R   0.888906 0.109430 0.592317 -0.124455
C8    C     C_R   0.111094 0.109430 0.407683 -0.124455
C9    C     C_R   0.322465 0.631790 0.500606 0.136731
C10   C     C_R   0.677535 0.631791 0.499394 0.136731
C11   C     C_R   0.822465 0.131790 0.500606 0.136731
C12   C     C_R   0.177535 0.131790 0.499394 0.136731
C13   C     C_R   0.381346 0.681418 0.207935 0.148929
C14   C     C_R   0.618654 0.681418 0.792065 0.148929
C15   C     C_R   0.881347 0.181418 0.207936 0.148928
C16   C     C_R   0.118654 0.181418 0.792065 0.148929
C17   C     C_2   0.734805 0.656225 0.417906 -0.117782
C18   C     C_2   0.265194 0.656225 0.582094 -0.117782
C19   C     C_2   0.234805 0.156224 0.417906 -0.117782
C20   C     C_2   0.765194 0.156225 0.582094 -0.117782
C21   C     C_2   0.733698 0.663362 0.502546 -0.195276
C22   C     C_2   0.266302 0.663360 0.497453 -0.195276
C23   C     C_2   0.233698 0.163360 0.502547 -0.195276
C24   C     C_2   0.766302 0.163360 0.497453 -0.195276
C25   C     C_2   0.281666 0.204651 0.411998 -0.109294
C26   C     C_2   0.718334 0.204651 0.588002 -0.109294
C27   C     C_2   0.781666 0.704650 0.411998 -0.109294
C28   C     C_2   0.218334 0.704651 0.588002 -0.109294
C29   C     C_2   0.340126 0.236015 0.503009 -0.191496
C30   C     C_2   0.659874 0.236015 0.496991 -0.191497
C31   C     C_2   0.840126 0.736015 0.503009 -0.191497
C32   C     C_2   0.159874 0.736015 0.496991 -0.191496
C33   C     C_2   0.692877 0.347949 0.978135 -0.224791
C34   C     C_2   0.307123 0.347950 0.021865 -0.224791
C35   C     C_2   0.192877 0.847950 0.978135 -0.224791
C36   C     C_2   0.807123 0.847950 0.021865 -0.224791
C37   C     C_2   0.762761 0.346346 0.037519 -0.109399
C38   C     C_2   0.237239 0.346346 0.962481 -0.109399
C39   C     C_2   0.262761 0.846346 0.037519 -0.109398
C40   C     C_2   0.737239 0.846346 0.962481 -0.109399
C41   C     C_2   0.356202 0.753880 0.145783 -0.218733
C42   C     C_2   0.643798 0.753880 0.854218 -0.218734
C43   C     C_2   0.856202 0.253880 0.145782 -0.218733
C44   C     C_2   0.143798 0.253880 0.854218 -0.218734
C45   C     C_R   0.586199 0.356347 0.407844 -0.148247
C46   C     C_R   0.413801 0.356347 0.592156 -0.148246
C47   C     C_R   0.086199 0.856347 0.407844 -0.148248
C48   C     C_R   0.913801 0.856347 0.592156 -0.148247
C49   C     C_2   0.303799 0.793480 0.130728 -0.106722
C50   C     C_2   0.696201 0.793480 0.869272 -0.106723
C51   C     C_2   0.803799 0.293480 0.130728 -0.106723
C52   C     C_2   0.196201 0.293480 0.869272 -0.106722
C53   C     C_R   0.660855 0.356553 0.592227 -0.115013
C54   C     C_R   0.339145 0.356553 0.407773 -0.115013
C55   C     C_R   0.160855 0.856553 0.592227 -0.115013
C56   C     C_R   0.839145 0.856553 0.407773 -0.115013
C57   C     C_R   0.576818 0.392959 0.801713 -0.160957
C58   C     C_R   0.423182 0.392959 0.198287 -0.160957
C59   C     C_R   0.076818 0.892960 0.801713 -0.160957
C60   C     C_R   0.923182 0.892960 0.198287 -0.160957
C61   C     C_R   0.352766 0.374994 0.136205 0.156121
C62   C     C_R   0.647234 0.374994 0.863795 0.156121
C63   C     C_R   0.852766 0.874994 0.136205 0.156121
C64   C     C_R   0.147234 0.874994 0.863795 0.156121
C65   C     C_R   0.635766 0.312349 0.499911 0.132966
C66   C     C_R   0.364234 0.312349 0.500089 0.132965
C67   C     C_R   0.135766 0.812349 0.499911 0.132966
C68   C     C_R   0.864234 0.812349 0.500089 0.132966
C69   C     C_R   0.315066 0.610762 0.408679 -0.158119
C70   C     C_R   0.684933 0.610762 0.591321 -0.158118
C71   C     C_R   0.815066 0.110762 0.408679 -0.158118
C72   C     C_R   0.184933 0.110762 0.591321 -0.158118
C73   C     C_R   0.440592 0.640841 0.240246 -0.149796
C74   C     C_R   0.559408 0.640841 0.759754 -0.149795
C75   C     C_R   0.940591 0.140841 0.240246 -0.149795
C76   C     C_R   0.059408 0.140841 0.759754 -0.149794
C77   C     C_R   0.651295 0.638875 0.759689 -0.119435
C78   C     C_R   0.348705 0.638875 0.240311 -0.119436
C79   C     C_R   0.151295 0.138875 0.759689 -0.119435
C80   C     C_R   0.848705 0.138875 0.240311 -0.119435
H1    H     H_    0.279792 0.399438 0.171192 0.080503
H2    H     H_    0.720208 0.399438 0.828808 0.080503
H3    H     H_    0.779792 0.899439 0.171192 0.080503
H4    H     H_    0.220208 0.899439 0.828808 0.080503
H5    H     H_    0.772653 0.697297 0.575251 0.129683
H6    H     H_    0.227346 0.697294 0.424747 0.129682
H7    H     H_    0.272654 0.197295 0.575253 0.129682
H8    H     H_    0.727346 0.197294 0.424747 0.129682
H9    H     H_    0.260465 0.224751 0.330424 0.117058
H10   H     H_    0.739535 0.224752 0.669576 0.117058
H11   H     H_    0.760466 0.724751 0.330424 0.117058
H12   H     H_    0.239535 0.724752 0.669576 0.117058
H13   H     H_    0.364076 0.212024 0.584054 0.128470
H14   H     H_    0.635924 0.212024 0.415946 0.128471
H15   H     H_    0.864076 0.712024 0.584055 0.128471
H16   H     H_    0.135924 0.712024 0.415946 0.128471
H17   H     H_    0.283311 0.777139 0.173012 0.126625
H18   H     H_    0.716688 0.777139 0.826987 0.126625
H19   H     H_    0.783312 0.277139 0.173013 0.126625
H20   H     H_    0.216688 0.277139 0.826987 0.126625
H21   H     H_    0.787971 0.372135 0.006816 0.125124
H22   H     H_    0.212029 0.372135 0.993183 0.125124
H23   H     H_    0.287971 0.872135 0.006816 0.125123
H24   H     H_    0.712028 0.872135 0.993183 0.125124
H25   H     H_    0.375966 0.770453 0.102389 0.128037
H26   H     H_    0.624034 0.770453 0.897612 0.128038
H27   H     H_    0.875966 0.270452 0.102388 0.128038
H28   H     H_    0.124034 0.270453 0.897611 0.128038
H29   H     H_    0.668301 0.321180 0.009528 0.128136
H30   H     H_    0.331699 0.321180 0.990471 0.128135
H31   H     H_    0.168301 0.821180 0.009529 0.128135
H32   H     H_    0.831699 0.821180 0.990471 0.128136
H33   H     H_    0.556609 0.339094 0.322684 0.097571
H34   H     H_    0.443391 0.339094 0.677315 0.097570
H35   H     H_    0.056609 0.839094 0.322684 0.097571
H36   H     H_    0.943391 0.839094 0.677315 0.097571
H37   H     H_    0.699858 0.340288 0.677604 0.090069
H38   H     H_    0.300141 0.340288 0.322396 0.090069
H39   H     H_    0.199858 0.840288 0.677604 0.090069
H40   H     H_    0.800142 0.840288 0.322396 0.090069
H41   H     H_    0.266309 0.609388 0.324731 0.090871
H42   H     H_    0.733691 0.609389 0.675269 0.090871
H43   H     H_    0.766309 0.109388 0.324731 0.090870
H44   H     H_    0.233691 0.109388 0.675269 0.090870
H45   H     H_    0.477023 0.657154 0.226145 0.097670
H46   H     H_    0.522977 0.657154 0.773855 0.097669
H47   H     H_    0.977023 0.157154 0.226145 0.097669
H48   H     H_    0.022977 0.157154 0.773855 0.097669
H49   H     H_    0.699923 0.652122 0.775128 0.086912
H50   H     H_    0.300077 0.652122 0.224873 0.086912
H51   H     H_    0.199923 0.152122 0.775128 0.086912
H52   H     H_    0.800077 0.152122 0.224873 0.086912
H53   H     H_    0.408786 0.608022 0.676911 0.082053
H54   H     H_    0.591213 0.608022 0.323089 0.082053
H55   H     H_    0.908786 0.108022 0.676911 0.082053
H56   H     H_    0.091214 0.108022 0.323089 0.082053
N1    N     N_R   0.389060 0.424180 0.294540 -0.042285
N2    N     N_R   0.610940 0.424180 0.705460 -0.042284
N3    N     N_R   0.889060 0.924180 0.294540 -0.042285
N4    N     N_R   0.110940 0.924180 0.705460 -0.042285
N5    N     N_R   0.579670 0.423790 0.443360 -0.041174
N6    N     N_R   0.420330 0.423790 0.556640 -0.041174
N7    N     N_R   0.079670 0.923790 0.443360 -0.041174
N8    N     N_R   0.920330 0.923790 0.556640 -0.041174
N9    N     N_R   0.625470 0.423490 0.556600 -0.044718
N10   N     N_R   0.374530 0.423490 0.443400 -0.044718
N11   N     N_R   0.125470 0.923490 0.556600 -0.044718
N12   N     N_R   0.874530 0.923490 0.443400 -0.044718
N13   N     N_R   0.555250 0.423100 0.705420 -0.038447
N14   N     N_R   0.444750 0.423100 0.294580 -0.038448
N15   N     N_R   0.055250 0.923100 0.705420 -0.038447
N16   N     N_R   0.944750 0.923100 0.294580 -0.038447
N17   N     N_R   0.375210 0.577180 0.443400 -0.038834
N18   N     N_R   0.624790 0.577180 0.556600 -0.038834
N19   N     N_R   0.875210 0.077180 0.443400 -0.038834
N20   N     N_R   0.124790 0.077180 0.556600 -0.038834
N21   N     N_R   0.445430 0.577570 0.294580 -0.041563
N22   N     N_R   0.554570 0.577570 0.705420 -0.041563
N23   N     N_R   0.945430 0.077570 0.294580 -0.041563
N24   N     N_R   0.054570 0.077570 0.705420 -0.041563
N25   N     N_R   0.611620 0.576500 0.705460 -0.043800
N26   N     N_R   0.388380 0.576500 0.294540 -0.043800
N27   N     N_R   0.111620 0.076500 0.705460 -0.043800
N28   N     N_R   0.888380 0.076500 0.294540 -0.043800
N29   N     N_R   0.421010 0.576890 0.556640 -0.041214
N30   N     N_R   0.578990 0.576890 0.443360 -0.041214
N31   N     N_R   0.921010 0.076890 0.556640 -0.041214
N32   N     N_R   0.078990 0.076890 0.443360 -0.041214
Ni1   Ni    Ni4+2 0.383200 0.500680 0.370150 0.210308
Ni2   Ni    Ni4+2 0.616800 0.500680 0.629850 0.210308
Ni3   Ni    Ni4+2 0.883200 0.000680 0.370150 0.210308
Ni4   Ni    Ni4+2 0.116800 0.000680 0.629850 0.210308
Ni5   Ni    Ni4+2 0.512440 0.500680 0.370150 0.210124
Ni6   Ni    Ni4+2 0.487560 0.500680 0.629850 0.210124
Ni7   Ni    Ni4+2 0.012440 0.000680 0.370150 0.210124
Ni8   Ni    Ni4+2 0.987560 0.000680 0.629850 0.210124
H57   H     H_    0.547163 0.395258 0.831675 0.091147
H58   H     H_    0.452837 0.395258 0.168325 0.091147
H59   H     H_    0.047163 0.895258 0.831675 0.091147
H60   H     H_    0.952837 0.895258 0.168325 0.091147
H61   H     H_    0.694104 0.623721 0.344654 0.118189
H62   H     H_    0.305897 0.623722 0.655347 0.118188
H63   H     H_    0.194103 0.123722 0.344653 0.118189
H64   H     H_    0.805897 0.123722 0.655347 0.118188

loop_
_geom_bond_atom_site_label_1
_geom_bond_atom_site_label_2
_ccdc_geom_bond_type
N32   Ni7   S    
C15   C75   A    
C6    N30   A    
C72   N20   A    
C73   N21   A    
C8    H56   S    
N24   Ni8   S    
N6    N10   A    
C35   C39   D    
N7    Ni7   S    
N8    N12   A    
C13   C41   S    
C1    N1    A    
C57   C62   A    
N6    Ni6   S    
C55   H39   S    
N7    N11   A    
C12   C23   S    
C48   N8    A    
C59   C64   A    
C41   H25   S    
C60   C63   A    
C80   H52   S    
C14   C74   A    
C71   H43   S    
C9    C69   A    
C46   C66   A    
C37   C51   S    
C53   H37   S    
C9    C22   S    
N31   Ni8   S    
C4    N4    A    
C18   H62   S    
C1    H1    S    
C47   N7    A    
N3    N16   A    
N12   Ni3   S    
N18   Ni2   S    
N13   Ni6   S    
C60   N16   A    
C14   C77   A    
C41   C49   D    
C80   N28   A    
C37   H21   S    
N22   N25   A    
C13   C78   A    
N16   Ni7   S    
N22   Ni6   S    
C20   C24   D    
N19   N31   A    
C33   C62   S    
C57   N13   A    
C36   H32   S    
C27   H11   S    
C35   C64   S    
C5    N29   A    
C36   C63   S    
C53   C65   A    
C16   C44   S    
N1    Ni1   S    
N5    N9    A    
C20   H64   S    
C69   H41   S    
C44   C52   D    
C58   C61   A    
C16   C76   A    
C12   C72   A    
C79   H51   S    
N2    N13   A    
C23   H7    S    
C26   C30   D    
C72   H44   S    
C25   C29   D    
C56   H40   S    
C47   C67   A    
C29   H13   S    
C7    C11   A    
C44   H28   S    
C10   C21   S    
C77   N25   A    
C31   C68   S    
C21   H5    S    
C50   H18   S    
C8    N32   A    
C46   H34   S    
C27   C31   D    
C17   C27   S    
N24   N27   A    
C28   C32   D    
C18   C28   S    
C46   N6    A    
C19   H63   S    
C74   N22   A    
C30   H14   S    
C77   H49   S    
N29   Ni6   S    
C56   C68   A    
C52   H20   S    
C34   C61   S    
C33   C37   D    
C2    N2    A    
C56   N12   A    
C19   C23   D    
C7    H55   S    
C17   H61   S    
C40   H24   S    
C51   H19   S    
C24   H8    S    
C70   H42   S    
C55   N11   A    
C15   C80   A    
C4    H4    S    
C36   C40   D    
C26   H10   S    
C8    C12   A    
C71   N19   A    
N8    Ni8   S    
C53   N9    A    
C5    H53   S    
C58   H58   S    
C43   H27   S    
C14   C42   S    
C48   C68   A    
N3    Ni3   S    
N27   Ni4   S    
C42   H26   S    
N4    N15   A    
C47   H35   S    
C42   C50   D    
C32   C67   S    
N25   Ni2   S    
C10   C70   A    
C11   C24   S    
C39   C49   S    
C13   C73   A    
C78   N26   A    
C59   N15   A    
N5    Ni5   S    
C3    H3    S    
C76   H48   S    
N1    N14   A    
C2    H2    S    
C3    N3    A    
C73   H45   S    
C70   N18   A    
C35   H31   S    
N11   Ni4   S    
C75   N23   A    
C7    N31   A    
N9    Ni2   S    
C76   N24   A    
N30   Ni5   S    
N15   Ni8   S    
N17   N29   A    
C34   C38   D    
C25   H9    S    
N19   Ni3   S    
C79   N27   A    
C1    C61   A    
C6    C10   A    
C55   C67   A    
C39   H23   S    
C54   C66   A    
C18   C22   D    
C3    C63   A    
C60   H60   S    
C4    C64   A    
C45   N5    A    
C48   H36   S    
C54   N10   A    
C16   C79   A    
C45   C65   A    
C54   H38   S    
C78   H50   S    
C15   C43   S    
C6    H54   S    
C57   H57   S    
C32   H16   S    
C43   C51   D    
C74   H46   S    
N26   Ni1   S    
C20   C26   S    
C31   H15   S    
C38   C52   S    
C59   H59   S    
N20   Ni4   S    
C11   C71   A    
C22   H6    S    
C38   H22   S    
C19   C25   S    
C69   N17   A    
C30   C65   S    
C49   H17   S    
C29   C66   S    
C28   H12   S    
C45   H33   S    
C40   C50   S    
N14   Ni5   S    
C33   H29   S    
N4    Ni4   S    
N10   Ni1   S    
N17   Ni1   S    
N20   N32   A    
N23   N28   A    
N18   N30   A    
N28   Ni3   S    
N23   Ni7   S    
C5    C9    A    
C34   H30   S    
C2    C62   A    
N21   N26   A    
C58   N14   A    
N21   Ni5   S    
N2    Ni2   S    
C75   H47   S    
C17   C21   D    
