data_mof_unit_61679.cif
_audit_creation_date              2013-03-05T16:19:27-0500
_audit_creation_method            fapswitch 2.2
_symmetry_space_group_name_H-M    P1
_symmetry_Int_Tables_number       1
_space_group_crystal_system       triclinic
_cell_length_a                    38.90369
_cell_length_b                    38.903906
_cell_length_c                    47.103588
_cell_angle_alpha                 89.999893
_cell_angle_beta                  90.000023
_cell_angle_gamma                 90.0
_cell_volume                      71291.5394517

loop_
_atom_site_label
_atom_site_type_symbol
_atom_site_description
_atom_site_fract_x
_atom_site_fract_y
_atom_site_fract_z
_atom_type_partial_charge
O1    O     O_R   0.550920 0.971200 0.999980 -0.615321
O2    O     O_R   0.028800 0.550920 0.999980 -0.615368
O3    O     O_R   0.449080 0.028800 0.999980 -0.615331
O4    O     O_R   0.971200 0.449080 0.999980 -0.615378
O5    O     O_R   0.550920 0.028800 0.000020 -0.615332
O6    O     O_R   0.028800 0.449080 0.000020 -0.615382
O7    O     O_R   0.449080 0.971200 0.000020 -0.615343
O8    O     O_R   0.971200 0.550920 0.000020 -0.615365
O9    O     O_R   0.050920 0.471200 0.499980 -0.615331
O10   O     O_R   0.528800 0.050920 0.499980 -0.615371
O11   O     O_R   0.949080 0.528800 0.499980 -0.615369
O12   O     O_R   0.471200 0.949080 0.499980 -0.615364
O13   O     O_R   0.050920 0.528800 0.500020 -0.615334
O14   O     O_R   0.528800 0.949080 0.500020 -0.615370
O15   O     O_R   0.949080 0.471200 0.500020 -0.615369
O16   O     O_R   0.471200 0.050920 0.500020 -0.615377
C1    C     C_R   0.567207 0.000000 1.000000 0.958476
C2    C     C_R   0.000000 0.567208 1.000000 0.958596
C3    C     C_R   0.432793 0.000000 1.000000 0.958494
C4    C     C_R   0.000000 0.432791 0.000000 0.958615
C5    C     C_R   0.067207 0.500000 0.500000 0.958498
C6    C     C_R   0.500000 0.067209 0.500000 0.958602
C7    C     C_R   0.932791 0.500000 0.500000 0.958553
C8    C     C_R   0.500000 0.932791 0.500000 0.958592
O17   O     O_R   0.499990 0.971200 0.958070 -0.591703
O18   O     O_R   0.028800 0.499990 0.958070 -0.591735
O19   O     O_R   0.500010 0.028800 0.958070 -0.591693
O20   O     O_R   0.971200 0.500010 0.958070 -0.591722
O21   O     O_R   0.499990 0.028800 0.041930 -0.591711
O22   O     O_R   0.028800 0.500010 0.041930 -0.591722
O23   O     O_R   0.500010 0.971200 0.041930 -0.591704
O24   O     O_R   0.971200 0.499990 0.041930 -0.591735
O25   O     O_R   0.999990 0.471200 0.458070 -0.591725
O26   O     O_R   0.528800 0.999990 0.458070 -0.591719
O27   O     O_R   0.000010 0.528800 0.458070 -0.591692
O28   O     O_R   0.471200 0.000010 0.458070 -0.591728
O29   O     O_R   0.999990 0.528800 0.541930 -0.591726
O30   O     O_R   0.528800 0.000010 0.541930 -0.591732
O31   O     O_R   0.000010 0.471200 0.541930 -0.591694
O32   O     O_R   0.471200 0.999990 0.541930 -0.591726
C9    C     C_R   0.500000 0.000000 0.944708 1.006999
C10   C     C_R   1.000000 0.500000 0.944709 1.007076
C11   C     C_R   0.500000 1.000000 0.055291 1.007034
C12   C     C_R   0.000000 0.500000 0.055291 1.007078
C13   C     C_R   0.999999 0.500000 0.444709 1.007030
C14   C     C_R   0.500000 0.000000 0.444709 1.007060
C15   C     C_R   0.999999 0.500000 0.555291 1.007030
C16   C     C_R   0.500000 0.000000 0.555291 1.007084
Zn1   Zn    Zn3+2 0.500000 0.961560 0.000000 1.073654
Zn2   Zn    Zn3+2 0.038440 0.500000 0.000000 1.073624
Zn3   Zn    Zn3+2 0.500000 0.038440 0.000000 1.073657
Zn4   Zn    Zn3+2 0.961560 0.500000 0.000000 1.073625
Zn5   Zn    Zn3+2 0.000000 0.461560 0.500000 1.073648
Zn6   Zn    Zn3+2 0.538440 0.000000 0.500000 1.073631
Zn7   Zn    Zn3+2 0.000000 0.538440 0.500000 1.073646
Zn8   Zn    Zn3+2 0.461560 0.000000 0.500000 1.073628
C17   C     C_R   0.522412 0.021029 0.690405 0.528777
C18   C     C_R   0.978951 0.522395 0.690406 0.528776
C19   C     C_R   0.477583 0.978977 0.690405 0.528776
C20   C     C_R   0.021026 0.477587 0.690405 0.528777
C21   C     C_R   0.522410 0.978968 0.309595 0.528778
C22   C     C_R   0.978955 0.477602 0.309594 0.528777
C23   C     C_R   0.477591 0.021032 0.309595 0.528776
C24   C     C_R   0.021031 0.522409 0.309595 0.528777
C25   C     C_R   0.022410 0.521031 0.190405 0.528776
C26   C     C_R   0.478964 0.022405 0.190405 0.528781
C27   C     C_R   0.977585 0.478974 0.190405 0.528774
C28   C     C_R   0.521034 0.977593 0.190405 0.528780
C29   C     C_R   0.022404 0.478962 0.809595 0.528774
C30   C     C_R   0.478956 0.977602 0.809594 0.528781
C31   C     C_R   0.977580 0.521020 0.809595 0.528775
C32   C     C_R   0.521038 0.022404 0.809594 0.528780
N1    N     N_R   0.499998 0.000003 0.676160 -0.338500
N2    N     N_R   0.999989 0.499991 0.676160 -0.338498
N3    N     N_R   0.500000 0.000000 0.323840 -0.338500
N4    N     N_R   0.999993 0.500005 0.323840 -0.338498
N5    N     N_R   0.999998 0.500002 0.176160 -0.338500
N6    N     N_R   0.499999 0.999999 0.176160 -0.338498
N7    N     N_R   0.999993 0.499992 0.823840 -0.338499
N8    N     N_R   0.499997 0.000003 0.823839 -0.338498
C33   C     C_R   0.477538 0.978119 0.720126 -0.026640
C34   C     C_R   0.021884 0.477542 0.720126 -0.026640
C35   C     C_R   0.522456 0.021887 0.720126 -0.026639
C36   C     C_R   0.978093 0.522438 0.720127 -0.026639
C37   C     C_R   0.477546 0.021889 0.279873 -0.026638
C38   C     C_R   0.021889 0.522453 0.279873 -0.026641
C39   C     C_R   0.522453 0.978110 0.279873 -0.026639
C40   C     C_R   0.978098 0.477558 0.279873 -0.026638
C41   C     C_R   0.977539 0.478117 0.220126 -0.026640
C42   C     C_R   0.521892 0.977549 0.220127 -0.026641
C43   C     C_R   0.022453 0.521890 0.220127 -0.026640
C44   C     C_R   0.478107 0.022450 0.220127 -0.026642
C45   C     C_R   0.977534 0.521877 0.779874 -0.026640
C46   C     C_R   0.521895 0.022448 0.779873 -0.026641
C47   C     C_R   0.022447 0.478103 0.779873 -0.026639
C48   C     C_R   0.478098 0.977558 0.779873 -0.026642
C49   C     C_R   0.499997 0.000003 0.735043 -0.015815
C50   C     C_R   0.999989 0.499990 0.735044 -0.015816
C51   C     C_R   0.500000 1.000000 0.264957 -0.015815
C52   C     C_R   0.999994 0.500005 0.264956 -0.015817
C53   C     C_R   0.999995 0.500004 0.235043 -0.015816
C54   C     C_R   0.499999 0.999999 0.235043 -0.015816
C55   C     C_R   0.999990 0.499990 0.764957 -0.015816
C56   C     C_R   0.499997 0.000003 0.764956 -0.015816
C57   C     C_R   0.455564 0.956047 0.735207 -0.143241
C58   C     C_R   0.043968 0.455580 0.735207 -0.143243
C59   C     C_R   0.544429 0.043960 0.735207 -0.143243
C60   C     C_R   0.956010 0.544400 0.735208 -0.143243
C61   C     C_R   0.455579 0.043968 0.264793 -0.143242
C62   C     C_R   0.043974 0.544414 0.264793 -0.143242
C63   C     C_R   0.544421 0.956032 0.264793 -0.143242
C64   C     C_R   0.956014 0.455596 0.264792 -0.143243
C65   C     C_R   0.955568 0.456043 0.235207 -0.143244
C66   C     C_R   0.543973 0.955584 0.235207 -0.143241
C67   C     C_R   0.044422 0.543966 0.235207 -0.143244
C68   C     C_R   0.456025 0.044414 0.235207 -0.143242
C69   C     C_R   0.955564 0.543953 0.764794 -0.143243
C70   C     C_R   0.543982 0.044407 0.764793 -0.143242
C71   C     C_R   0.044415 0.456027 0.764792 -0.143243
C72   C     C_R   0.456011 0.955600 0.764792 -0.143241
O33   O     O_2   0.544810 0.040804 0.675840 -0.535978
O34   O     O_2   0.959166 0.544783 0.675841 -0.535979
O35   O     O_2   0.455186 0.959202 0.675840 -0.535976
O36   O     O_2   0.040811 0.455199 0.675840 -0.535975
O37   O     O_2   0.544803 0.959189 0.324160 -0.535979
O38   O     O_2   0.959169 0.455215 0.324159 -0.535980
O39   O     O_2   0.455198 0.040812 0.324160 -0.535979
O40   O     O_2   0.040816 0.544797 0.324160 -0.535975
O41   O     O_2   0.044806 0.540807 0.175840 -0.535978
O42   O     O_2   0.459181 0.044795 0.175840 -0.535974
O43   O     O_2   0.955190 0.459197 0.175839 -0.535979
O44   O     O_2   0.540817 0.955202 0.175840 -0.535974
O45   O     O_2   0.044800 0.459185 0.824159 -0.535980
O46   O     O_2   0.459166 0.955218 0.824159 -0.535974
O47   O     O_2   0.955186 0.540798 0.824161 -0.535978
O48   O     O_2   0.540827 0.044788 0.824160 -0.535973
H1    H     H_    0.438104 0.938922 0.724218 0.197894
H2    H     H_    0.061101 0.438128 0.724218 0.197894
H3    H     H_    0.561890 0.061084 0.724219 0.197893
H4    H     H_    0.938876 0.561852 0.724220 0.197895
H5    H     H_    0.438123 0.061097 0.275781 0.197894
H6    H     H_    0.061108 0.561865 0.275781 0.197894
H7    H     H_    0.561877 0.938903 0.275781 0.197893
H8    H     H_    0.938879 0.438145 0.275780 0.197894
H9    H     H_    0.938110 0.438916 0.224218 0.197894
H10   H     H_    0.561105 0.938131 0.224219 0.197893
H11   H     H_    0.061881 0.561092 0.224219 0.197894
H12   H     H_    0.438894 0.061868 0.224219 0.197894
H13   H     H_    0.938107 0.561080 0.775782 0.197894
H14   H     H_    0.561118 0.061856 0.775781 0.197893
H15   H     H_    0.061874 0.438900 0.775780 0.197893
H16   H     H_    0.438875 0.938151 0.775780 0.197894
C73   C     C_R   0.530435 0.993650 0.869142 -0.136051
C74   C     C_R   0.006331 0.530435 0.869142 -0.136038
C75   C     C_R   0.469560 0.006353 0.869143 -0.136045
C76   C     C_R   0.993663 0.469554 0.869145 -0.136027
C77   C     C_R   0.530438 0.006342 0.130857 -0.136050
C78   C     C_R   0.006332 0.469560 0.130857 -0.136029
C79   C     C_R   0.469560 0.993656 0.130857 -0.136047
C80   C     C_R   0.993666 0.530442 0.130856 -0.136036
C81   C     C_R   0.030433 0.493658 0.369142 -0.136048
C82   C     C_R   0.506337 0.030440 0.369143 -0.136027
C83   C     C_R   0.969556 0.506348 0.369144 -0.136027
C84   C     C_R   0.493663 0.969560 0.369143 -0.136034
C85   C     C_R   0.030431 0.506340 0.630859 -0.136050
C86   C     C_R   0.506331 0.969561 0.630857 -0.136033
C87   C     C_R   0.969553 0.493652 0.630855 -0.136026
C88   C     C_R   0.493667 0.030443 0.630856 -0.136031
H17   H     H_    0.553803 0.988344 0.857428 0.197115
H18   H     H_    0.011622 0.553806 0.857427 0.197120
H19   H     H_    0.446191 0.011659 0.857430 0.197116
H20   H     H_    0.988370 0.446181 0.857433 0.197118
H21   H     H_    0.553809 0.011642 0.142571 0.197114
H22   H     H_    0.011624 0.446188 0.142571 0.197121
H23   H     H_    0.446190 0.988356 0.142570 0.197115
H24   H     H_    0.988374 0.553814 0.142569 0.197117
H25   H     H_    0.053803 0.488357 0.357427 0.197117
H26   H     H_    0.511632 0.053812 0.357430 0.197121
H27   H     H_    0.946186 0.511650 0.357431 0.197121
H28   H     H_    0.488368 0.946189 0.357430 0.197118
H29   H     H_    0.053800 0.511640 0.642574 0.197117
H30   H     H_    0.511621 0.946189 0.642571 0.197117
H31   H     H_    0.946182 0.488350 0.642567 0.197120
H32   H     H_    0.488376 0.053815 0.642569 0.197117
C89   C     C_R   0.530926 0.993582 0.898795 0.240723
C90   C     C_R   0.006399 0.530929 0.898795 0.240653
C91   C     C_R   0.469070 0.006419 0.898796 0.240700
C92   C     C_R   0.993599 0.469064 0.898798 0.240623
C93   C     C_R   0.530929 0.006409 0.101204 0.240722
C94   C     C_R   0.006399 0.469068 0.101204 0.240618
C95   C     C_R   0.469069 0.993590 0.101204 0.240697
C96   C     C_R   0.993601 0.530932 0.101203 0.240656
C97   C     C_R   0.030926 0.493589 0.398795 0.240713
C98   C     C_R   0.506403 0.030932 0.398796 0.240629
C99   C     C_R   0.969066 0.506412 0.398797 0.240626
C100  C     C_R   0.493597 0.969069 0.398796 0.240650
C101  C     C_R   0.030924 0.506409 0.601206 0.240713
C102  C     C_R   0.506398 0.969069 0.601204 0.240647
C103  C     C_R   0.969064 0.493588 0.601202 0.240628
C104  C     C_R   0.493602 0.030934 0.601203 0.240631
C105  C     C_R   0.499999 0.000000 0.913772 -0.282180
C106  C     C_R   1.000000 0.499997 0.913772 -0.282184
C107  C     C_R   0.499999 1.000000 0.086228 -0.282176
C108  C     C_R   1.000000 0.500000 0.086227 -0.282185
C109  C     C_R   0.999997 0.500000 0.413772 -0.282183
C110  C     C_R   0.500000 0.000000 0.413772 -0.282186
C111  C     C_R   0.999996 0.500000 0.586228 -0.282183
C112  C     C_R   0.500000 0.000001 0.586227 -0.282183
C113  C     C_R   0.499997 0.000002 0.854304 0.173833
C114  C     C_R   0.999996 0.499994 0.854304 0.173837
C115  C     C_R   0.499999 0.999999 0.145696 0.173834
C116  C     C_R   0.999999 0.500001 0.145695 0.173837
C117  C     C_R   0.999994 0.500004 0.354304 0.173832
C118  C     C_R   0.500000 0.000000 0.354304 0.173836
C119  C     C_R   0.999991 0.499994 0.645696 0.173832
C120  C     C_R   0.499998 0.000002 0.645695 0.173840
O49   O     O_R   0.000010 0.050920 0.976360 -0.622730
O50   O     O_R   0.949080 0.000010 0.976360 -0.622784
O51   O     O_R   0.999990 0.949080 0.976360 -0.622720
O52   O     O_R   0.050920 0.999990 0.976360 -0.622747
O53   O     O_R   0.000010 0.949080 0.023640 -0.622742
O54   O     O_R   0.949080 0.999990 0.023640 -0.622755
O55   O     O_R   0.999990 0.050920 0.023640 -0.622708
O56   O     O_R   0.050920 0.000010 0.023640 -0.622776
O57   O     O_R   0.500010 0.550920 0.476360 -0.622771
O58   O     O_R   0.449080 0.500010 0.476360 -0.622757
O59   O     O_R   0.499990 0.449080 0.476360 -0.622690
O60   O     O_R   0.550920 0.499990 0.476360 -0.622740
O61   O     O_R   0.500010 0.449080 0.523640 -0.622763
O62   O     O_R   0.449080 0.499990 0.523640 -0.622772
O63   O     O_R   0.499990 0.550920 0.523640 -0.622698
O64   O     O_R   0.550920 0.500010 0.523640 -0.622724
C121  C     C_R   1.000000 0.067278 1.000000 0.872321
C122  C     C_R   0.932720 0.000000 1.000000 0.872339
C123  C     C_R   0.000000 0.932721 0.000000 0.872335
C124  C     C_R   0.067280 0.000000 0.000000 0.872328
C125  C     C_R   0.500000 0.567279 0.500000 0.872315
C126  C     C_R   0.432720 0.500000 0.500000 0.872333
C127  C     C_R   0.500000 0.432721 0.500000 0.872305
C128  C     C_R   0.567278 0.500000 0.500000 0.872294
Zn9   Zn    Zn3+2 0.000000 1.000000 0.968380 0.966992
Zn10  Zn    Zn3+2 0.000000 0.000000 0.031620 0.966992
Zn11  Zn    Zn3+2 0.500000 0.500000 0.468380 0.967003
Zn12  Zn    Zn3+2 0.500000 0.500000 0.531620 0.967003
C129  C     C_R   0.877119 0.003791 0.025577 -0.179724
C130  C     C_R   0.995922 0.877124 0.025547 -0.179744
C131  C     C_R   0.122879 0.996115 0.025567 -0.179749
C132  C     C_R   0.004203 0.122873 0.025533 -0.179731
C133  C     C_R   0.877119 0.996208 0.974423 -0.179749
C134  C     C_R   0.995797 0.122873 0.974467 -0.179748
C135  C     C_R   0.122879 0.003885 0.974432 -0.179725
C136  C     C_R   0.004078 0.877124 0.974453 -0.179728
C137  C     C_R   0.377120 0.503848 0.525571 -0.179743
C138  C     C_R   0.495827 0.377126 0.525537 -0.179771
C139  C     C_R   0.622874 0.495833 0.525537 -0.179737
C140  C     C_R   0.504100 0.622875 0.525544 -0.179708
C141  C     C_R   0.377120 0.496152 0.474429 -0.179731
C142  C     C_R   0.495900 0.622875 0.474455 -0.179770
C143  C     C_R   0.622874 0.504167 0.474463 -0.179749
C144  C     C_R   0.504173 0.377126 0.474464 -0.179708
H33   H     H_    0.890525 0.006928 0.045562 0.161681
H34   H     H_    0.992554 0.890532 0.045505 0.161598
H35   H     H_    0.109473 0.992902 0.045544 0.161652
H36   H     H_    0.007672 0.109465 0.045479 0.161574
H37   H     H_    0.890525 0.993071 0.954438 0.161673
H38   H     H_    0.992327 0.109465 0.954521 0.161567
H39   H     H_    0.109473 0.007098 0.954456 0.161660
H40   H     H_    0.007446 0.890532 0.954495 0.161605
H41   H     H_    0.390526 0.507031 0.545551 0.161662
H42   H     H_    0.492382 0.390534 0.545485 0.161572
H43   H     H_    0.609466 0.492392 0.545487 0.161591
H44   H     H_    0.507487 0.609468 0.545500 0.161611
H45   H     H_    0.390526 0.492969 0.454449 0.161667
H46   H     H_    0.492513 0.609468 0.454499 0.161590
H47   H     H_    0.609466 0.507608 0.454513 0.161586
H48   H     H_    0.507618 0.390534 0.454515 0.161593
C145  C     C_R   0.841421 0.003863 0.025562 -0.162698
C146  C     C_R   0.995846 0.841426 0.025532 -0.162675
C147  C     C_R   0.158577 0.996042 0.025553 -0.162694
C148  C     C_R   0.004281 0.158571 0.025517 -0.162660
C149  C     C_R   0.841421 0.996136 0.974437 -0.162701
C150  C     C_R   0.995719 0.158571 0.974482 -0.162664
C151  C     C_R   0.158577 0.003958 0.974447 -0.162689
C152  C     C_R   0.004154 0.841426 0.974468 -0.162671
C153  C     C_R   0.341422 0.503921 0.525557 -0.162697
C154  C     C_R   0.495750 0.341428 0.525521 -0.162671
C155  C     C_R   0.658572 0.495755 0.525522 -0.162666
C156  C     C_R   0.504177 0.658573 0.525529 -0.162667
C157  C     C_R   0.341422 0.496080 0.474443 -0.162695
C158  C     C_R   0.495823 0.658573 0.474470 -0.162676
C159  C     C_R   0.658572 0.504245 0.474478 -0.162668
C160  C     C_R   0.504250 0.341428 0.474479 -0.162663
H49   H     H_    0.827912 0.007333 0.045464 0.140083
H50   H     H_    0.992144 0.827918 0.045406 0.140057
H51   H     H_    0.172086 0.992496 0.045445 0.140074
H52   H     H_    0.008084 0.172078 0.045378 0.140051
H53   H     H_    0.827912 0.992666 0.954535 0.140079
H54   H     H_    0.991916 0.172079 0.954621 0.140048
H55   H     H_    0.172086 0.007504 0.954554 0.140077
H56   H     H_    0.007856 0.827918 0.954595 0.140060
H57   H     H_    0.327913 0.507436 0.545453 0.140081
H58   H     H_    0.491972 0.327920 0.545385 0.140053
H59   H     H_    0.672080 0.491981 0.545386 0.140059
H60   H     H_    0.507896 0.672081 0.545400 0.140064
H61   H     H_    0.327912 0.492564 0.454547 0.140083
H62   H     H_    0.492103 0.672081 0.454599 0.140054
H63   H     H_    0.672080 0.508019 0.454614 0.140057
H64   H     H_    0.508028 0.327920 0.454615 0.140063
C161  C     C_R   0.823379 1.000000 1.000000 0.112919
C162  C     C_R   1.000000 0.823384 0.000000 0.112922
C163  C     C_R   0.176619 0.000000 1.000000 0.112920
C164  C     C_R   1.000000 0.176614 1.000000 0.112928
C165  C     C_R   0.323380 0.500000 0.500000 0.112916
C166  C     C_R   0.500000 0.323386 0.500000 0.112924
C167  C     C_R   0.676615 0.500000 0.500000 0.112928
C168  C     C_R   0.500000 0.676616 0.500000 0.112925
C169  C     C_R   0.895184 1.000000 1.000000 -0.042626
C170  C     C_R   1.000000 0.895188 0.000000 -0.042541
C171  C     C_R   0.104814 0.000000 0.000000 -0.042599
C172  C     C_R   1.000000 0.104810 1.000000 -0.042499
C173  C     C_R   0.395185 0.500000 0.500000 -0.042610
C174  C     C_R   0.500000 0.395189 0.500000 -0.042511
C175  C     C_R   0.604811 0.500000 0.500000 -0.042513
C176  C     C_R   0.500000 0.604812 0.500000 -0.042533
C177  C     C_R   0.767704 0.981526 0.020798 -0.170521
C178  C     C_R   0.018215 0.767707 0.020954 -0.170531
C179  C     C_R   0.232295 0.018390 0.020849 -0.170523
C180  C     C_R   0.018100 0.232291 0.978978 -0.170534
C181  C     C_R   0.767704 0.018474 0.979201 -0.170520
C182  C     C_R   0.981900 0.232291 0.021022 -0.170534
C183  C     C_R   0.232295 0.981610 0.979150 -0.170523
C184  C     C_R   0.981785 0.767707 0.979046 -0.170529
C185  C     C_R   0.267705 0.481572 0.520826 -0.170523
C186  C     C_R   0.518132 0.267709 0.521003 -0.170532
C187  C     C_R   0.732292 0.518133 0.521002 -0.170530
C188  C     C_R   0.481806 0.732292 0.520966 -0.170529
C189  C     C_R   0.267705 0.518428 0.479173 -0.170522
C190  C     C_R   0.518193 0.732292 0.479033 -0.170528
C191  C     C_R   0.732292 0.481867 0.478998 -0.170530
C192  C     C_R   0.481868 0.267709 0.478997 -0.170531
H65   H     H_    0.781199 0.966782 0.036804 0.142026
H66   H     H_    0.032759 0.781201 0.037084 0.142032
H67   H     H_    0.218801 0.033069 0.036896 0.142026
H68   H     H_    0.032555 0.218799 0.962793 0.142032
H69   H     H_    0.781199 0.033217 0.963195 0.142024
H70   H     H_    0.967444 0.218799 0.037206 0.142034
H71   H     H_    0.218800 0.966931 0.963104 0.142028
H72   H     H_    0.967240 0.781201 0.962916 0.142034
H73   H     H_    0.281200 0.466864 0.536855 0.142028
H74   H     H_    0.532612 0.281201 0.537173 0.142030
H75   H     H_    0.718799 0.532615 0.537171 0.142029
H76   H     H_    0.467278 0.718799 0.537106 0.142032
H77   H     H_    0.281199 0.533136 0.463145 0.142030
H78   H     H_    0.532721 0.718799 0.462893 0.142026
H79   H     H_    0.718799 0.467385 0.462829 0.142028
H80   H     H_    0.467388 0.281202 0.462827 0.142036
C193  C     C_R   0.732008 0.981607 0.020825 -0.143503
C194  C     C_R   0.018134 0.732012 0.020980 -0.143485
C195  C     C_R   0.267991 0.018309 0.020876 -0.143499
C196  C     C_R   0.018018 0.267987 0.978952 -0.143477
C197  C     C_R   0.732008 0.018393 0.979174 -0.143506
C198  C     C_R   0.981982 0.267987 0.021048 -0.143476
C199  C     C_R   0.267990 0.981691 0.979124 -0.143497
C200  C     C_R   0.981866 0.732012 0.979020 -0.143484
C201  C     C_R   0.232009 0.481653 0.520853 -0.143502
C202  C     C_R   0.518050 0.232013 0.521029 -0.143481
C203  C     C_R   0.767987 0.518051 0.521028 -0.143480
C204  C     C_R   0.481888 0.767988 0.520992 -0.143482
C205  C     C_R   0.232009 0.518347 0.479147 -0.143503
C206  C     C_R   0.518112 0.767988 0.479007 -0.143486
C207  C     C_R   0.767987 0.481949 0.478972 -0.143483
C208  C     C_R   0.481950 0.232013 0.478971 -0.143479
H81   H     H_    0.718245 0.967345 0.036984 0.152118
H82   H     H_    0.032193 0.718248 0.037259 0.152208
H83   H     H_    0.281754 0.032504 0.037074 0.152147
H84   H     H_    0.031987 0.281750 0.962620 0.152246
H85   H     H_    0.718246 0.032655 0.963015 0.152115
H86   H     H_    0.968012 0.281750 0.037379 0.152247
H87   H     H_    0.281753 0.967496 0.962926 0.152145
H88   H     H_    0.967807 0.718248 0.962742 0.152208
H89   H     H_    0.218246 0.467427 0.537033 0.152133
H90   H     H_    0.532045 0.218250 0.537346 0.152235
H91   H     H_    0.781751 0.532047 0.537345 0.152234
H92   H     H_    0.467845 0.781751 0.537281 0.152216
H93   H     H_    0.218246 0.532573 0.462967 0.152134
H94   H     H_    0.532155 0.781751 0.462718 0.152213
H95   H     H_    0.781751 0.467953 0.462656 0.152234
H96   H     H_    0.467955 0.218250 0.462654 0.152236
C209  C     C_R   0.714170 1.000000 1.000000 0.098174
C210  C     C_R   0.000000 0.714174 0.000000 0.098099
C211  C     C_R   0.285828 0.000000 1.000000 0.098150
C212  C     C_R   1.000000 0.285824 1.000000 0.098068
C213  C     C_R   0.214171 0.500000 0.500000 0.098161
C214  C     C_R   0.500000 0.214176 0.500000 0.098077
C215  C     C_R   0.785824 0.500000 0.500000 0.098079
C216  C     C_R   0.500000 0.785825 0.499999 0.098094
C217  C     C_R   0.785753 1.000000 1.000000 0.097094
C218  C     C_R   1.000000 0.785757 0.000000 0.097099
C219  C     C_R   0.214246 0.000000 1.000000 0.097099
C220  C     C_R   1.000000 0.214242 1.000000 0.097107
C221  C     C_R   0.285754 0.500000 0.500000 0.097094
C222  C     C_R   0.500000 0.285758 0.500000 0.097107
C223  C     C_R   0.714242 0.500000 0.500000 0.097113
C224  C     C_R   0.500000 0.714243 0.499999 0.097106
C225  C     C_R   0.658475 0.030592 0.005854 0.002381
C226  C     C_R   0.969345 0.658482 0.005628 0.002523
C227  C     C_R   0.341522 0.969387 0.005781 0.002426
C228  C     C_R   0.030682 0.341515 0.005525 0.002583
C229  C     C_R   0.658475 0.969407 0.994145 0.002382
C230  C     C_R   0.969318 0.341515 0.994475 0.002582
C231  C     C_R   0.341522 0.030613 0.994219 0.002424
C232  C     C_R   0.030655 0.658482 0.994372 0.002523
C233  C     C_R   0.158477 0.530603 0.505816 0.002406
C234  C     C_R   0.469326 0.158484 0.505555 0.002563
C235  C     C_R   0.841516 0.469326 0.505557 0.002557
C236  C     C_R   0.530660 0.841518 0.505608 0.002530
C237  C     C_R   0.158477 0.469397 0.494184 0.002405
C238  C     C_R   0.469340 0.841518 0.494391 0.002532
C239  C     C_R   0.841516 0.530674 0.494443 0.002559
C240  C     C_R   0.530675 0.158484 0.494445 0.002561
C241  C     C_R   0.622713 0.030412 0.005707 -0.155299
C242  C     C_R   0.969528 0.622719 0.005488 -0.155428
C243  C     C_R   0.377285 0.969568 0.005636 -0.155342
C244  C     C_R   0.030498 0.377278 0.005388 -0.155493
C245  C     C_R   0.622713 0.969587 0.994292 -0.155299
C246  C     C_R   0.969502 0.377278 0.994612 -0.155486
C247  C     C_R   0.377285 0.030432 0.994363 -0.155341
C248  C     C_R   0.030472 0.622719 0.994512 -0.155435
C249  C     C_R   0.122714 0.530423 0.505670 -0.155328
C250  C     C_R   0.469509 0.122721 0.505417 -0.155469
C251  C     C_R   0.877279 0.469510 0.505419 -0.155471
C252  C     C_R   0.530477 0.877280 0.505468 -0.155441
C253  C     C_R   0.122714 0.469577 0.494330 -0.155324
C254  C     C_R   0.469523 0.877280 0.494531 -0.155439
C255  C     C_R   0.877279 0.530490 0.494581 -0.155474
C256  C     C_R   0.530491 0.122721 0.494583 -0.155472
H97   H     H_    0.608920 0.053970 0.010369 0.182777
H98   H     H_    0.945919 0.608930 0.009975 0.182398
H99   H     H_    0.391076 0.945993 0.010241 0.182656
H100  H     H_    0.054130 0.391065 0.009795 0.182230
H101  H     H_    0.608920 0.946030 0.989630 0.182782
H102  H     H_    0.945869 0.391065 0.990205 0.182232
H103  H     H_    0.391077 0.054007 0.989759 0.182663
H104  H     H_    0.054081 0.608930 0.990025 0.182396
H105  H     H_    0.108922 0.553989 0.510302 0.182712
H106  H     H_    0.445883 0.108934 0.509847 0.182277
H107  H     H_    0.891067 0.445884 0.509851 0.182293
H108  H     H_    0.554091 0.891069 0.509940 0.182364
H109  H     H_    0.108922 0.446011 0.489698 0.182713
H110  H     H_    0.445909 0.891069 0.490059 0.182367
H111  H     H_    0.891066 0.554115 0.490149 0.182293
H112  H     H_    0.554117 0.108934 0.490153 0.182281
C257  C     C_R   0.604731 1.000000 1.000000 -0.047209
C258  C     C_R   0.000000 0.604735 0.000000 -0.046659
C259  C     C_R   0.395268 0.000000 1.000000 -0.047037
C260  C     C_R   1.000000 0.395263 1.000000 -0.046420
C261  C     C_R   0.104732 0.500000 0.500000 -0.047118
C262  C     C_R   0.500000 0.104737 0.500000 -0.046490
C263  C     C_R   0.895263 0.500000 0.500000 -0.046514
C264  C     C_R   0.500000 0.895264 0.500000 -0.046615
C265  C     C_R   0.676575 1.000000 0.999999 -0.006829
C266  C     C_R   0.000000 0.676580 0.000000 -0.006761
C267  C     C_R   0.323423 1.000000 1.000000 -0.006806
C268  C     C_R   1.000000 0.323417 1.000000 -0.006727
C269  C     C_R   0.176576 0.500000 0.500000 -0.006819
C270  C     C_R   0.500000 0.176582 0.500000 -0.006736
C271  C     C_R   0.823418 0.500000 0.500000 -0.006737
C272  C     C_R   0.500000 0.823419 0.499999 -0.006752
N9    N     N_R   0.563078 0.987661 0.913137 0.203303
O65   O     O_R   0.591635 0.998548 0.901901 -0.362963
O66   O     O_R   0.564654 0.967571 0.935160 -0.400753
N10   N     N_R   0.012301 0.563084 0.913135 0.203304
O67   O     O_R   0.001407 0.591636 0.901894 -0.362969
O68   O     O_R   0.032376 0.564672 0.935167 -0.400527
N11   N     N_R   0.436919 0.012339 0.913139 0.203300
O69   O     O_R   0.408362 0.001452 0.901903 -0.362969
O70   O     O_R   0.435343 0.032424 0.935164 -0.400663
N12   N     N_R   0.987700 0.436910 0.913142 0.203292
O71   O     O_R   0.998596 0.408358 0.901903 -0.362984
O72   O     O_R   0.967626 0.435324 0.935175 -0.400401
N13   N     N_R   0.563081 0.012323 0.086862 0.203307
O73   O     O_R   0.591636 0.001427 0.098096 -0.362959
O74   O     O_R   0.564662 0.032412 0.064839 -0.400774
N14   N     N_R   0.012298 0.436912 0.086862 0.203300
O75   O     O_R   0.001405 0.408361 0.098104 -0.362977
O76   O     O_R   0.032369 0.435324 0.064828 -0.400404
N15   N     N_R   0.436917 0.987678 0.086861 0.203305
O77   O     O_R   0.408362 0.998571 0.098097 -0.362965
O78   O     O_R   0.435336 0.967593 0.064836 -0.400686
N16   N     N_R   0.987700 0.563087 0.086860 0.203299
O79   O     O_R   0.998597 0.591639 0.098099 -0.362976
O80   O     O_R   0.967622 0.564674 0.064830 -0.400529
N17   N     N_R   0.063079 0.487674 0.413136 0.203305
O81   O     O_R   0.091634 0.498565 0.401898 -0.362961
O82   O     O_R   0.064659 0.467588 0.435161 -0.400720
N18   N     N_R   0.512306 0.063086 0.413138 0.203297
O83   O     O_R   0.501414 0.091639 0.401897 -0.362976
O84   O     O_R   0.532380 0.064672 0.435171 -0.400425
N19   N     N_R   0.936913 0.512322 0.413141 0.203295
O85   O     O_R   0.908358 0.501435 0.401901 -0.362981
O86   O     O_R   0.935333 0.532396 0.435173 -0.400407
N20   N     N_R   0.487692 0.936915 0.413139 0.203298
O87   O     O_R   0.498586 0.908362 0.401899 -0.362977
O88   O     O_R   0.467616 0.935330 0.435169 -0.400492
N21   N     N_R   0.063078 0.512324 0.586866 0.203308
O89   O     O_R   0.091633 0.501434 0.598104 -0.362960
O90   O     O_R   0.064660 0.532410 0.564840 -0.400724
N22   N     N_R   0.512298 0.936913 0.586862 0.203303
O91   O     O_R   0.501402 0.908362 0.598103 -0.362971
O92   O     O_R   0.532373 0.935326 0.564831 -0.400505
N23   N     N_R   0.936912 0.487679 0.586858 0.203291
O93   O     O_R   0.908357 0.498568 0.598096 -0.362982
O94   O     O_R   0.935332 0.467604 0.564826 -0.400408
N24   N     N_R   0.487703 0.063089 0.586860 0.203298
O95   O     O_R   0.498599 0.091640 0.598100 -0.362980
O96   O     O_R   0.467630 0.064676 0.564827 -0.400442
C273  C     C_1   0.676057 0.062267 0.012660 0.193790
N25   N     N_1   0.690151 0.087619 0.018111 -0.167366
C274  C     C_1   0.937596 0.676065 0.012189 0.193615
N26   N     N_1   0.912184 0.690160 0.017443 -0.167434
C275  C     C_1   0.323940 0.937688 0.012507 0.193734
N27   N     N_1   0.309846 0.912316 0.017893 -0.167390
C276  C     C_1   0.062465 0.323931 0.011974 0.193543
N28   N     N_1   0.087903 0.309836 0.017138 -0.167454
C277  C     C_1   0.676057 0.937733 0.987339 0.193794
N29   N     N_1   0.690151 0.912381 0.981888 -0.167370
C278  C     C_1   0.937535 0.323931 0.988025 0.193543
N30   N     N_1   0.912097 0.309836 0.982861 -0.167459
C279  C     C_1   0.323940 0.062312 0.987492 0.193743
N31   N     N_1   0.309846 0.087684 0.982106 -0.167381
C280  C     C_1   0.062404 0.676065 0.987811 0.193617
N32   N     N_1   0.087816 0.690160 0.982557 -0.167429
C281  C     C_1   0.176059 0.562291 0.512580 0.193764
N33   N     N_1   0.190153 0.587653 0.517997 -0.167380
C282  C     C_1   0.437552 0.176069 0.512037 0.193568
N34   N     N_1   0.412122 0.190163 0.517226 -0.167454
C283  C     C_1   0.823931 0.437554 0.512041 0.193580
N35   N     N_1   0.809837 0.412124 0.517232 -0.167436
C284  C     C_1   0.562416 0.823933 0.512148 0.193610
N36   N     N_1   0.587833 0.809839 0.517384 -0.167425
C285  C     C_1   0.176059 0.437709 0.487419 0.193766
N37   N     N_1   0.190153 0.412347 0.482002 -0.167377
C286  C     C_1   0.437584 0.823934 0.487851 0.193608
N38   N     N_1   0.412167 0.809839 0.482615 -0.167439
C287  C     C_1   0.823931 0.562446 0.487959 0.193579
N39   N     N_1   0.809837 0.587876 0.482768 -0.167438
C288  C     C_1   0.562448 0.176069 0.487963 0.193577
N40   N     N_1   0.587878 0.190163 0.482774 -0.167437

loop_
_geom_bond_atom_site_label_1
_geom_bond_atom_site_label_2
_geom_bond_distance
_ccdc_geom_bond_type
C254  C264  1.400600 A    
C155  H59   1.083152 S    
O25   C13   1.285096 A    
C280  N32   1.157291 T    
C246  C260  1.400613 A    
O54   Zn10  2.016321 S    
C207  H95   1.083434 S    
N9    O65   1.301460 A    
C93   C107  1.416937 A    
C205  H93   1.083440 S    
C211  C267  1.462580 S    
C38   C62   1.404540 A    
C233  C281  1.445374 S    
C43   C53   1.407821 A    
C256  C262  1.400612 A    
O18   Zn2   2.010344 S    
C251  H107  1.084471 S    
C58   C71   1.393805 A    
C252  H108  1.084470 S    
C177  C217  1.403346 A    
C250  C262  1.400612 A    
C79   C115  1.397054 A    
C90   C106  1.416946 A    
C159  C167  1.401842 A    
O50   Zn9   2.016322 S    
C99   N19   1.440141 S    
O24   Zn4   2.010340 S    
C232  C280  1.445361 S    
C247  C259  1.400564 A    
O55   C121  1.282563 A    
N4    C117  1.434987 S    
C78   H22   1.083314 S    
C243  H99   1.084469 S    
O19   Zn3   2.010345 S    
C244  H100  1.084465 S    
C28   C42   1.400383 A    
C17   C35   1.400383 A    
C96   N16   1.440133 S    
C188  H76   1.083051 S    
C88   C104  1.396895 A    
C19   N1    1.371037 A    
C240  C256  1.391342 A    
C44   C54   1.407818 A    
C32   C46   1.400378 A    
C46   C56   1.407821 A    
C104  C112  1.416946 A    
C235  C251  1.391338 A    
C23   C37   1.400388 A    
O25   Zn5   2.010344 S    
C236  C252  1.391342 A    
C95   C107  1.416937 A    
C98   C110  1.416949 A    
C123  C170  1.460180 S    
C180  H68   1.083049 S    
C89   N9    1.440123 S    
C208  C214  1.398509 A    
C138  C154  1.388791 A    
C236  C272  1.410068 A    
N20   O88   1.300277 A    
C18   O34   1.349731 S    
N21   O90   1.300279 A    
C75   C113  1.397053 A    
C190  C206  1.388699 A    
C66   H10   1.083115 S    
C225  C265  1.410090 A    
C22   O38   1.349728 S    
C47   C71   1.404538 A    
C22   C40   1.400388 A    
O51   Zn9   2.016332 S    
O16   C6    1.287221 A    
C138  C174  1.402516 A    
C92   N12   1.440135 S    
C86   C102  1.396896 A    
C128  C175  1.460149 S    
N12   O72   1.300281 A    
C241  C257  1.400550 A    
C182  C198  1.388699 A    
C25   O41   1.349729 S    
C16   C112  1.457206 S    
C96   C108  1.416943 A    
C197  H85   1.083441 S    
N15   O78   1.300275 A    
C44   C68   1.404541 A    
O50   C122  1.282595 A    
C239  C287  1.445396 S    
C250  H106  1.084473 S    
C191  C223  1.403362 A    
O26   Zn6   2.010344 S    
N9    O66   1.300280 A    
C193  C209  1.398533 A    
C48   C56   1.407818 A    
C148  C164  1.401847 A    
N16   O79   1.301461 A    
C81   H25   1.083318 S    
C230  C278  1.445383 S    
O27   C13   1.285099 A    
C135  H39   1.083065 S    
C216  C272  1.462565 S    
O31   C15   1.285095 A    
C206  H94   1.083440 S    
C25   C43   1.400384 A    
O54   C122  1.282598 A    
C41   C53   1.407818 A    
C29   C47   1.400384 A    
C178  C194  1.388706 A    
C31   C45   1.400383 A    
C247  H103  1.084469 S    
O8    C2    1.287210 A    
O52   Zn9   2.016318 S    
C37   C61   1.404539 A    
C187  C203  1.388695 A    
C193  H81   1.083444 S    
N19   O86   1.300279 A    
C245  H101  1.084470 S    
C74   C114  1.397054 A    
C75   C91   1.396895 A    
C145  C161  1.401813 A    
O9    C5    1.287191 A    
C234  C282  1.445399 S    
C238  C272  1.410066 A    
C147  H51   1.083153 S    
C154  C166  1.401838 A    
C92   C106  1.416946 A    
C235  C283  1.445396 S    
C11   C107  1.457220 S    
C138  H42   1.083067 S    
C161  C217  1.463802 S    
C42   C66   1.404542 A    
C100  C110  1.416945 A    
C248  C258  1.400593 A    
O62   Zn12  2.016321 S    
C6    C262  1.459982 S    
O4    C4    1.287223 A    
C151  H55   1.083158 S    
C21   O37   1.349726 S    
O5    C1    1.287185 A    
C30   O46   1.349729 S    
O5    Zn3   2.016159 S    
C69   H13   1.083111 S    
C157  H61   1.083156 S    
C102  C112  1.416943 A    
C131  H35   1.083063 S    
C233  C249  1.391343 A    
C132  H36   1.083067 S    
C234  C270  1.410065 A    
N7    C114  1.434987 S    
C144  C160  1.388791 A    
C165  C221  1.463806 S    
C142  H46   1.083067 S    
C86   H30   1.083316 S    
C87   C119  1.397060 A    
C129  H33   1.083064 S    
C45   C55   1.407818 A    
C31   N7    1.371039 A    
C141  C157  1.388795 A    
C246  H102  1.084465 S    
C255  H111  1.084468 S    
C187  H75   1.083051 S    
C74   C90   1.396897 A    
C74   H18   1.083315 S    
O23   C11   1.285095 A    
O11   C7    1.287221 A    
C186  H74   1.083051 S    
O60   C128  1.282565 A    
C160  C166  1.401840 A    
C78   C94   1.396901 A    
C133  C169  1.402560 A    
C65   H9    1.083116 S    
C146  H50   1.083155 S    
C235  C271  1.410061 A    
C230  C246  1.391342 A    
C125  C176  1.460180 S    
C70   H14   1.083114 S    
C133  H37   1.083060 S    
C195  C211  1.398527 A    
C42   C54   1.407818 A    
C21   C39   1.400388 A    
C93   N13   1.440126 S    
C43   C67   1.404540 A    
C57   C72   1.393805 A    
O28   C14   1.285089 A    
O26   C14   1.285095 A    
O61   C127  1.282564 A    
O8    Zn4   2.016170 S    
C59   C70   1.393805 A    
O30   C16   1.285090 A    
C194  H82   1.083439 S    
C63   H7    1.083114 S    
C277  N29   1.157290 T    
C190  H78   1.083052 S    
C98   N18   1.440135 S    
C45   C69   1.404543 A    
C200  H88   1.083441 S    
C225  C273  1.445364 S    
N14   O75   1.301458 A    
C47   C55   1.407822 A    
C279  N31   1.157279 T    
O17   Zn1   2.010344 S    
C228  C276  1.445385 S    
C24   N4    1.371039 A    
C33   C57   1.404543 A    
C158  H62   1.083156 S    
C97   C109  1.416941 A    
O51   C123  1.282576 A    
N10   O67   1.301463 A    
C137  H41   1.083063 S    
O61   Zn12  2.016333 S    
C239  C271  1.410064 A    
C26   C44   1.400383 A    
C215  C271  1.462545 S    
C76   H20   1.083318 S    
C153  H57   1.083155 S    
C30   C48   1.400383 A    
O16   Zn8   2.016170 S    
C285  N37   1.157277 T    
C37   C51   1.407817 A    
C33   C49   1.407820 A    
C212  C268  1.462550 S    
C286  N38   1.157247 T    
C137  C173  1.402554 A    
C188  C204  1.388702 A    
N18   O84   1.300283 A    
N13   O73   1.301453 A    
C81   C97   1.396887 A    
C186  C202  1.388699 A    
C91   N11   1.440125 S    
O6    Zn2   2.016174 S    
O3    C3    1.287194 A    
C136  H40   1.083064 S    
C184  H72   1.083049 S    
C201  H89   1.083444 S    
C131  C171  1.402550 A    
C77   C115  1.397053 A    
C132  C172  1.402517 A    
C203  H91   1.083439 S    
C205  C213  1.398529 A    
C10   C106  1.457206 S    
C237  C253  1.391343 A    
N23   O93   1.301462 A    
C178  H66   1.083048 S    
C185  C221  1.403345 A    
C38   C52   1.407819 A    
C18   N2    1.371041 A    
C197  C209  1.398535 A    
C82   C118  1.397055 A    
C14   C110  1.457201 S    
C157  C165  1.401813 A    
C162  C218  1.463837 S    
C60   C69   1.393804 A    
C195  H83   1.083440 S    
C207  C215  1.398504 A    
C256  H112  1.084470 S    
C276  N28   1.157258 T    
C166  C222  1.463857 S    
C134  C172  1.402515 A    
O57   C125  1.282570 A    
O12   C8    1.287214 A    
O1    C1    1.287185 A    
C241  H97   1.084472 S    
C88   C120  1.397054 A    
O63   Zn12  2.016328 S    
C32   N8    1.371037 A    
O13   C5    1.287191 A    
C144  C174  1.402519 A    
C46   C70   1.404543 A    
C23   N3    1.371038 A    
C248  H104  1.084459 S    
C227  C243  1.391339 A    
C62   C67   1.393806 A    
C249  H105  1.084469 S    
C52   C53   1.409014 A    
C148  H52   1.083155 S    
C34   C58   1.404539 A    
C131  C147  1.388795 A    
N12   O71   1.301464 A    
C132  C148  1.388791 A    
C29   N7    1.371040 A    
C57   H1    1.083112 S    
C144  H48   1.083071 S    
C231  C247  1.391343 A    
C188  C224  1.403360 A    
C184  C200  1.388702 A    
C77   H21   1.083319 S    
N15   O77   1.301455 A    
C12   C108  1.457201 S    
C87   C103  1.396890 A    
C61   H5    1.083111 S    
C227  C267  1.410087 A    
N17   O81   1.301459 A    
C229  C277  1.445366 S    
C1    C257  1.459822 S    
O53   C123  1.282574 A    
C7    C263  1.459974 S    
N22   O91   1.301459 A    
C184  C218  1.403361 A    
C158  C168  1.401836 A    
C183  C199  1.388703 A    
C31   O47   1.349730 S    
N2    C119  1.434983 S    
N5    C116  1.434992 S    
C34   C50   1.407819 A    
C204  C216  1.398507 A    
C288  N40   1.157230 T    
C101  N21   1.440128 S    
C231  C279  1.445370 S    
C22   N4    1.371036 A    
C203  C215  1.398502 A    
C146  C162  1.401839 A    
O10   C6    1.287221 A    
C97   N17   1.440128 S    
C133  C149  1.388795 A    
O15   Zn5   2.016164 S    
C179  C219  1.403349 A    
C28   N6    1.371036 A    
C149  C161  1.401814 A    
C231  C267  1.410087 A    
O21   Zn3   2.010339 S    
C273  N25   1.157295 T    
C151  C163  1.401826 A    
C39   C63   1.404538 A    
C135  C171  1.402552 A    
C50   C55   1.409010 A    
C226  C242  1.391343 A    
C139  C155  1.388784 A    
C140  C156  1.388791 A    
C249  C261  1.400558 A    
C89   C105  1.416942 A    
C28   O44   1.349731 S    
C182  C220  1.403366 A    
C61   C68   1.393804 A    
C100  N20   1.440133 S    
C234  C250  1.391346 A    
C140  C176  1.402525 A    
C240  C270  1.410067 A    
O32   Zn8   2.010340 S    
C27   N5    1.371039 A    
C143  H47   1.083069 S    
C206  C216  1.398511 A    
C232  C266  1.410064 A    
C130  H34   1.083068 S    
C226  C274  1.445363 S    
C238  C286  1.445392 S    
C142  C158  1.388791 A    
C198  C212  1.398503 A    
O22   Zn2   2.010339 S    
C230  C268  1.410057 A    
C281  N33   1.157276 T    
O21   C11   1.285100 A    
C9    C105  1.457220 S    
C78   C116  1.397053 A    
O22   C12   1.285092 A    
N16   O80   1.300281 A    
O23   Zn1   2.010341 S    
C24   C38   1.400384 A    
C48   C72   1.404541 A    
C41   C65   1.404541 A    
C76   C92   1.396899 A    
C19   O35   1.349732 S    
C26   N6    1.371038 A    
C143  C175  1.402521 A    
C163  C219  1.463810 S    
C76   C114  1.397049 A    
C192  H80   1.083052 S    
C79   C95   1.396896 A    
C202  C214  1.398502 A    
C25   N5    1.371038 A    
C134  H38   1.083069 S    
C95   N15   1.440129 S    
C149  H53   1.083160 S    
C68   H12   1.083115 S    
C152  C162  1.401843 A    
C139  H43   1.083065 S    
C30   N8    1.371041 A    
C152  H56   1.083157 S    
C180  C220  1.403363 A    
C90   N10   1.440133 S    
C185  H73   1.083055 S    
C242  C258  1.400597 A    
O28   Zn8   2.010345 S    
C191  C207  1.388695 A    
C254  H110  1.084470 S    
C181  C197  1.388702 A    
O30   Zn6   2.010339 S    
C83   C99   1.396895 A    
O59   C127  1.282566 A    
C198  H86   1.083439 S    
C126  C173  1.460250 S    
C84   C100  1.396896 A    
C147  C163  1.401826 A    
C226  C266  1.410064 A    
C40   C52   1.407819 A    
C253  H109  1.084472 S    
C229  C265  1.410094 A    
C255  C263  1.400611 A    
C159  H63   1.083152 S    
C253  C261  1.400559 A    
C101  C111  1.416943 A    
O9    Zn5   2.016160 S    
O49   C121  1.282560 A    
O11   Zn7   2.016163 S    
C245  C257  1.400551 A    
C179  C195  1.388702 A    
N20   O87   1.301461 A    
C13   C109  1.457211 S    
C196  C212  1.398503 A    
O64   Zn12  2.016318 S    
C141  H45   1.083062 S    
C194  C210  1.398514 A    
C154  H58   1.083154 S    
C19   C33   1.400383 A    
C150  C164  1.401844 A    
C228  C268  1.410056 A    
C156  H60   1.083155 S    
C240  C288  1.445399 S    
C190  C224  1.403360 A    
C177  C193  1.388702 A    
O57   Zn11  2.016329 S    
O6    C4    1.287223 A    
C91   C105  1.416943 A    
C142  C176  1.402525 A    
C67   H11   1.083113 S    
O56   C124  1.282585 A    
C36   C50   1.407819 A    
C73   C113  1.397053 A    
C83   C117  1.397054 A    
C182  H70   1.083046 S    
O58   Zn11  2.016322 S    
O31   Zn5   2.010341 S    
O60   Zn11  2.016318 S    
O56   Zn10  2.016318 S    
C36   C60   1.404541 A    
O3    Zn3   2.016163 S    
N24   O95   1.301463 A    
C63   C66   1.393805 A    
O18   C10   1.285093 A    
O49   Zn9   2.016329 S    
C238  C254  1.391346 A    
C49   C56   1.409014 A    
C210  C266  1.462561 S    
C186  C222  1.403363 A    
C181  H69   1.083053 S    
C40   C64   1.404539 A    
C84   C118  1.397051 A    
C5    C261  1.459845 S    
C51   C54   1.409014 A    
C35   C49   1.407819 A    
C73   H17   1.083314 S    
C243  C259  1.400569 A    
C168  C224  1.463849 S    
C83   H27   1.083318 S    
C209  C265  1.462600 S    
N6    C115  1.434987 S    
C278  N30   1.157259 T    
C86   C120  1.397051 A    
N8    C113  1.434983 S    
O13   Zn7   2.016159 S    
C167  C223  1.463849 S    
C62   H6    1.083113 S    
N23   O94   1.300284 A    
C233  C269  1.410091 A    
O58   C126  1.282589 A    
C139  C175  1.402521 A    
O2    C2    1.287210 A    
C236  C284  1.445390 S    
C130  C170  1.402531 A    
C252  C264  1.400601 A    
C242  H98   1.084460 S    
C199  H87   1.083440 S    
N14   O76   1.300285 A    
C274  N26   1.157291 T    
C181  C217  1.403349 A    
C21   N3    1.371037 A    
C140  H44   1.083069 S    
N21   O89   1.301463 A    
C134  C150  1.388791 A    
O14   C8    1.287214 A    
O4    Zn4   2.016174 S    
C201  C213  1.398531 A    
C237  C285  1.445374 S    
N10   O68   1.300281 A    
C85   C101  1.396888 A    
C136  C152  1.388795 A    
O59   Zn11  2.016332 S    
C137  C153  1.388795 A    
C32   O48   1.349732 S    
N11   O70   1.300277 A    
O55   Zn10  2.016328 S    
C155  C167  1.401843 A    
N19   O85   1.301458 A    
C27   C41   1.400382 A    
C20   O36   1.349729 S    
C84   H28   1.083319 S    
C20   N2    1.371036 A    
C130  C146  1.388799 A    
O32   C16   1.285090 A    
O7    C3    1.287194 A    
C199  C211  1.398528 A    
C20   C34   1.400388 A    
C227  C275  1.445372 S    
C87   H31   1.083319 S    
C88   H32   1.083313 S    
C208  H96   1.083436 S    
C141  C173  1.402557 A    
C282  N34   1.157231 T    
C104  N24   1.440137 S    
O2    Zn2   2.016170 S    
C275  N27   1.157281 T    
C3    C259  1.459857 S    
C160  H64   1.083150 S    
C183  H71   1.083051 S    
O15   C7    1.287221 A    
C192  C208  1.388699 A    
C79   H23   1.083315 S    
C59   H3    1.083116 S    
C80   H24   1.083316 S    
C121  C172  1.460145 S    
C64   C65   1.393804 A    
C228  C244  1.391342 A    
C39   C51   1.407820 A    
O53   Zn10  2.016333 S    
C71   H15   1.083118 S    
C80   C116  1.397049 A    
C72   H16   1.083111 S    
C82   H26   1.083316 S    
C127  C174  1.460161 S    
O27   Zn7   2.010345 S    
C102  N22   1.440137 S    
C225  C241  1.391344 A    
O7    Zn1   2.016164 S    
N22   O92   1.300278 A    
N11   O69   1.301459 A    
C60   H4    1.083112 S    
C187  C223  1.403361 A    
C180  C196  1.388699 A    
C24   O40   1.349731 S    
C283  N35   1.157241 T    
C237  C269  1.410091 A    
C232  C248  1.391346 A    
C213  C269  1.462592 S    
O29   Zn7   2.010339 S    
N24   O96   1.300281 A    
C200  C210  1.398516 A    
C18   C36   1.400383 A    
O19   C9    1.285101 A    
C99   C109  1.416950 A    
C143  C159  1.388784 A    
C82   C98   1.396896 A    
C103  C111  1.416951 A    
C287  N39   1.157238 T    
O24   C12   1.285092 A    
C178  C218  1.403362 A    
N1    C120  1.434987 S    
C8    C264  1.459951 S    
C185  C201  1.388702 A    
O12   Zn8   2.016174 S    
C129  C169  1.402558 A    
C202  H90   1.083440 S    
C179  H67   1.083051 S    
O14   Zn6   2.016174 S    
C58   H2    1.083111 S    
C153  C165  1.401817 A    
C136  C170  1.402529 A    
C239  C255  1.391334 A    
C94   N14   1.440139 S    
O62   C126  1.282592 A    
O29   C15   1.285100 A    
C156  C168  1.401837 A    
C229  C245  1.391340 A    
C94   C108  1.416945 A    
C284  N36   1.157247 T    
C177  H65   1.083054 S    
C150  H54   1.083153 S    
C85   C119  1.397053 A    
C81   C117  1.397058 A    
C4    C260  1.459994 S    
C29   O45   1.349732 S    
C244  C260  1.400617 A    
C17   N1    1.371038 A    
O52   C124  1.282589 A    
C27   O43   1.349732 S    
C2    C258  1.459943 S    
C129  C145  1.388795 A    
C124  C171  1.460234 S    
C192  C222  1.403359 A    
N3    C118  1.434992 S    
C189  C221  1.403346 A    
C189  H77   1.083056 S    
C15   C111  1.457211 S    
O63   C125  1.282572 A    
C85   H29   1.083320 S    
C64   H8    1.083115 S    
N17   O82   1.300281 A    
C251  C263  1.400613 A    
C183  C219  1.403348 A    
O20   Zn4   2.010345 S    
C135  C151  1.388791 A    
C73   C89   1.396891 A    
C214  C270  1.462557 S    
O20   C10   1.285087 A    
N18   O83   1.301462 A    
N13   O74   1.300278 A    
C35   C59   1.404540 A    
O10   Zn6   2.016170 S    
C77   C93   1.396891 A    
C204  H92   1.083436 S    
C80   C96   1.396891 A    
C17   O33   1.349729 S    
C164  C220  1.463861 S    
C75   H19   1.083317 S    
C145  H49   1.083155 S    
O17   C9    1.285099 A    
C189  C205  1.388706 A    
O64   C128  1.282562 A    
C191  H79   1.083049 S    
C103  N23   1.440134 S    
C122  C169  1.460258 S    
C26   O42   1.349729 S    
O1    Zn1   2.016160 S    
C23   O39   1.349727 S    
C196  H84   1.083439 S    
