data_mof_unit_60054.cif
_audit_creation_date              2012-10-26T20:09:19-0400
_audit_creation_method            fapswitch 2.2
_symmetry_space_group_name_H-M    P1
_symmetry_Int_Tables_number       1
_space_group_crystal_system       triclinic
_cell_length_a                    12.752848
_cell_length_b                    13.903668
_cell_length_c                    15.906051
_cell_angle_alpha                 90.23102
_cell_angle_beta                  92.728396
_cell_angle_gamma                 97.943203
_cell_volume                      2789.93723612

loop_
_atom_site_label
_atom_site_type_symbol
_atom_type_description
_atom_site_fract_x
_atom_site_fract_y
_atom_site_fract_z
_atom_type_partial_charge
Br1   Br    Br    0.635073 0.692842 0.909441 -0.400467
Br2   Br    Br    0.738121 0.515245 0.098736 -0.403646
Br3   Br    Br    0.603122 0.710091 0.110675 -0.350309
C1    C     C_R   0.483575 0.315826 0.499122 0.542362
C2    C     C_2   0.543523 0.978388 0.502181 -0.105220
C3    C     C_2   0.456505 0.021608 0.497698 -0.110708
C4    C     C_R   0.500660 0.500047 0.339943 0.552427
C5    C     C_1   0.465664 0.125427 0.498174 -0.034461
C6    C     C_1   0.534358 0.874569 0.501734 -0.023357
C7    C     C_1   0.474193 0.212483 0.498623 -0.000895
C8    C     C_2   0.028365 0.473220 0.476302 -0.149666
C9    C     C_2   0.971635 0.526805 0.523649 -0.150196
C10   C     C_1   0.854576 0.519271 0.516953 0.167281
C11   C     C_1   0.145424 0.480740 0.483017 0.156220
C12   C     C_3   0.398797 0.445824 0.948280 -0.281229
C13   C     C_R   0.516427 0.684173 0.500861 0.554819
C14   C     C_R   0.499367 0.500011 0.660064 0.549590
C15   C     C_3   0.401649 0.443334 0.045750 -0.306565
C16   C     C_3   0.599516 0.457875 0.051044 0.076729
C17   C     C_3   0.597479 0.457694 0.953471 -0.172660
C18   C     C_1   0.498308 0.500986 0.749541 0.008527
C19   C     C_3   0.504312 0.505013 0.083071 0.042920
C20   C     C_3   0.501835 0.504694 0.917188 0.005951
C21   C     C_3   0.510576 0.611050 0.951093 0.096590
C22   C     C_3   0.504205 0.610510 0.049207 0.126167
C23   C     C_1   0.499135 0.502410 0.824996 -0.026213
C24   C     C_1   0.503267 0.502749 0.175142 0.013102
C25   C     C_1   0.502251 0.501228 0.250511 0.029378
C26   C     C_1   0.525818 0.787514 0.501319 0.013407
Cu1   Cu    Cu3+1 0.395330 0.493960 0.494700 1.013907
Cu2   Cu    Cu3+1 0.604670 0.506040 0.505300 1.042835
H1    H     H_    0.389290 0.370191 0.922962 0.146073
H2    H     H_    0.591379 0.381472 0.929992 0.102539
H3    H     H_    0.672803 0.496304 0.930712 0.210258
H4    H     H_    0.426135 0.632663 0.063189 0.102039
H5    H     H_    0.441620 0.643798 0.924195 0.116631
H6    H     H_    0.330271 0.471299 0.068573 0.138155
H7    H     H_    0.328678 0.479091 0.924600 0.137419
H8    H     H_    0.378077 0.979331 0.493668 0.145183
H9    H     H_    0.621952 0.020663 0.506214 0.147252
H10   H     H_    0.013549 0.578360 0.569256 0.136454
H11   H     H_    0.986451 0.421666 0.430695 0.141395
H12   H     H_    0.397700 0.366774 0.067023 0.137452
H13   H     H_    0.590968 0.380994 0.072040 0.126888
N1    N     N_1   0.238030 0.484880 0.486720 -0.180513
N2    N     N_1   0.761970 0.515120 0.513270 -0.175542
O1    O     O_R   0.399110 0.356330 0.494870 -0.491595
O2    O     O_R   0.575900 0.366540 0.503830 -0.493771
O3    O     O_R   0.411570 0.494900 0.374960 -0.496294
O4    O     O_R   0.588350 0.505100 0.383910 -0.473444
O5    O     O_R   0.424100 0.633460 0.496170 -0.491018
O6    O     O_R   0.600890 0.643670 0.505130 -0.481814
O7    O     O_R   0.411650 0.494900 0.616090 -0.495905
O8    O     O_R   0.588430 0.505100 0.625040 -0.484461

loop_
_geom_bond_atom_site_label_1
_geom_bond_atom_site_label_2
_ccdc_geom_bond_type
C12   C15   S    
C8    C9    D    
C13   O5    A    
C12   H7    S    
C2    C6    S    
C9    H10   S    
Cu1   N1    S    
C19   C24   S    
C16   C17   S    
C17   C20   S    
C6    C26   T    
Cu2   O6    S    
Cu1   O5    S    
C17   H3    S    
C12   C20   S    
C13   C26   S    
C12   H1    S    
C15   C19   S    
C15   H12   S    
C21   C22   S    
C9    C10   S    
Cu1   Cu2   S    
C21   H5    S    
C22   H4    S    
C17   H2    S    
Cu1   O7    S    
C18   C23   T    
C11   N1    T    
Cu2   O2    S    
Cu2   O8    S    
C2    C3    D    
C8    C11   S    
C20   C23   S    
Cu2   O4    S    
C1    C7    S    
C14   O7    A    
Cu1   O1    S    
Br3   C22   S    
C16   C19   S    
C16   H13   S    
C4    O3    A    
Br1   C21   S    
C5    C7    T    
C1    O2    A    
C2    H9    S    
C24   C25   T    
C10   N2    T    
C15   H6    S    
C3    C5    S    
C8    H11   S    
C20   C21   S    
Br2   C16   S    
C3    H8    S    
C19   C22   S    
C14   O8    A    
Cu1   O3    S    
C14   C18   S    
C4    C25   S    
C13   O6    A    
C4    O4    A    
Cu2   N2    S    
C1    O1    A    
