data_mof_unit_37543.cif
_audit_creation_date              2013-03-05T15:45:12-0500
_audit_creation_method            fapswitch 2.2
_symmetry_space_group_name_H-M    P1
_symmetry_Int_Tables_number       1
_space_group_crystal_system       triclinic
_cell_length_a                    11.532216
_cell_length_b                    11.519729
_cell_length_c                    19.52396
_cell_angle_alpha                 90.98251
_cell_angle_beta                  90.108009
_cell_angle_gamma                 59.969337
_cell_volume                      2245.134938

loop_
_atom_site_label
_atom_site_type_symbol
_atom_site_description
_atom_site_fract_x
_atom_site_fract_y
_atom_site_fract_z
_atom_type_partial_charge
O1    O     O_R   0.267740 0.231990 0.575440 -0.489746
O2    O     O_R   0.527280 0.186680 0.570530 -0.488638
C1    C     C_R   0.640518 0.118092 0.599090 0.550316
O3    O     O_R   0.728090 0.003480 0.576380 -0.497718
O4    O     O_R   0.682970 0.789220 0.570490 -0.492853
C2    C     C_R   0.612463 0.746137 0.598611 0.549138
O5    O     O_R   0.499290 0.771920 0.575530 -0.494644
O6    O     O_R   0.285330 0.030900 0.569730 -0.495636
C3    C     C_R   0.240410 0.145893 0.598044 0.550463
O7    O     O_R   0.270980 0.227040 0.423900 -0.451249
O8    O     O_R   0.530280 0.182090 0.430050 -0.461011
C4    C     C_R   0.646093 0.111291 0.402129 0.578325
O9    O     O_R   0.731330 0.998530 0.424830 -0.454390
O10   O     O_R   0.685970 0.784630 0.430010 -0.471727
C5    C     C_R   0.617978 0.737212 0.403271 0.565018
O11   O     O_R   0.502530 0.766960 0.423990 -0.447519
O12   O     O_R   0.288330 0.026310 0.429250 -0.464804
C6    C     C_R   0.239794 0.141200 0.402486 0.576464
Cr1   Cr    Cr6+3 0.404720 0.198220 0.499960 1.141334
Cr2   Cr    Cr6+3 0.698290 0.897110 0.500380 1.132772
Cr3   Cr    Cr6+3 0.396970 0.904720 0.499610 1.135771
O13   O     O_3   0.499990 0.000020 0.499980 -0.318377
C7    C     C_1   0.670464 0.646429 0.860149 0.012066
C8    C     C_1   0.654853 0.683882 0.728394 -0.025399
C9    C     C_1   0.663539 0.666701 0.799704 -0.027165
C10   C     C_1   0.641300 0.704170 0.667947 0.015244
C11   C     C_1   0.127235 0.197706 0.859330 0.010821
C12   C     C_1   0.170995 0.170878 0.727594 -0.025824
C13   C     C_1   0.150288 0.181716 0.798867 -0.026756
C14   C     C_1   0.194504 0.162111 0.667220 0.013455
C15   C     C_1   0.678870 0.190324 0.860897 0.011552
C16   C     C_1   0.658165 0.168012 0.729036 -0.025961
C17   C     C_1   0.665689 0.180561 0.800395 -0.026825
C18   C     C_1   0.652513 0.150957 0.668528 0.013313
C19   C     C_R   0.590702 0.811900 0.287253 -0.029867
H1    H     H_    0.538430 0.914095 0.307279 0.125466
C20   C     C_R   0.605115 0.788015 0.216904 0.224686
C21   C     C_R   0.672386 0.653355 0.194441 0.047573
C22   C     C_R   0.725946 0.546760 0.240509 -0.148346
H2    H     H_    0.776637 0.443302 0.222280 0.104202
C23   C     C_R   0.710643 0.572373 0.309978 -0.073517
H3    H     H_    0.749370 0.490409 0.345595 0.173220
C24   C     C_R   0.642592 0.704540 0.332598 0.065775
C25   C     C_R   0.103247 0.299043 0.312469 0.161021
C26   C     C_R   0.086841 0.318491 0.242348 -0.125207
C27   C     C_R   0.123488 0.210103 0.197006 -0.030753
C28   C     C_R   0.172045 0.081465 0.222232 -0.078687
C29   C     C_R   0.192790 0.058243 0.292226 0.150125
C30   C     C_R   0.168061 0.166727 0.337291 -0.002030
C31   C     C_R   0.748743 0.035111 0.286627 0.142841
C32   C     C_R   0.739032 0.058290 0.217299 -0.066388
H4    H     H_    0.799740 0.975046 0.182587 0.196393
C33   C     C_R   0.667864 0.188175 0.192927 -0.028684
C34   C     C_R   0.592589 0.296124 0.237914 -0.124393
C35   C     C_R   0.592786 0.275195 0.308211 0.157732
C36   C     C_R   0.669640 0.143055 0.333053 -0.008750
O14   O     O_R   0.821500 0.119550 0.952820 -0.497502
O15   O     O_R   0.037130 0.162750 0.957360 -0.491459
C37   C     C_R   0.082392 0.230642 0.928701 0.554818
O16   O     O_R   0.056440 0.344950 0.951330 -0.499126
O17   O     O_R   0.797900 0.560570 0.957460 -0.489736
C38   C     C_R   0.683910 0.604495 0.929487 0.562839
O18   O     O_R   0.596140 0.579600 0.952720 -0.498376
O19   O     O_R   0.639070 0.321380 0.958660 -0.492924
C39   C     C_R   0.708287 0.206296 0.930247 0.555893
O20   O     O_R   0.821240 0.124490 0.104360 -0.511177
O21   O     O_R   0.036900 0.167320 0.097830 -0.502281
C40   C     C_R   0.079899 0.238486 0.126366 0.564405
O22   O     O_R   0.056190 0.349890 0.102870 -0.500659
O23   O     O_R   0.797670 0.565150 0.097930 -0.490816
C41   C     C_R   0.682094 0.614314 0.124425 0.606516
O24   O     O_R   0.595880 0.584540 0.104260 -0.496311
O25   O     O_R   0.638830 0.325960 0.099140 -0.499136
C42   C     C_R   0.706100 0.211360 0.126090 0.558951
Cr4   Cr    Cr6+3 0.926180 0.152240 0.028110 1.060696
Cr5   Cr    Cr6+3 0.921340 0.452070 0.027460 1.076105
Cr6   Cr    Cr6+3 0.626260 0.447120 0.028700 1.069759
O26   O     O_3   0.824590 0.350480 0.028090 -0.283374
H5    H     H_    0.542102 0.397698 0.219153 0.183994
N1    N     N_R   0.522549 0.389335 0.353747 0.089394
O27   O     O_R   0.575042 0.393988 0.412077 -0.325322
O28   O     O_R   0.416199 0.496625 0.332988 -0.237954
N2    N     N_R   0.551462 0.899146 0.170480 0.067687
O29   O     O_R   0.472733 0.020814 0.193333 -0.363349
O30   O     O_R   0.587741 0.881954 0.106333 -0.335215
N3    N     N_R   0.052135 0.414106 0.358030 0.092574
O31   O     O_R   0.000403 0.412926 0.417037 -0.328062
O32   O     O_R   0.042995 0.525389 0.337732 -0.230796
H6    H     H_    0.037661 0.420038 0.223568 0.191298
H7    H     H_    0.190635 0.999467 0.187471 0.184989
N4    N     N_R   0.236138 0.925428 0.316234 0.100427
O33   O     O_R   0.315175 0.821307 0.278372 -0.301649
O34   O     O_R   0.174545 0.909203 0.367729 -0.228738
N5    N     N_R   0.845754 0.902757 0.308372 0.102072
O35   O     O_R   0.943316 0.887766 0.347686 -0.207285
O36   O     O_R   0.858553 0.798289 0.274910 -0.313391

loop_
_geom_bond_atom_site_label_1
_geom_bond_atom_site_label_2
_geom_bond_distance
_ccdc_geom_bond_type
C25   C30   1.414385 A    
C35   C36   1.418176 A    
O11   Cr3   2.042762 S    
C11   C13   1.201196 T    
C23   H3    1.083431 S    
C33   C42   1.449347 S    
C22   C23   1.375794 A    
O4    Cr2   1.930969 S    
C2    C10   1.427117 S    
Cr6   O26   1.980343 S    
O8    Cr1   1.929674 S    
C20   C21   1.404968 A    
N2    O29   1.301621 A    
Cr5   O26   1.980430 S    
C12   C13   1.405138 S    
C19   C20   1.389946 A    
C8    C10   1.201680 T    
C21   C22   1.405329 A    
N3    O32   1.301378 A    
C5    O11   1.262631 A    
O20   C42   1.265737 A    
O22   Cr5   2.046995 S    
O25   C42   1.272272 A    
O24   Cr6   2.042499 S    
C27   C28   1.394809 A    
C7    C38   1.427127 S    
C19   H1    1.084890 S    
O6    C3    1.271948 A    
C29   N4    1.438286 S    
C15   C17   1.201230 T    
O23   C41   1.265632 A    
C19   C24   1.402222 A    
C37   O16   1.266804 A    
Cr3   O13   1.980385 S    
C23   C24   1.382503 A    
C21   C41   1.418643 S    
C25   N3    1.440545 S    
O15   Cr4   1.930616 S    
O12   C6    1.272444 A    
O17   Cr5   1.930499 S    
O1    Cr1   2.047548 S    
O21   C40   1.272234 A    
O10   Cr2   1.925931 S    
Cr1   O13   1.977203 S    
O1    C3    1.267357 A    
C8    C9    1.405936 S    
N1    O28   1.301565 A    
N4    O33   1.301436 A    
N3    O31   1.301754 A    
C31   N5    1.438611 S    
C1    C18   1.426377 S    
C31   C32   1.377629 A    
O15   C37   1.273556 A    
O5    Cr3   2.047959 S    
O16   Cr5   2.044714 S    
C31   C36   1.424464 A    
C32   H4    1.084677 S    
C32   C33   1.390164 A    
C16   C18   1.201247 T    
C27   C40   1.452608 S    
C38   O18   1.268566 A    
N4    O34   1.300884 A    
C28   C29   1.394102 A    
O7    Cr1   2.046930 S    
O6    Cr3   1.926102 S    
N5    O35   1.300633 A    
N5    O36   1.300958 A    
C4    C36   1.464306 S    
C3    C14   1.426292 S    
C29   C30   1.422582 A    
N2    O30   1.301272 A    
Cr2   O13   1.980351 S    
O23   Cr5   1.926206 S    
C28   H7    1.083820 S    
O21   Cr4   1.928926 S    
C1    O3    1.267549 A    
C22   H2    1.085219 S    
C26   H6    1.083686 S    
C25   C26   1.388305 A    
C34   H5    1.083649 S    
O18   Cr6   2.048266 S    
C15   C39   1.426328 S    
C34   C35   1.397358 A    
O9    Cr2   2.047609 S    
O2    Cr1   1.929911 S    
C40   O22   1.265175 A    
O14   C39   1.266664 A    
N1    O27   1.301566 A    
O8    C4    1.281923 A    
C33   C34   1.398691 A    
C2    O5    1.268482 A    
C16   C17   1.405234 S    
O14   Cr4   2.046770 S    
C12   C14   1.201189 T    
O2    C1    1.272852 A    
C5    C24   1.415224 S    
C41   O24   1.263479 A    
C11   C37   1.426317 S    
O19   C39   1.272675 A    
C35   N1    1.439429 S    
O4    C2    1.274304 A    
O7    C6    1.274049 A    
O20   Cr4   2.047762 S    
C7    C9    1.201684 T    
O17   C38   1.274107 A    
Cr4   O26   1.977320 S    
O12   Cr3   1.929159 S    
O3    Cr2   2.044146 S    
C26   C27   1.398791 A    
C4    O9    1.260983 A    
O19   Cr6   1.925757 S    
O25   Cr6   1.929508 S    
O10   C5    1.266130 A    
C20   N2    1.445025 S    
C6    C30   1.468462 S    
