data_mof_unit_11427.cif
_audit_creation_date              2012-12-10T19:13:23-0500
_audit_creation_method            fapswitch 2.2
_symmetry_space_group_name_H-M    P1
_symmetry_Int_Tables_number       1
_space_group_crystal_system       triclinic
_cell_length_a                    9.710782
_cell_length_b                    10.632979
_cell_length_c                    16.617936
_cell_angle_alpha                 90.033159
_cell_angle_beta                  84.839639
_cell_angle_gamma                 89.295831
_cell_volume                      1708.79116433

loop_
_atom_site_label
_atom_site_type_symbol
_atom_type_description
_atom_site_fract_x
_atom_site_fract_y
_atom_site_fract_z
_atom_type_partial_charge
C1    C     C_R   0.499228 0.742454 0.499931 0.859746
C2    C     C_R   0.352573 0.478005 0.789628 0.267619
C3    C     C_R   0.450202 0.516668 0.127137 -0.349380
C4    C     C_R   0.429561 0.534379 0.211118 0.504681
C5    C     C_R   0.659342 0.440959 0.221215 -0.268767
C6    C     C_R   0.675492 0.421058 0.138572 -0.157976
C7    C     C_R   0.568913 0.454946 0.092192 -0.024631
C8    C     C_2   0.471239 0.358586 0.980086 -0.134780
C9    C     C_2   0.577474 0.422325 0.006386 0.504678
C10   C     C_R   0.536051 0.494335 0.258130 -0.121228
C11   C     C_3   0.348397 0.930471 0.500962 -0.351751
C12   C     C_R   0.480572 0.491654 0.653333 1.025283
C13   C     C_3   0.349020 0.073045 0.500351 -0.399878
C14   C     C_3   0.563948 0.927165 0.575301 -0.432237
C15   C     C_3   0.583089 0.925996 0.422153 -0.455513
C16   C     C_3   0.498468 0.878732 0.499608 0.118259
C17   C     C_3   0.500063 0.121133 0.499188 0.148800
C18   C     C_3   0.563598 0.071440 0.575443 -0.506157
C19   C     C_3   0.586694 0.070923 0.422377 0.276883
C20   C     C_3   0.914767 0.630292 0.494489 -0.478008
C21   C     C_3   0.078850 0.633301 0.493681 0.918401
C22   C     C_3   0.909104 0.447943 0.577684 -0.287371
C23   C     C_R   0.500378 0.257543 0.499935 0.908923
C24   C     C_3   0.931488 0.428710 0.431748 0.380083
C25   C     C_3   0.071505 0.444708 0.575912 -0.409042
C26   C     C_3   0.093955 0.425800 0.433698 -0.366948
C27   C     C_R   0.519756 0.501494 0.346144 0.922703
C28   C     C_R   0.468295 0.445046 0.736347 -0.268781
C29   C     C_R   0.563335 0.352285 0.758148 0.204646
C30   C     C_R   0.557718 0.311431 0.838873 0.396590
C31   C     C_R   0.451148 0.356022 0.893980 -0.087965
C32   C     C_R   0.339165 0.425138 0.867566 0.306636
H1    H     H_    0.768593 0.375413 0.111250 0.159068
H2    H     H_    0.285830 0.898031 0.556276 0.224356
H3    H     H_    0.298973 0.896459 0.447281 0.209457
H4    H     H_    0.299555 0.107574 0.446458 0.215638
H5    H     H_    0.285516 0.108652 0.555028 0.162267
H6    H     H_    0.504880 0.892407 0.631256 0.183000
H7    H     H_    0.502586 0.107010 0.630924 0.197396
H8    H     H_    0.690977 0.888413 0.419071 0.142872
H9    H     H_    0.536366 0.890967 0.367706 0.196028
H10   H     H_    0.696088 0.101214 0.424124 0.128742
H11   H     H_    0.672270 0.891711 0.575612 0.185500
H12   H     H_    0.671528 0.104976 0.576823 0.195701
H13   H     H_    0.864771 0.689001 0.544564 0.166995
H14   H     H_    0.881150 0.674077 0.438527 0.156282
H15   H     H_    0.866262 0.505617 0.630168 0.188438
H16   H     H_    0.104192 0.491820 0.630509 0.220340
H17   H     H_    0.741665 0.410010 0.256712 0.184866
H18   H     H_    0.908647 0.476814 0.374875 0.113246
H19   H     H_    0.143663 0.459395 0.375390 0.189303
H20   H     H_    0.133191 0.327624 0.438751 0.167590
H21   H     H_    0.867601 0.352116 0.588720 0.211734
H22   H     H_    0.107968 0.345527 0.580604 0.169354
H23   H     H_    0.374004 0.548552 0.087930 0.153218
H24   H     H_    0.384769 0.333799 0.022917 0.101826
N1    N     N_3   0.861190 0.500250 0.501720 -0.071093
N2    N     N_3   0.138550 0.503270 0.501080 -0.056109
O1    O     O_R   0.383960 0.685090 0.500020 -0.535081
O2    O     O_R   0.616040 0.685320 0.499960 -0.653717
O3    O     O_R   0.370240 0.499890 0.615830 -0.583945
O4    O     O_R   0.602330 0.500120 0.615770 -0.589540
O5    O     O_R   0.383960 0.314680 0.500040 -0.656451
O6    O     O_R   0.616040 0.314910 0.499980 -0.568386
O7    O     O_R   0.397670 0.499880 0.384230 -0.558124
O8    O     O_R   0.629760 0.500110 0.384170 -0.623275
Zn1   Zn    Zn3+2 0.345040 0.499850 0.500040 1.008944
Zn2   Zn    Zn3+2 0.654960 0.500150 0.499960 0.960765
O9    O     O_3   0.658676 0.302677 0.699499 -0.789196
H25   H     H_    0.684644 0.216361 0.715211 0.327479
O10   O     O_3   0.534061 0.119108 0.352345 -0.779524
H26   H     H_    0.607144 0.105885 0.307298 0.337483
O11   O     O_3   0.315033 0.599402 0.248316 -0.624401
C33   C     C_3   0.190046 0.575491 0.213013 0.109762
H27   H     H_    0.107176 0.562712 0.262546 0.155340
H28   H     H_    0.192113 0.486678 0.177170 0.111828
C34   C     C_3   0.147656 0.689248 0.163838 -0.332009
H29   H     H_    0.125504 0.770716 0.205143 0.229874
H30   H     H_    0.232899 0.716170 0.118395 0.222739
C35   C     C_3   0.018982 0.661409 0.120664 -0.973311
H31   H     H_    0.040078 0.582514 0.077256 0.275593
H32   H     H_    0.989148 0.745908 0.086726 0.268592
H33   H     H_    0.931282 0.636325 0.165120 0.262899
O12   O     O_3   0.134174 0.685701 0.420163 -0.755004
H34   H     H_    0.099620 0.773858 0.418437 0.311412
O13   O     O_3   0.118226 0.710208 0.556850 -0.780974
H35   H     H_    0.058114 0.693111 0.606943 0.299151
O14   O     O_3   0.877822 0.306959 0.426918 -0.763844
H36   H     H_    0.915064 0.254261 0.469310 0.315215
O15   O     O_3   0.693620 0.450163 0.954325 -0.627334
C36   C     C_3   0.724316 0.579873 0.955854 0.053976
H37   H     H_    0.832600 0.590516 0.929138 0.175538
H38   H     H_    0.721194 0.619243 0.018073 0.148951
C37   C     C_3   0.628994 0.655150 0.904383 -0.381354
H39   H     H_    0.635943 0.615174 0.842309 0.229945
H40   H     H_    0.520172 0.648275 0.930966 0.223818
C38   C     C_3   0.668784 0.793481 0.899641 -0.903863
H41   H     H_    0.660563 0.835877 0.961026 0.268216
H42   H     H_    0.597875 0.845265 0.862174 0.271428
H43   H     H_    0.776299 0.803270 0.871530 0.260838
O16   O     O_3   0.222611 0.452327 0.919562 -0.657976
C39   C     C_3   0.145640 0.341113 0.935778 0.071291
H44   H     H_    0.068223 0.360625 0.987792 0.162259
H45   H     H_    0.211123 0.261830 0.954752 0.137382
C40   C     C_3   0.068035 0.300545 0.863538 -0.361877
H46   H     H_    0.985405 0.370669 0.853681 0.239197
H47   H     H_    0.139823 0.295024 0.807699 0.217722
C41   C     C_3   0.004568 0.170978 0.878186 -0.922848
H48   H     H_    0.085618 0.100652 0.890392 0.257783
H49   H     H_    0.956451 0.139941 0.823537 0.259070
H50   H     H_    0.924730 0.174365 0.930422 0.292399
O17   O     O_3   0.255343 0.561481 0.763835 -0.764676
H51   H     H_    0.180694 0.576382 0.807513 0.370488
O18   O     O_3   0.658055 0.234105 0.866865 -0.741583
H52   H     H_    0.745952 0.249162 0.833704 0.351383

loop_
_geom_bond_atom_site_label_1
_geom_bond_atom_site_label_2
_ccdc_geom_bond_type
C10   C27   S    
O8    Zn2   S    
O16   C39   S    
O11   C33   S    
C14   C18   S    
C19   O10   S    
C8    H24   S    
C22   N1    S    
O18   H52   S    
C34   H29   S    
C15   C19   S    
C40   H47   S    
C2    O17   S    
C17   C23   S    
C33   H28   S    
C12   C28   S    
O6    Zn2   S    
C28   C29   A    
C24   C26   S    
C26   H20   S    
C1    O1    A    
C5    C6    A    
C14   H6    S    
C15   C16   S    
C41   H48   S    
C39   C40   S    
C2    C32   A    
O1    Zn1   S    
C3    H23   S    
C24   N1    S    
O7    Zn1   S    
C33   C34   S    
C13   H5    S    
C20   H13   S    
C19   H10   S    
C23   O5    A    
C22   H15   S    
C5    H17   S    
O9    H25   S    
C35   H33   S    
O17   H51   S    
C38   H42   S    
C38   H41   S    
C22   H21   S    
C29   O9    S    
C34   H30   S    
C24   H18   S    
C40   C41   S    
O5    Zn1   S    
C33   H27   S    
O12   H34   S    
C15   H9    S    
C13   H4    S    
C35   H32   S    
C1    O2    A    
C36   H37   S    
O13   H35   S    
C8    C9    D    
C37   C38   S    
C22   C25   S    
C39   H45   S    
C18   H7    S    
C29   C30   A    
C27   O7    A    
C18   H12   S    
C36   H38   S    
C12   O4    A    
C11   C16   S    
O3    Zn1   S    
C31   C32   A    
C21   O12   S    
C20   C21   S    
C17   C18   S    
C37   H39   S    
C1    C16   S    
C25   H22   S    
C37   H40   S    
C26   N2    S    
C25   H16   S    
C4    O11   S    
C23   O6    A    
C14   C16   S    
C25   N2    S    
N1    Zn2   S    
C4    C10   A    
C3    C4    A    
C38   H43   S    
C30   O18   S    
C34   C35   S    
C7    C9    S    
C21   O13   S    
C8    C31   S    
C24   O14   S    
C11   H2    S    
C35   H31   S    
C9    O15   S    
C41   H50   S    
C6    C7    A    
O4    Zn2   S    
C40   H46   S    
C3    C7    A    
C6    H1    S    
C13   C17   S    
C11   H3    S    
C5    C10   A    
C27   O8    A    
C26   H19   S    
C36   C37   S    
C12   O3    A    
C11   C13   S    
O15   C36   S    
C30   C31   A    
C17   C19   S    
C41   H49   S    
C39   H44   S    
C15   H8    S    
N2    Zn1   S    
C21   N2    S    
O10   H26   S    
O14   H36   S    
O2    Zn2   S    
C32   O16   S    
C2    C28   A    
C20   N1    S    
C20   H14   S    
C14   H11   S    
