data_mof_unit_56068.cif
_audit_creation_date              2012-12-11T16:51:21-0500
_audit_creation_method            fapswitch 2.2
_symmetry_space_group_name_H-M    P1
_symmetry_Int_Tables_number       1
_space_group_crystal_system       triclinic
_cell_length_a                    24.575433
_cell_length_b                    17.25096
_cell_length_c                    15.618731
_cell_angle_alpha                 89.772302
_cell_angle_beta                  129.510302
_cell_angle_gamma                 90.061334
_cell_volume                      5108.55013669

loop_
_atom_site_label
_atom_site_type_symbol
_atom_type_description
_atom_site_fract_x
_atom_site_fract_y
_atom_site_fract_z
_atom_type_partial_charge
Br1   Br    Br    0.275584 0.925629 0.730230 -0.650862
Br2   Br    Br    0.726043 0.899373 0.283221 -0.617796
Br3   Br    Br    0.770768 0.378885 0.712239 -0.623254
Br4   Br    Br    0.236192 0.359085 0.272590 -0.575940
C1    C     C_R   0.848251 0.860612 0.235963 -0.083596
C2    C     C_R   0.183271 0.120891 0.502939 0.115311
C3    C     C_3   0.530419 0.215654 0.171782 -0.184747
C4    C     C_3   0.647361 0.072474 0.896335 -0.195896
C5    C     C_3   0.286952 0.179140 0.021391 -0.246008
C6    C     C_3   0.147359 0.557130 0.881001 -0.219764
C7    C     C_3   0.851909 0.555825 0.114006 -0.198014
C8    C     C_3   0.692650 0.711207 0.214598 -0.253204
C9    C     C_3   0.310642 0.728977 0.760395 -0.213359
C10   C     C_3   0.284437 0.121628 0.289771 -0.224344
C11   C     C_3   0.791460 0.187603 0.779306 -0.225154
C12   C     C_R   0.367217 0.689180 0.501778 0.109310
C13   C     C_R   0.684692 0.616116 0.504588 0.113368
C14   C     C_R   0.856994 0.143454 0.150114 0.181725
C15   C     C_R   0.116964 0.183279 0.787016 0.167485
C16   C     C_R   0.353770 0.631733 0.139283 0.194577
C17   C     C_R   0.647601 0.631377 0.860136 0.193946
C18   C     C_R   0.840856 0.727768 0.607031 -0.104173
C19   C     C_R   0.249361 0.851730 0.440603 -0.093459
C20   C     C_R   0.346297 0.223921 0.611098 -0.118685
C21   C     C_R   0.152463 0.860815 0.763444 -0.083340
C22   C     C_R   0.654823 0.225919 0.390279 -0.108954
C23   C     C_R   0.816643 0.757346 0.504467 -0.127383
C24   C     C_R   0.231576 0.830812 0.506474 -0.095288
C25   C     C_R   0.331981 0.242478 0.511122 -0.120033
C26   C     C_R   0.672487 0.246461 0.491924 -0.119109
C27   C     C_R   0.770475 0.710885 0.408610 0.695014
C28   C     C_R   0.269897 0.771906 0.586985 0.670875
C29   C     C_R   0.289151 0.191032 0.420919 0.700133
C30   C     C_R   0.719712 0.198533 0.585905 0.699228
C31   C     C_R   0.241186 0.143994 0.419303 -0.406283
C32   C     C_R   0.331394 0.401809 0.192859 -0.039306
C33   C     C_R   0.760775 0.144501 0.580380 -0.414427
C34   C     C_R   0.735505 0.649087 0.415294 -0.416226
C35   C     C_R   0.317392 0.728875 0.586514 -0.411868
C36   C     C_R   0.243107 0.144007 0.511166 0.048967
C37   C     C_R   0.756423 0.143428 0.486631 0.054127
C38   C     C_R   0.743794 0.639592 0.511899 0.049490
C39   C     C_R   0.330235 0.746595 0.512839 0.032495
C40   C     C_R   0.301820 0.175543 0.610648 0.072550
C41   C     C_R   0.697637 0.176379 0.388365 0.089377
C42   C     C_R   0.803458 0.670766 0.610574 0.083513
C43   C     C_R   0.659062 0.370736 0.780748 -0.092767
C44   C     C_R   0.300946 0.813195 0.447844 0.077206
C45   C     C_3   0.814880 0.705455 0.709019 -0.615013
C46   C     C_3   0.270365 0.832901 0.331424 -0.617413
C47   C     C_3   0.307150 0.220707 0.697627 -0.590448
C48   C     C_3   0.691182 0.221085 0.299711 -0.631565
C49   C     C_R   0.111796 0.890669 0.407870 -0.240892
C50   C     C_R   0.900149 0.869073 0.592589 -0.228277
C51   C     C_R   0.587989 0.357725 0.407149 -0.226647
C52   C     C_R   0.411433 0.357472 0.592573 -0.233041
C53   C     C_3   0.857801 0.767267 0.707774 0.543197
C54   C     C_R   0.884299 0.104041 0.589446 -0.142542
C55   C     C_3   0.210367 0.872243 0.320541 0.555497
C56   C     C_3   0.356478 0.274378 0.699530 0.542164
C57   C     C_3   0.643197 0.275762 0.299785 0.545771
C58   C     C_2   0.151395 0.751213 0.870260 -0.195426
C59   C     C_2   0.854078 0.748964 0.136544 -0.184084
C60   C     C_2   0.664709 0.270930 0.902825 -0.224492
C61   C     C_2   0.304819 0.367881 0.012113 -0.128297
C62   C     C_2   0.192516 0.703690 0.865521 -0.332014
C63   C     C_2   0.808716 0.703729 0.133801 -0.339255
C64   C     C_2   0.692883 0.215335 0.882224 -0.356432
C65   C     C_R   0.114886 0.104763 0.409129 -0.129137
C66   C     C_2   0.237571 0.350528 0.961078 -0.308509
C67   C     C_2   0.809319 0.179293 0.040685 -0.400568
C68   C     C_2   0.143216 0.257251 0.845496 -0.405998
C69   C     C_2   0.306756 0.662428 0.025738 -0.389090
C70   C     C_2   0.695008 0.662332 0.972889 -0.389466
C71   C     C_2   0.741006 0.158371 0.968440 0.682767
C72   C     C_2   0.211745 0.275792 0.905338 0.673240
C73   C     C_2   0.237218 0.646645 0.954578 0.677444
C74   C     C_2   0.764851 0.648135 0.043019 0.675001
C75   C     C_R   0.187226 0.895061 0.592232 0.370995
C76   C     C_R   0.418944 0.646050 0.592638 -0.141876
C77   C     C_R   0.821609 0.873841 0.408073 0.378432
C78   C     C_R   0.672069 0.364825 0.591315 0.366033
C79   C     C_R   0.331666 0.360585 0.408441 0.382395
C80   C     C_R   0.065068 0.864468 0.772513 -0.157474
C81   C     C_R   0.939715 0.861647 0.236020 -0.132223
C82   C     C_R   0.571117 0.375131 0.787810 -0.157314
C83   C     C_R   0.422341 0.400478 0.194209 -0.167646
C84   C     C_R   0.880203 0.820560 0.201281 0.129400
C85   C     C_R   0.123550 0.822459 0.804046 0.132142
C86   C     C_R   0.350940 0.388817 0.128713 0.100144
C87   C     C_R   0.615757 0.602732 0.410081 -0.129096
C88   C     C_R   0.633318 0.337809 0.829142 0.155243
C89   C     C_R   0.178572 0.870883 0.500678 0.048872
C90   C     C_R   0.841245 0.833116 0.500814 0.030350
C91   C     C_R   0.645229 0.319032 0.498542 0.031297
C92   C     C_R   0.357764 0.315777 0.502059 0.023440
C93   C     C_R   0.811520 0.103218 0.405075 -0.126226
C94   C     C_R   0.188328 0.102677 0.593215 -0.145947
C95   C     C_R   0.338879 0.644601 0.408240 -0.122886
C96   C     C_R   0.689126 0.599479 0.594364 -0.133713
C97   C     C_R   0.925591 0.117218 0.205081 -0.146736
C98   C     C_R   0.816035 0.120450 0.494761 0.115785
C99   C     C_R   0.058407 0.141597 0.756436 -0.158356
C100  C     C_R   0.424055 0.610833 0.200193 -0.153437
C101  C     C_R   0.578070 0.608540 0.802142 -0.177378
C102  C     C_R   0.147515 0.142138 0.751484 -0.057789
C103  C     C_R   0.836354 0.118935 0.209639 -0.055377
C104  C     C_R   0.666100 0.612476 0.796050 -0.067247
C105  C     C_R   0.333875 0.611004 0.201307 -0.092350
C106  C     C_3   0.972232 0.709322 0.814349 -0.211191
C107  C     C_3   0.135412 0.760441 0.259892 -0.183255
C108  C     C_3   0.469216 0.214244 0.830204 -0.209154
H1    H     H_    0.799200 0.846297 0.217443 0.163800
H2    H     H_    0.304027 0.875127 0.330099 0.169188
H3    H     H_    0.256743 0.249313 0.665403 0.171941
H4    H     H_    0.741480 0.248909 0.330145 0.172505
H5    H     H_    0.845984 0.666975 0.783199 0.218799
H6    H     H_    0.254581 0.782583 0.276274 0.201581
H7    H     H_    0.332814 0.187141 0.775659 0.221332
H8    H     H_    0.664437 0.187573 0.221764 0.211204
H9    H     H_    0.833031 0.825578 0.688203 0.048343
H10   H     H_    0.208968 0.935970 0.308328 0.026706
H11   H     H_    0.333548 0.333333 0.668287 0.054002
H12   H     H_    0.199746 0.845441 0.776677 0.154932
H13   H     H_    0.666576 0.334540 0.329785 0.056357
H14   H     H_    0.202552 0.714739 0.808323 0.146727
H15   H     H_    0.794374 0.716790 0.184807 0.185966
H16   H     H_    0.687750 0.216980 0.807964 0.195415
H17   H     H_    0.208993 0.377838 0.984468 0.138968
H18   H     H_    0.828333 0.230018 0.025344 0.128564
H19   H     H_    0.106700 0.296648 0.840238 0.130350
H20   H     H_    0.328682 0.705464 0.004197 0.115629
H21   H     H_    0.672470 0.703649 0.994907 0.110930
H22   H     H_    0.141729 0.739900 0.928069 0.149359
H23   H     H_    0.278315 0.411806 0.161179 0.153350
H24   H     H_    0.867966 0.736279 0.084444 0.160402
H25   H     H_    0.667332 0.268230 0.974903 0.148018
H26   H     H_    0.330738 0.344056 0.981844 0.174693
H27   H     H_    0.090939 0.890867 0.322824 0.171971
H28   H     H_    0.925567 0.858731 0.677877 0.159335
H29   H     H_    0.554395 0.340303 0.321691 0.167158
H30   H     H_    0.440752 0.341709 0.677417 0.164149
H31   H     H_    0.035671 0.853851 0.800805 0.130661
H32   H     H_    0.975475 0.847153 0.220494 0.113154
H33   H     H_    0.543423 0.370105 0.820210 0.126964
H34   H     H_    0.709766 0.359630 0.803580 0.166066
H35   H     H_    0.452146 0.405220 0.165190 0.126696
H36   H     H_    0.764054 0.096588 0.320029 0.136638
H37   H     H_    0.236180 0.095553 0.677843 0.156824
H38   H     H_    0.293864 0.657925 0.323671 0.088935
H39   H     H_    0.736362 0.590172 0.678974 0.136513
H40   H     H_    0.954683 0.119133 0.174663 0.109731
H41   H     H_    0.021690 0.157957 0.769375 0.117229
H42   H     H_    0.453744 0.610453 0.170777 0.102794
H43   H     H_    0.550601 0.605622 0.835271 0.104093
H44   H     H_    0.190829 0.159061 0.754327 0.153658
H45   H     H_    0.199328 0.113896 0.344398 0.146993
H46   H     H_    0.784516 0.123306 0.186219 0.130346
H47   H     H_    0.717628 0.615798 0.818339 0.147188
H48   H     H_    0.281302 0.611682 0.175169 0.147983
H49   H     H_    0.903604 0.101216 0.673840 0.097605
H50   H     H_    0.094991 0.102505 0.324396 0.101652
H51   H     H_    0.448601 0.661635 0.678641 0.107374
H52   H     H_    0.595613 0.600963 0.325196 0.093048
H53   H     H_    0.979843 0.718760 0.752157 0.135555
H54   H     H_    0.950355 0.650684 0.805022 0.151316
H55   H     H_    0.025023 0.711700 0.897645 0.163266
H56   H     H_    0.800436 0.109343 0.651305 0.141748
H57   H     H_    0.123859 0.758188 0.317792 0.139148
H58   H     H_    0.181492 0.723109 0.291652 0.130968
H59   H     H_    0.089461 0.734617 0.180675 0.166525
H60   H     H_    0.484495 0.215403 0.776810 0.131725
H61   H     H_    0.444371 0.157965 0.822310 0.150222
H62   H     H_    0.518404 0.219171 0.917487 0.172306
H63   H     H_    0.516571 0.215160 0.227042 0.129635
H64   H     H_    0.555162 0.159827 0.177811 0.145407
H65   H     H_    0.480426 0.221254 0.085300 0.178552
H66   H     H_    0.611634 0.115212 0.891492 0.135343
H67   H     H_    0.696292 0.615054 0.343029 0.143243
H68   H     H_    0.635028 0.014675 0.911459 0.172757
H69   H     H_    0.637545 0.069513 0.816343 0.139869
H70   H     H_    0.244157 0.145996 0.010797 0.147641
H71   H     H_    0.314268 0.216921 0.095770 0.156348
H72   H     H_    0.326132 0.136620 0.036637 0.169415
H73   H     H_    0.102191 0.597739 0.842861 0.144874
H74   H     H_    0.133833 0.503438 0.903083 0.165319
H75   H     H_    0.155021 0.540975 0.820321 0.137548
H76   H     H_    0.899018 0.594016 0.161357 0.149235
H77   H     H_    0.865355 0.503838 0.089165 0.172956
H78   H     H_    0.338571 0.676484 0.636078 0.153356
H79   H     H_    0.839369 0.535658 0.167570 0.127849
H80   H     H_    0.651348 0.727939 0.220492 0.163962
H81   H     H_    0.687904 0.649245 0.191676 0.134293
H82   H     H_    0.682661 0.746540 0.146494 0.184353
H83   H     H_    0.358262 0.763966 0.792048 0.158462
H84   H     H_    0.322119 0.666100 0.765779 0.132506
H85   H     H_    0.298554 0.740484 0.816391 0.164573
H86   H     H_    0.228921 0.101304 0.232395 0.144883
H87   H     H_    0.318870 0.078342 0.357110 0.112938
H88   H     H_    0.302830 0.126129 0.240923 0.161714
H89   H     H_    0.766017 0.729596 0.689098 0.169192
H90   H     H_    0.835397 0.208835 0.782118 0.164921
H91   H     H_    0.795095 0.124036 0.793767 0.138361
H92   H     H_    0.798318 0.216457 0.848637 0.173606
N1    N     N_R   0.888400 0.921830 0.294620 -0.047678
N2    N     N_R   0.874350 0.922400 0.443380 -0.079511
N3    N     N_R   0.625650 0.422400 0.556620 -0.076473
N4    N     N_R   0.374350 0.422400 0.443380 -0.083001
N5    N     N_R   0.054230 0.922730 0.705400 -0.042414
N6    N     N_R   0.945770 0.922730 0.294600 -0.043498
N7    N     N_R   0.554230 0.422730 0.705400 -0.041143
N8    N     N_R   0.445770 0.422730 0.294600 -0.043484
N9    N     N_R   0.873790 0.077030 0.443380 -0.047615
N10   N     N_R   0.126210 0.077030 0.556620 -0.048842
N11   N     N_R   0.373790 0.577030 0.443380 -0.041571
N12   N     N_R   0.111600 0.921830 0.705380 -0.044818
N13   N     N_R   0.626210 0.577030 0.556620 -0.047727
N14   N     N_R   0.945200 0.076700 0.294600 -0.050103
N15   N     N_R   0.054800 0.076700 0.705400 -0.049064
N16   N     N_R   0.445200 0.576700 0.294600 -0.045421
N17   N     N_R   0.554800 0.576700 0.705400 -0.044850
N18   N     N_R   0.111030 0.077600 0.705380 -0.057289
N19   N     N_R   0.888970 0.077600 0.294620 -0.057874
N20   N     N_R   0.611030 0.577600 0.705380 -0.058667
N21   N     N_R   0.388970 0.577600 0.294620 -0.058501
N22   N     N_R   0.919490 0.077280 0.556590 -0.043135
N23   N     N_R   0.388400 0.421830 0.294620 -0.055204
N24   N     N_R   0.080510 0.077280 0.443410 -0.043933
N25   N     N_R   0.419490 0.577280 0.556590 -0.042743
N26   N     N_R   0.580510 0.577280 0.443410 -0.042167
N27   N     N_R   0.611600 0.421830 0.705380 -0.050584
N28   N     N_R   0.079940 0.922160 0.443410 -0.057565
N29   N     N_R   0.920060 0.922160 0.556590 -0.055049
N30   N     N_R   0.579940 0.422160 0.443410 -0.055576
N31   N     N_R   0.420060 0.422160 0.556590 -0.057021
N32   N     N_R   0.125650 0.922400 0.556620 -0.077373
Ni1   Ni    Ni4+2 0.882160 0.999430 0.370180 0.255172
Ni2   Ni    Ni4+2 0.117840 0.999430 0.629820 0.248836
Ni3   Ni    Ni4+2 0.382160 0.499430 0.370180 0.243823
Ni4   Ni    Ni4+2 0.617840 0.499430 0.629820 0.247611
Ni5   Ni    Ni4+2 0.012460 0.999430 0.370180 0.213777
Ni6   Ni    Ni4+2 0.987540 0.999430 0.629820 0.216192
Ni7   Ni    Ni4+2 0.512460 0.499430 0.370180 0.211419
Ni8   Ni    Ni4+2 0.487540 0.499430 0.629820 0.216152
O1    O     O_3   0.929652 0.768398 0.807471 -0.609229
O2    O     O_3   0.251020 0.749132 0.650762 -0.624474
O3    O     O_3   0.288645 0.195780 0.331559 -0.590821
O4    O     O_3   0.724374 0.207570 0.679116 -0.630181
O5    O     O_3   0.142657 0.838221 0.238685 -0.614388
O6    O     O_3   0.425017 0.277791 0.806083 -0.607773
O7    O     O_3   0.573755 0.279850 0.194894 -0.613237
O8    O     O_3   0.718586 0.089675 0.985305 -0.620162
O9    O     O_3   0.260894 0.222231 0.925000 -0.637814
O10   O     O_3   0.209292 0.588566 0.978799 -0.631642
O11   O     O_3   0.793841 0.593265 0.017104 -0.630269
O12   O     O_3   0.761678 0.727141 0.313036 -0.632596

loop_
_geom_bond_atom_site_label_1
_geom_bond_atom_site_label_2
_ccdc_geom_bond_type
C4    H69   S    
C2    C65   A    
C108  H62   S    
C82   H33   S    
C51   H29   S    
C59   C84   S    
C30   C33   A    
C43   C88   A    
N17   Ni8   S    
C13   C87   A    
C76   N25   A    
C68   C72   D    
C81   N6    A    
C103  H46   S    
C18   C53   S    
C11   H92   S    
N14   N19   A    
C76   H51   S    
C104  H47   S    
C102  N18   A    
C19   C44   A    
C64   C71   S    
C19   C55   S    
C10   H86   S    
C42   C45   S    
C79   N4    A    
N7    N27   A    
C27   O12   S    
C68   H19   S    
N2    N29   A    
C8    O12   S    
C46   C55   S    
C2    C94   A    
C47   H7    S    
N10   Ni2   S    
C22   C57   S    
C75   N32   A    
C75   C89   A    
N17   N20   A    
N9    Ni1   S    
C48   C57   S    
C60   C64   D    
C38   C42   A    
C104  N20   A    
C106  H53   S    
C101  N17   A    
N22   Ni6   S    
C43   N27   A    
C61   C66   D    
C58   C85   S    
C25   C29   A    
N28   N32   A    
C6    H73   S    
C45   C53   S    
C37   C98   S    
C3    H65   S    
C52   C92   A    
C1    H1    S    
C8    H81   S    
N14   Ni5   S    
C50   N29   A    
C14   C103  A    
C100  N16   A    
N26   Ni7   S    
C22   C41   A    
C29   C31   A    
C20   C25   A    
C1    C84   A    
C15   C99   A    
C97   N14   A    
C99   H41   S    
C50   H28   S    
N24   Ni5   S    
C12   C39   S    
N32   Ni2   S    
C9    H84   S    
C3    H63   S    
C55   O5    S    
C7    O11   S    
C52   N31   A    
N9    N22   A    
N10   N24   A    
C39   C44   A    
C64   H16   S    
C70   C74   D    
C93   C98   A    
C54   N22   A    
C20   C56   S    
N30   Ni7   S    
C52   H30   S    
C55   H10   S    
C44   C46   S    
C9    O2    S    
C94   N10   A    
C69   H20   S    
C46   H6    S    
C56   O6    S    
N8    N23   A    
C15   C68   S    
C5    H70   S    
C63   C74   S    
C83   H35   S    
C94   H37   S    
N4    Ni3   S    
C78   N3    A    
C95   H38   S    
C37   C41   A    
C33   H56   S    
C103  N19   A    
C60   H25   S    
C48   H4    S    
C96   H39   S    
C61   C86   S    
C8    H80   S    
N16   Ni7   S    
C45   H89   S    
C67   C71   D    
N5    N12   A    
C50   C90   A    
C26   C30   A    
C87   N26   A    
C49   C89   A    
N28   Ni5   S    
C81   H32   S    
C24   C28   A    
C65   H50   S    
C51   C91   A    
N19   Ni1   S    
C35   H78   S    
C58   C62   D    
C80   N5    A    
C35   C39   A    
C21   C85   A    
C41   C48   S    
C10   H88   S    
C17   C70   S    
N18   Ni2   S    
C66   H17   S    
C47   H3    S    
C62   H14   S    
C28   O2    S    
C24   C89   S    
C12   C76   A    
C14   C97   A    
C56   H11   S    
C31   H45   S    
C59   C63   D    
C26   C91   S    
C5    H71   S    
C63   H15   S    
N13   N26   A    
C106  H55   S    
C4    H68   S    
C107  H57   S    
N4    N31   A    
C57   O7    S    
N23   Ni3   S    
C3    H64   S    
Br3   C78   S    
C6    H75   S    
C83   N8    A    
C19   C24   A    
C82   N7    A    
N1    Ni1   S    
C72   O9    S    
N20   Ni4   S    
N13   Ni4   S    
C21   H12   S    
C9    H85   S    
C7    H76   S    
C4    H66   S    
C54   C98   A    
C61   H26   S    
N3    Ni4   S    
C40   C47   S    
C53   O1    S    
C18   C42   A    
C96   N13   A    
C22   C26   A    
C32   N23   A    
C102  H44   S    
C18   C23   A    
C23   C27   A    
C66   C72   S    
C20   C40   A    
C93   H36   S    
C2    C36   S    
C87   H52   S    
C83   C86   A    
N11   Ni3   S    
C80   C85   A    
C74   O11   S    
C51   N30   A    
C71   O8    S    
C65   N24   A    
C48   H8    S    
C13   C38   S    
C11   H90   S    
C107  O5    S    
C106  O1    S    
Br1   C75   S    
C10   O3    S    
C6    O10   S    
C81   C84   A    
C32   C86   A    
C14   C67   S    
N25   Ni8   S    
C62   C73   S    
C4    O8    S    
C105  N21   A    
C78   C91   A    
C101  H43   S    
N11   N25   A    
C8    H82   S    
N7    Ni8   S    
C21   N12   A    
C5    O9    S    
C73   O10   S    
N6    Ni5   S    
C93   N9    A    
C23   C90   S    
C53   H9    S    
N5    Ni6   S    
C25   C92   S    
C11   H91   S    
C27   C34   A    
C12   C95   A    
C108  O6    S    
C16   C100  A    
N8    Ni7   S    
C10   H87   S    
C97   H40   S    
C7    H77   S    
C80   H31   S    
N15   Ni6   S    
C107  H58   S    
N12   Ni2   S    
C59   H24   S    
C58   H22   S    
N16   N21   A    
C31   C36   A    
C5    H72   S    
C82   C88   A    
N15   N18   A    
C30   O4    S    
C77   C90   A    
C106  H54   S    
C108  H60   S    
Br4   C79   S    
C95   N11   A    
N1    N6    A    
N21   Ni3   S    
C79   C92   A    
C34   H67   S    
C70   H21   S    
C6    H74   S    
C32   H23   S    
C16   C69   S    
C29   O3    S    
N2    Ni1   S    
C7    H79   S    
C33   C37   A    
C13   C96   A    
N31   Ni8   S    
C43   H34   S    
C17   C104  A    
C49   H27   S    
C49   N28   A    
C1    N1    A    
C16   C105  A    
C34   C38   A    
C15   C102  A    
N29   Ni6   S    
C36   C40   A    
C11   O4    S    
C99   N15   A    
C9    H83   S    
C45   H5    S    
C3    O7    S    
C46   H2    S    
C28   C35   A    
C69   C73   D    
N27   Ni4   S    
Br2   C77   S    
C57   H13   S    
C47   C56   S    
C60   C88   S    
C100  H42   S    
C54   H49   S    
C105  H48   S    
C17   C101  A    
N3    N30   A    
C108  H61   S    
C77   N2    A    
C67   H18   S    
C107  H59   S    
