data_mof_unit_12883.cif
_audit_creation_date              2012-12-10T18:46:16-0500
_audit_creation_method            fapswitch 2.2
_symmetry_space_group_name_H-M    P1
_symmetry_Int_Tables_number       1
_space_group_crystal_system       triclinic
_cell_length_a                    9.907271
_cell_length_b                    10.638263
_cell_length_c                    13.081001
_cell_angle_alpha                 90.468437
_cell_angle_beta                  70.898823
_cell_angle_gamma                 90.82027
_cell_volume                      1302.63730686

loop_
_atom_site_label
_atom_site_type_symbol
_atom_type_description
_atom_site_fract_x
_atom_site_fract_y
_atom_site_fract_z
_atom_type_partial_charge
C1    C     C_R   0.500482 0.739589 0.500712 0.908325
C2    C     C_R   0.439899 0.428682 0.980746 -0.020447
C3    C     C_R   0.478891 0.414850 0.867231 0.028951
C4    C     C_R   0.552021 0.434274 0.025704 0.080749
C5    C     C_R   0.695324 0.445435 0.957547 0.141898
C6    C     C_R   0.730454 0.409535 0.849882 -0.254144
C7    C     C_R   0.621684 0.383186 0.807847 -0.165781
C8    C     C_R   0.527280 0.433176 0.135875 -0.279064
C9    C     C_R   0.761657 0.526874 0.108256 0.175382
C10   C     C_R   0.376963 0.442478 0.816010 -0.126544
C11   C     C_R   0.615567 0.936684 0.432731 -0.297343
C12   C     C_R   0.422479 0.482022 0.702148 0.860225
C13   C     C_R   0.611160 0.065289 0.428393 0.481178
C14   C     C_R   0.495753 0.127720 0.503179 -0.184878
C15   C     C_R   0.380941 0.061947 0.577705 0.112957
C16   C     C_R   0.383195 0.932322 0.574074 -0.215493
C17   C     C_R   0.500378 0.871752 0.502885 -0.121821
C18   C     C_R   0.953336 0.415737 0.438505 -0.121274
C19   C     C_R   0.096857 0.416084 0.438271 -0.058673
C20   C     C_R   0.048672 0.583826 0.561171 -0.097394
C21   C     C_R   0.905622 0.585957 0.561195 0.234385
C22   C     C_R   0.497987 0.260441 0.502482 0.867618
C23   C     C_R   0.579002 0.499669 0.295855 0.853552
C24   C     C_R   0.799359 0.493666 0.998549 -0.271127
C25   C     C_R   0.626511 0.486512 0.178574 -0.124688
C26   C     C_R   0.231901 0.442464 0.877169 -0.291816
C27   C     C_R   0.190671 0.439871 0.989179 -0.262751
C28   C     C_R   0.293432 0.450770 0.041097 0.495031
H1    H     H_    0.296206 0.878392 0.629236 0.150790
H2    H     H_    0.919735 0.348305 0.389053 0.174305
H3    H     H_    0.171122 0.348833 0.388559 0.148437
H4    H     H_    0.085152 0.650304 0.609886 0.136622
H5    H     H_    0.840919 0.402834 0.798409 0.143570
H6    H     H_    0.905747 0.513884 0.943743 0.130353
H7    H     H_    0.429393 0.392621 0.189399 0.219569
H8    H     H_    0.150882 0.451796 0.838830 0.175275
H9    H     H_    0.078718 0.442362 0.036054 0.154972
H10   H     H_    0.651898 0.345705 0.726522 0.181996
H11   H     H_    0.706404 0.887663 0.378952 0.164134
N1    N     N_R   0.142790 0.500030 0.500030 -0.096965
N2    N     N_R   0.857180 0.499940 0.500010 -0.106261
O1    O     O_R   0.385370 0.683250 0.500010 -0.614811
O2    O     O_R   0.614700 0.683220 0.500010 -0.618637
O3    O     O_R   0.328400 0.499990 0.653620 -0.616813
O4    O     O_R   0.557730 0.499960 0.653620 -0.645797
O5    O     O_R   0.385300 0.316780 0.499990 -0.624559
O6    O     O_R   0.614630 0.316750 0.499990 -0.591980
O7    O     O_R   0.442270 0.500040 0.346380 -0.614381
O8    O     O_R   0.671600 0.500010 0.346380 -0.608291
Zn1   Zn    Zn3+2 0.346870 0.500020 0.500000 0.928218
Zn2   Zn    Zn3+2 0.653130 0.499980 0.500000 0.929713
C29   C     C_3   0.862422 0.609891 0.144761 -0.404426
C30   C     C_3   0.798454 0.738842 0.181131 -0.880224
H12   H     H_    0.697895 0.730997 0.250308 0.251717
H13   H     H_    0.875885 0.797573 0.206159 0.242703
H14   H     H_    0.775782 0.786257 0.113247 0.260168
H15   H     H_    0.893017 0.563898 0.209547 0.225081
H16   H     H_    0.962000 0.627250 0.076393 0.187791
O9    O     O_3   0.725255 0.129145 0.356083 -0.645483
C31   C     C_3   0.687778 0.170395 0.266303 0.108869
H17   H     H_    0.756130 0.253607 0.231995 0.171105
H18   H     H_    0.574914 0.201972 0.288421 0.105877
C32   C     C_3   0.716730 0.068224 0.178867 -0.399589
H19   H     H_    0.828993 0.036609 0.158050 0.238008
H20   H     H_    0.644257 0.986506 0.209961 0.217827
C33   C     C_3   0.692201 0.116633 0.076931 -0.930330
H21   H     H_    0.579978 0.147437 0.095680 0.267255
H22   H     H_    0.713050 0.040311 0.015513 0.263499
H23   H     H_    0.765683 0.196812 0.042561 0.272764
C34   C     C_3   0.260131 0.124983 0.665187 -0.382441
C35   C     C_3   0.124827 0.129296 0.633779 -0.809269
H24   H     H_    0.039777 0.179003 0.697724 0.236891
H25   H     H_    0.145495 0.180055 0.556249 0.271061
H26   H     H_    0.086461 0.032531 0.625099 0.244168
H27   H     H_    0.236648 0.072068 0.742150 0.193853
H28   H     H_    0.289746 0.221451 0.683473 0.206349
C36   C     C_3   0.813710 0.687700 0.629615 -0.392283
C37   C     C_3   0.855815 0.816686 0.577398 -0.861277
H29   H     H_    0.852268 0.815744 0.493451 0.277761
H30   H     H_    0.780623 0.888652 0.624997 0.254689
H31   H     H_    0.965473 0.843366 0.575183 0.240738
H32   H     H_    0.699610 0.672311 0.645443 0.271950
H33   H     H_    0.827127 0.688777 0.710780 0.174699
O10   O     O_3   0.249429 0.487896 0.148710 -0.675693
C38   C     C_3   0.216041 0.617861 0.158082 0.064934
H34   H     H_    0.122948 0.630712 0.232700 0.172427
H35   H     H_    0.184895 0.655331 0.089792 0.126704
C39   C     C_3   0.341248 0.696785 0.168819 -0.334085
H36   H     H_    0.368138 0.665133 0.240168 0.257013
H37   H     H_    0.436112 0.684850 0.095307 0.222990
C40   C     C_3   0.304585 0.836064 0.183228 -0.962962
H38   H     H_    0.279570 0.871703 0.111957 0.265163
H39   H     H_    0.397247 0.890282 0.191296 0.267376
H40   H     H_    0.211337 0.850931 0.257386 0.270166

loop_
_geom_bond_atom_site_label_1
_geom_bond_atom_site_label_2
_ccdc_geom_bond_type
C33   H22   S    
C32   H20   S    
C28   O10   S    
C4    C8    A    
C19   H3    S    
C9    C25   A    
C30   H12   S    
C30   H14   S    
C26   C27   A    
C31   C32   S    
C3    C7    A    
C38   H34   S    
C5    C6    A    
C20   N1    A    
C37   H30   S    
C23   O8    A    
C33   H23   S    
C36   H33   S    
C15   C16   A    
C31   H18   S    
C18   C19   A    
C1    O2    A    
C16   C17   A    
O8    Zn2   S    
C34   C35   S    
C18   H2    S    
C10   C26   A    
O7    Zn1   S    
C22   O6    A    
C32   C33   S    
O9    C31   S    
C13   C14   A    
C8    C25   A    
C9    C29   S    
C10   C12   S    
C30   H13   S    
C38   H35   S    
O10   C38   S    
C29   H15   S    
C18   N2    A    
C40   H38   S    
C35   H25   S    
C37   H29   S    
C12   O4    A    
O6    Zn2   S    
C16   H1    S    
C36   C37   S    
C24   H6    S    
C31   H17   S    
C8    H7    S    
C2    C4    A    
C40   H39   S    
C39   C40   S    
C39   H36   S    
C11   H11   S    
C29   H16   S    
O1    Zn1   S    
C21   N2    A    
C26   H8    S    
C22   O5    A    
C39   H37   S    
C34   H28   S    
C34   H27   S    
C29   C30   S    
C20   H4    S    
C38   C39   S    
O3    Zn1   S    
C15   C34   S    
C11   C17   A    
C23   O7    A    
C4    C5    A    
C35   H26   S    
C9    C24   A    
C6    C7    A    
C13   O9    S    
O5    Zn1   S    
C1    C17   S    
C6    H5    S    
C14   C22   S    
C2    C3    A    
C35   H24   S    
C12   O3    A    
C3    C10   A    
C40   H40   S    
C11   C13   A    
C37   H31   S    
O2    Zn2   S    
C5    C24   A    
C36   H32   S    
C27   H9    S    
N1    Zn1   S    
C7    H10   S    
C33   H21   S    
C23   C25   S    
C19   N1    A    
C32   H19   S    
C1    O1    A    
C20   C21   A    
C21   C36   S    
C27   C28   A    
O4    Zn2   S    
C14   C15   A    
C2    C28   A    
N2    Zn2   S    
