data_mof_unit_34160.cif
_audit_creation_date              2012-10-26T18:43:49-0400
_audit_creation_method            fapswitch 2.2
_symmetry_space_group_name_H-M    P1
_symmetry_Int_Tables_number       1
_space_group_crystal_system       triclinic
_cell_length_a                    9.617472
_cell_length_b                    10.806435
_cell_length_c                    17.137614
_cell_angle_alpha                 91.794357
_cell_angle_beta                  86.583958
_cell_angle_gamma                 91.201635
_cell_volume                      1776.75988638

loop_
_atom_site_label
_atom_site_type_symbol
_atom_type_description
_atom_site_fract_x
_atom_site_fract_y
_atom_site_fract_z
_atom_type_partial_charge
C1    C     C_R   0.500986 0.737215 0.500040 0.544340
C2    C     C_R   0.530470 0.524883 0.266510 0.011796
C3    C     C_R   0.429998 0.933278 0.446510 0.009805
C4    C     C_R   0.482361 0.500443 0.650122 0.528787
C5    C     C_R   0.504164 0.870434 0.499641 0.000090
C6    C     C_R   0.584883 0.937696 0.552050 -0.149131
C7    C     C_R   0.583920 0.067496 0.555375 -0.011112
C8    C     C_R   0.498868 0.129490 0.504625 0.017587
C9    C     C_R   0.427923 0.060756 0.448741 -0.001583
C10   C     C_3   0.277972 0.062122 0.430470 -0.273279
C11   C     C_3   0.280399 0.921564 0.428163 -0.271846
C12   C     C_R   0.356154 0.552507 0.777325 -0.130966
C13   C     C_R   0.927863 0.408468 0.461323 0.120153
C14   C     C_R   0.925771 0.579221 0.548672 0.118398
C15   C     C_R   0.073714 0.574957 0.549473 0.000598
C16   C     C_R   0.498827 0.262899 0.502059 0.547388
C17   C     C_R   0.073842 0.413342 0.457263 0.168172
C18   C     C_3   0.077858 0.378750 0.370751 -0.120212
C19   C     C_3   0.919384 0.364378 0.378971 -0.259125
C20   C     C_R   0.518170 0.503827 0.350184 0.542113
C21   C     C_R   0.474458 0.505433 0.735522 0.013694
C22   C     C_R   0.587957 0.467351 0.775852 -0.145340
C23   C     C_R   0.461983 0.638003 0.155934 -0.126793
C24   C     C_R   0.584821 0.479424 0.856846 -0.122123
C25   C     C_R   0.470273 0.533659 0.898152 0.033692
C26   C     C_R   0.354121 0.566271 0.858481 -0.120466
C27   C     C_3   0.662801 0.134825 0.618471 -0.259146
C28   C     C_3   0.816357 0.153503 0.592723 -0.416979
C29   C     C_3   0.858832 0.672146 0.606328 -0.251368
C30   C     C_3   0.907388 0.804787 0.589406 -0.475879
C31   C     C_3   0.121293 0.477281 0.309696 -0.253902
C32   C     C_3   0.094181 0.612099 0.335839 -0.410166
C33   C     C_3   0.700942 0.660631 0.986748 -0.265143
C34   C     C_R   0.446352 0.612738 0.235039 -0.148352
C35   C     C_3   0.725930 0.787296 0.026063 -0.438623
C36   C     C_R   0.634683 0.466419 0.218972 -0.136965
C37   C     C_R   0.651751 0.492995 0.139991 -0.117472
C38   C     C_R   0.564403 0.577783 0.108272 0.052444
C39   C     C_2   0.466804 0.548333 0.983497 -0.131497
C40   C     C_2   0.572958 0.595584 0.023783 0.007864
Cu1   Cu    Cu3+1 0.359330 0.500020 0.500000 0.913606
Cu2   Cu    Cu3+1 0.640670 0.499980 0.500000 0.909077
H1    H     H_    0.679019 0.428314 0.744799 0.117628
H2    H     H_    0.128546 0.288452 0.357505 0.104697
H3    H     H_    0.862598 0.428042 0.343376 0.164979
H4    H     H_    0.882526 0.266313 0.375007 0.100705
H5    H     H_    0.701421 0.399358 0.242686 0.100513
H6    H     H_    0.263325 0.604606 0.890184 0.098339
H7    H     H_    0.394587 0.704185 0.131736 0.105031
H8    H     H_    0.267085 0.581686 0.747222 0.114999
H9    H     H_    0.374203 0.512106 0.015301 0.107040
H10   H     H_    0.672370 0.447755 0.887257 0.104551
H11   H     H_    0.827911 0.202323 0.536845 0.180255
H12   H     H_    0.730364 0.445308 0.103222 0.098981
H13   H     H_    0.869522 0.209178 0.638080 0.130151
H14   H     H_    0.868457 0.063397 0.584177 0.134634
H15   H     H_    0.616299 0.225876 0.634736 0.160883
H16   H     H_    0.654999 0.080861 0.672798 0.123819
H17   H     H_    0.022075 0.816662 0.589950 0.129861
H18   H     H_    0.873503 0.831922 0.531611 0.168954
H19   H     H_    0.861651 0.867637 0.636034 0.127923
H20   H     H_    0.745433 0.670564 0.608722 0.215291
H21   H     H_    0.887978 0.649815 0.666037 0.103972
H22   H     H_    0.985119 0.623762 0.359400 0.161183
H23   H     H_    0.640251 0.888905 0.594199 0.112659
H24   H     H_    0.166564 0.643497 0.380687 0.188427
H25   H     H_    0.111788 0.672576 0.284867 0.107979
H26   H     H_    0.231551 0.465655 0.290140 0.173192
H27   H     H_    0.063828 0.456938 0.256196 0.121994
H28   H     H_    0.632713 0.845591 0.023056 0.151787
H29   H     H_    0.749313 0.777242 0.088219 0.158666
H30   H     H_    0.816282 0.834598 0.995586 0.127623
H31   H     H_    0.793593 0.602579 0.992323 0.126563
H32   H     H_    0.690610 0.676478 0.923772 0.154997
H33   H     H_    0.209732 0.101414 0.479383 0.142270
H34   H     H_    0.263847 0.101204 0.372335 0.125280
H35   H     H_    0.213776 0.879302 0.475898 0.143173
H36   H     H_    0.267412 0.880010 0.368818 0.124202
H37   H     H_    0.130025 0.634380 0.589152 0.122780
H38   H     H_    0.370407 0.663148 0.271917 0.112808
N1    N     N_R   0.852130 0.499070 0.499500 -0.230416
N2    N     N_R   0.148040 0.499110 0.499500 -0.248964
O1    O     O_R   0.381190 0.680360 0.500000 -0.513556
O2    O     O_R   0.618770 0.680320 0.499990 -0.512385
O3    O     O_R   0.367430 0.500040 0.613600 -0.505861
O4    O     O_R   0.605020 0.500000 0.613590 -0.530468
O5    O     O_R   0.381230 0.319680 0.500010 -0.497164
O6    O     O_R   0.618810 0.319640 0.500000 -0.502125
O7    O     O_R   0.394980 0.500000 0.386410 -0.505989
O8    O     O_R   0.632570 0.499960 0.386400 -0.503993

loop_
_geom_bond_atom_site_label_1
_geom_bond_atom_site_label_2
_ccdc_geom_bond_type
C24   H10   S    
C39   H9    S    
C29   H21   S    
Cu1   Cu2   S    
Cu1   O7    S    
C28   H14   S    
C19   H4    S    
C7    C8    A    
C1    O2    A    
C37   C38   A    
C1    C5    S    
C36   C37   A    
C17   N2    A    
C5    C6    A    
C23   H7    S    
C4    O4    A    
Cu1   O1    S    
C13   N1    A    
C7    C27   S    
C36   H5    S    
C18   C19   S    
C11   H35   S    
C34   H38   S    
C10   H34   S    
C6    H23   S    
C15   H37   S    
C22   H1    S    
C35   H28   S    
C8    C9    A    
C30   H18   S    
C16   O5    A    
Cu2   O4    S    
C9    C10   S    
C26   H6    S    
C2    C34   A    
C35   H29   S    
C8    C16   S    
C21   C22   A    
Cu2   N1    S    
C28   H13   S    
C15   N2    A    
C31   H26   S    
Cu1   O5    S    
C33   C40   S    
C13   C19   S    
C2    C20   S    
Cu2   O2    S    
C24   C25   A    
C32   H22   S    
C27   H15   S    
C39   C40   D    
C4    O3    A    
C25   C26   A    
C20   O8    A    
C12   C21   A    
C12   C26   A    
Cu2   O8    S    
C29   C30   S    
C3    C9    A    
C11   H36   S    
C18   H2    S    
C10   H33   S    
C31   C32   S    
C23   C34   A    
C30   H17   S    
C17   C18   S    
C32   H25   S    
C37   H12   S    
C33   H31   S    
C35   H30   S    
C22   C24   A    
Cu2   O6    S    
C14   C29   S    
C32   H24   S    
C2    C36   A    
C29   H20   S    
C3    C5    A    
C27   H16   S    
C12   H8    S    
C28   H11   S    
C19   H3    S    
C6    C7    A    
C1    O1    A    
C23   C38   A    
Cu1   O3    S    
C20   O7    A    
C13   C17   A    
C25   C39   S    
C38   C40   S    
C4    C21   S    
Cu1   N2    S    
C33   C35   S    
C3    C11   S    
C10   C11   S    
C33   H32   S    
C31   H27   S    
C30   H19   S    
C27   C28   S    
C16   O6    A    
C14   C15   A    
C18   C31   S    
C14   N1    A    
