data_mof_unit_45964.cif
_audit_creation_date              2012-12-11T15:43:12-0500
_audit_creation_method            fapswitch 2.2
_symmetry_space_group_name_H-M    P1
_symmetry_Int_Tables_number       1
_space_group_crystal_system       triclinic
_cell_length_a                    19.407517
_cell_length_b                    10.963088
_cell_length_c                    18.826248
_cell_angle_alpha                 89.812476
_cell_angle_beta                  89.732459
_cell_angle_gamma                 89.867464
_cell_volume                      4005.51574678

loop_
_atom_site_label
_atom_site_type_symbol
_atom_type_description
_atom_site_fract_x
_atom_site_fract_y
_atom_site_fract_z
_atom_type_partial_charge
C1    C     C_R   0.726515 0.368621 0.142986 0.576095
C2    C     C_R   0.006189 0.012971 0.036040 -0.165976
C3    C     C_R   0.752020 0.438852 0.571512 -0.001217
C4    C     C_R   0.729561 0.380852 0.350943 0.544615
C5    C     C_R   0.270209 0.381346 0.649130 0.549677
C6    C     C_R   0.229579 0.880883 0.350880 0.545171
C7    C     C_R   0.770151 0.881465 0.649237 0.549929
C8    C     C_R   0.564364 0.151623 0.360350 0.562145
C9    C     C_R   0.466155 0.155729 0.645324 0.537201
C10   C     C_R   0.064344 0.651590 0.360359 0.560382
C11   C     C_R   0.965908 0.655648 0.645213 0.538038
C12   C     C_R   0.739183 0.978113 0.356511 0.524950
C13   C     C_R   0.494911 0.513087 0.964197 -0.168312
C14   C     C_R   0.259570 0.973843 0.644855 0.531151
C15   C     C_R   0.238204 0.481985 0.357428 0.529245
C16   C     C_R   0.759580 0.474430 0.644801 0.533313
C17   C     C_R   0.492755 0.173526 0.926417 0.008282
C18   C     C_R   0.504311 0.174075 0.075121 0.004137
C19   C     C_R   0.992525 0.673607 0.926530 0.008397
C20   C     C_R   0.004042 0.674153 0.075311 0.003895
C21   C     C_R   0.495463 0.289016 0.962845 0.036388
C22   C     C_R   0.502197 0.289128 0.038224 0.035853
C23   C     C_R   0.995219 0.789098 0.963056 0.036224
C24   C     C_R   0.506592 0.512975 0.035799 -0.165966
C25   C     C_R   0.001880 0.789192 0.038363 0.036005
C26   C     C_R   0.497248 0.066769 0.037352 -0.143701
C27   C     C_R   0.497863 0.066428 0.965176 -0.141125
C28   C     C_R   0.996892 0.566922 0.037503 -0.142849
C29   C     C_R   0.997487 0.566585 0.965388 -0.140071
C30   C     C_3   0.896378 0.859784 0.400810 -0.105688
C31   C     C_3   0.093351 0.902931 0.618009 -0.099566
C32   C     C_3   0.391285 0.355155 0.407369 -0.101275
C33   C     C_3   0.591045 0.407420 0.621208 -0.099856
C34   C     C_3   0.564558 0.786998 0.864897 0.014773
C35   C     C_R   0.765230 0.882328 0.933097 0.046583
C36   C     C_3   0.585349 0.798865 0.786073 -0.232297
C37   C     C_3   0.527682 0.761398 0.735702 -0.477458
C38   C     C_3   0.435133 0.774202 0.132174 0.009904
C39   C     C_3   0.419343 0.787556 0.211476 -0.235638
C40   C     C_3   0.477204 0.737887 0.258283 -0.473468
C41   C     C_3   0.063990 0.288552 0.864874 0.011237
C42   C     C_3   0.087036 0.294975 0.786596 -0.232454
C43   C     C_3   0.029860 0.260632 0.734938 -0.479338
C44   C     C_3   0.935100 0.274406 0.132176 0.009741
C45   C     C_3   0.919070 0.287346 0.211452 -0.235767
C46   C     C_R   0.234915 0.883424 0.066992 0.047581
C47   C     C_3   0.977206 0.238903 0.258333 -0.473853
C48   C     C_R   0.264972 0.383416 0.932862 0.046558
C49   C     C_R   0.734989 0.383892 0.067092 0.047749
C50   C     C_R   0.716258 0.816433 0.971827 0.054813
C51   C     C_R   0.281986 0.813272 0.028011 0.055387
C52   C     C_R   0.215938 0.317742 0.971520 0.055013
C53   C     C_R   0.273492 0.368345 0.856993 0.574594
C54   C     C_R   0.781919 0.313495 0.028095 0.055522
C55   C     C_R   0.707825 0.838648 0.043132 -0.035062
C56   C     C_R   0.290466 0.835893 0.956634 -0.037619
C57   C     C_R   0.207660 0.339115 0.042868 -0.034351
C58   C     C_R   0.790362 0.335794 0.956682 -0.037350
C59   C     C_R   0.816833 0.940006 0.045408 -0.157052
C60   C     C_R   0.183303 0.943630 0.955032 -0.154778
C61   C     C_R   0.316690 0.440415 0.045269 -0.156920
C62   C     C_R   0.683363 0.444087 0.955136 -0.154678
C63   C     C_R   0.818503 0.938307 0.971702 -0.162292
C64   C     C_R   0.226462 0.868420 0.142922 0.576638
C65   C     C_R   0.182418 0.943203 0.028757 -0.160839
C66   C     C_R   0.318315 0.439166 0.971537 -0.162024
C67   C     C_R   0.682576 0.443932 0.028857 -0.160795
C68   C     C_3   0.642392 0.783623 0.961345 0.156419
C69   C     C_3   0.355758 0.777740 0.037536 0.157438
C70   C     C_3   0.142318 0.283903 0.960863 0.156613
C71   C     C_3   0.855562 0.277427 0.037668 0.157487
C72   C     C_3   0.631274 0.824013 0.038802 -0.231302
C73   C     C_3   0.366888 0.820504 0.960544 -0.232506
C74   C     C_3   0.131246 0.322557 0.038679 -0.231687
C75   C     C_R   0.773660 0.867820 0.857156 0.575244
C76   C     C_3   0.866749 0.319407 0.960482 -0.232940
C77   C     C_R   0.755915 0.907562 0.081284 0.015888
C78   C     C_R   0.243382 0.907628 0.918795 0.016212
C79   C     C_R   0.255808 0.407729 0.081173 0.015979
C80   C     C_R   0.743363 0.407722 0.918834 0.016025
C81   C     C_R   0.531967 0.157493 0.146912 0.553632
C82   C     C_R   0.467327 0.157148 0.853684 0.547705
C83   C     C_R   0.031884 0.657507 0.146966 0.553128
C84   C     C_R   0.967266 0.657160 0.853754 0.548040
C85   C     C_R   0.502712 0.158971 0.577326 -0.016939
C86   C     C_R   0.491658 0.404007 0.927131 -0.104456
C87   C     C_R   0.548490 0.155157 0.435526 -0.003023
C88   C     C_R   0.001999 0.658661 0.577032 -0.017603
C89   C     C_R   0.048239 0.654943 0.435470 -0.003375
C90   C     C_R   0.529238 0.051058 0.547471 0.024218
C91   C     C_R   0.548082 0.048085 0.476160 0.028871
C92   C     C_R   0.028875 0.550859 0.547368 0.024097
C93   C     C_R   0.047820 0.547862 0.476096 0.029007
C94   C     C_R   0.529685 0.264061 0.467727 -0.143230
C95   C     C_R   0.499991 0.262764 0.534635 -0.154361
C96   C     C_R   0.029258 0.763713 0.467657 -0.144242
C97   C     C_R   0.506711 0.403986 0.073566 -0.099403
C98   C     C_R   0.998837 0.762193 0.534213 -0.153152
C99   C     C_3   0.491479 0.933083 0.541184 -0.266915
C100  C     C_3   0.507529 0.933922 0.463045 -0.262815
C101  C     C_3   0.991311 0.432727 0.541049 -0.266397
C102  C     C_3   0.007538 0.433434 0.462932 -0.261824
C103  C     C_R   0.750618 0.931896 0.581087 0.015949
C104  C     C_R   0.247543 0.925932 0.420870 0.015972
C105  C     C_R   0.249882 0.433999 0.581727 0.015521
C106  C     C_R   0.746779 0.424472 0.421193 0.016294
C107  C     C_R   0.798370 0.998585 0.541227 -0.024647
C108  C     C_R   0.991339 0.904069 0.927334 -0.104857
C109  C     C_R   0.198845 0.990289 0.460744 -0.021706
C110  C     C_R   0.296048 0.505907 0.542943 -0.028937
C111  C     C_R   0.697002 0.486201 0.461424 -0.018036
C112  C     C_R   0.797197 0.996872 0.469960 0.020697
C113  C     C_R   0.199694 0.990053 0.532127 0.025978
C114  C     C_R   0.294421 0.506608 0.471408 0.019789
C115  C     C_R   0.698044 0.486300 0.532654 0.025923
C116  C     C_R   0.689258 0.896757 0.470091 -0.162743
C117  C     C_R   0.305193 0.880579 0.533431 -0.168731
C118  C     C_R   0.188624 0.399524 0.470814 -0.164529
C119  C     C_R   0.006338 0.904002 0.073820 -0.099631
C120  C     C_R   0.804992 0.380683 0.533460 -0.169201
C121  C     C_R   0.691895 0.889725 0.544953 -0.158703
C122  C     C_R   0.303986 0.877034 0.458252 -0.166276
C123  C     C_R   0.191393 0.391333 0.545514 -0.158456
C124  C     C_R   0.803419 0.376113 0.458490 -0.166060
C125  C     C_3   0.870101 0.050573 0.541793 -0.200130
C126  C     C_3   0.132345 0.060750 0.458380 -0.205689
C127  C     C_3   0.369518 0.549547 0.543071 -0.201368
C128  C     C_3   0.631606 0.560482 0.458910 -0.205888
C129  C     C_R   0.741514 0.968233 0.148346 0.553866
C130  C     C_R   0.994292 0.013078 0.964547 -0.168422
C131  C     C_R   0.258353 0.967865 0.851587 0.551499
C132  C     C_R   0.241505 0.468186 0.148345 0.554956
C133  C     C_R   0.758342 0.467854 0.851577 0.551200
C134  C     C_3   0.867873 0.048098 0.459843 0.173073
C135  C     C_3   0.134497 0.061784 0.540547 0.169387
C136  C     C_3   0.366828 0.549597 0.461359 0.173787
C137  C     C_3   0.633755 0.561419 0.541184 0.169007
C138  C     C_R   0.743732 0.949045 0.431215 -0.007178
C139  C     C_R   0.252462 0.939026 0.571323 -0.000887
C140  C     C_R   0.242251 0.454943 0.432401 -0.006702
Cr1   Cr    Cr6+3 0.772010 0.169670 0.250090 0.981034
Cr2   Cr    Cr6+3 0.383290 0.010760 0.749160 0.988147
Cr3   Cr    Cr6+3 0.116710 0.510760 0.250840 0.986524
Cr4   Cr    Cr6+3 0.883290 0.510760 0.749160 0.988340
Cr5   Cr    Cr6+3 0.227990 0.169670 0.749910 0.975050
Cr6   Cr    Cr6+3 0.272010 0.669670 0.250090 0.983201
Cr7   Cr    Cr6+3 0.727990 0.669670 0.749910 0.975129
Cr8   Cr    Cr6+3 0.615000 0.323260 0.249260 0.994233
Cr9   Cr    Cr6+3 0.385000 0.323260 0.750740 0.987206
Cr10  Cr    Cr6+3 0.115000 0.823260 0.249260 0.991674
Cr11  Cr    Cr6+3 0.885000 0.823260 0.750740 0.988732
Cr12  Cr    Cr6+3 0.616710 0.010760 0.250840 0.986891
H1    H     H_    0.496944 0.979641 0.063518 0.167728
H2    H     H_    0.037550 0.352455 0.446476 0.127757
H3    H     H_    0.907717 0.384100 0.225062 0.186365
H4    H     H_    0.873520 0.230699 0.223947 0.215102
H5    H     H_    0.989025 0.142115 0.245097 0.134838
H6    H     H_    0.960228 0.242472 0.315010 0.145526
H7    H     H_    0.024257 0.295434 0.252000 0.167478
H8    H     H_    0.436368 0.945714 0.552332 0.160764
H9    H     H_    0.537305 0.852786 0.446420 0.127480
H10   H     H_    0.517030 0.857815 0.570697 0.132392
H11   H     H_    0.461081 0.950529 0.429986 0.147353
H12   H     H_    0.016817 0.357616 0.570771 0.132569
H13   H     H_    0.961138 0.449627 0.429722 0.147446
H14   H     H_    0.645914 0.860228 0.442269 0.127528
H15   H     H_    0.347143 0.838190 0.561400 0.116777
H16   H     H_    0.146223 0.360487 0.442670 0.127187
H17   H     H_    0.497869 0.979179 0.939892 0.162344
H18   H     H_    0.847145 0.339485 0.561566 0.117304
H19   H     H_    0.649930 0.848399 0.574045 0.114225
H20   H     H_    0.345574 0.833943 0.429646 0.110311
H21   H     H_    0.150094 0.347783 0.574329 0.114380
H22   H     H_    0.845255 0.333458 0.429887 0.110340
H23   H     H_    0.908394 0.990465 0.566522 0.179054
H24   H     H_    0.089257 0.008390 0.435685 0.180485
H25   H     H_    0.405448 0.484526 0.566963 0.178622
H26   H     H_    0.587431 0.510509 0.436142 0.178782
H27   H     H_    0.870823 0.143903 0.563929 0.087941
H28   H     H_    0.996606 0.479824 0.063684 0.167781
H29   H     H_    0.139309 0.151776 0.433509 0.084636
H30   H     H_    0.373956 0.642086 0.565764 0.089676
H31   H     H_    0.640225 0.651398 0.434007 0.084363
H32   H     H_    0.867505 0.139603 0.434927 0.134698
H33   H     H_    0.142890 0.153223 0.563320 0.133136
H34   H     H_    0.369552 0.641693 0.437671 0.132801
H35   H     H_    0.643677 0.652534 0.564101 0.133768
H36   H     H_    0.487132 0.416825 0.870719 0.146710
H37   H     H_    0.508625 0.415995 0.130129 0.146660
H38   H     H_    0.986888 0.916906 0.870935 0.147231
H39   H     H_    0.997464 0.479353 0.940161 0.161722
H40   H     H_    0.008152 0.915937 0.130397 0.145919
H41   H     H_    0.984867 0.098471 0.937726 0.091372
H42   H     H_    0.015994 0.098303 0.062452 0.089824
H43   H     H_    0.486206 0.598615 0.937171 0.090626
H44   H     H_    0.516333 0.598305 0.062220 0.089548
H45   H     H_    0.859464 0.981536 0.072954 0.139383
H46   H     H_    0.140967 0.986839 0.927694 0.140229
H47   H     H_    0.359396 0.481637 0.072860 0.139466
H48   H     H_    0.641061 0.487309 0.927779 0.140235
H49   H     H_    0.860639 0.983922 0.945195 0.150770
H50   H     H_    0.528942 0.347323 0.437732 0.187989
H51   H     H_    0.141422 0.991940 0.055453 0.149042
H52   H     H_    0.360565 0.484663 0.945103 0.150705
H53   H     H_    0.641717 0.492951 0.055571 0.148673
H54   H     H_    0.139058 0.183825 0.954154 0.099074
H55   H     H_    0.858561 0.176804 0.042407 0.098678
H56   H     H_    0.638506 0.683413 0.955665 0.097610
H57   H     H_    0.359096 0.677090 0.041859 0.098206
H58   H     H_    0.605180 0.913528 0.043943 0.166762
H59   H     H_    0.392515 0.910363 0.956130 0.164766
H60   H     H_    0.104351 0.411118 0.044553 0.166523
H61   H     H_    0.474827 0.343346 0.552913 0.177737
H62   H     H_    0.892769 0.408859 0.955754 0.164269
H63   H     H_    0.611742 0.750040 0.074131 0.081948
H64   H     H_    0.386624 0.747967 0.924388 0.084018
H65   H     H_    0.112497 0.247424 0.073567 0.082035
H66   H     H_    0.886034 0.246242 0.924521 0.084140
H67   H     H_    0.853197 0.868947 0.364020 0.136049
H68   H     H_    0.883724 0.793303 0.443951 0.125829
H69   H     H_    0.937136 0.821297 0.366336 0.154517
H70   H     H_    0.120626 0.927645 0.667127 0.146509
H71   H     H_    0.120283 0.826444 0.588733 0.127855
H72   H     H_    0.029492 0.847219 0.438019 0.189495
H73   H     H_    0.045579 0.869131 0.642297 0.137237
H74   H     H_    0.347980 0.360978 0.370460 0.136183
H75   H     H_    0.378618 0.295804 0.453695 0.123807
H76   H     H_    0.431235 0.310341 0.374607 0.151745
H77   H     H_    0.616953 0.435633 0.670706 0.146573
H78   H     H_    0.619025 0.329292 0.594013 0.127719
H79   H     H_    0.542725 0.374296 0.644929 0.137194
H80   H     H_    0.510514 0.820778 0.871822 0.139733
H81   H     H_    0.563551 0.686997 0.876697 0.085402
H82   H     H_    0.602526 0.893749 0.773280 0.186744
H83   H     H_    0.973573 0.842676 0.552548 0.178810
H84   H     H_    0.627919 0.733388 0.775977 0.213088
H85   H     H_    0.509673 0.667412 0.748635 0.127561
H86   H     H_    0.548374 0.760851 0.680154 0.143760
H87   H     H_    0.483825 0.826902 0.738792 0.181245
H88   H     H_    0.489040 0.803473 0.121809 0.133542
H89   H     H_    0.432507 0.674956 0.121552 0.096243
H90   H     H_    0.408684 0.884552 0.225056 0.186235
H91   H     H_    0.373441 0.731983 0.224084 0.215627
H92   H     H_    0.488446 0.640946 0.244949 0.135748
H93   H     H_    0.460246 0.741548 0.314969 0.145344
H94   H     H_    0.936215 0.445521 0.552043 0.160292
H95   H     H_    0.524567 0.793569 0.252012 0.166300
H96   H     H_    0.010487 0.325658 0.869572 0.143817
H97   H     H_    0.060646 0.189613 0.878464 0.083736
H98   H     H_    0.107143 0.387537 0.773075 0.189092
H99   H     H_    0.127772 0.225304 0.778855 0.213683
H100  H     H_    0.009715 0.168062 0.747730 0.128895
H101  H     H_    0.051730 0.258247 0.679865 0.144615
H102  H     H_    0.987320 0.328847 0.736758 0.181136
H103  H     H_    0.988976 0.304028 0.121986 0.133908
H104  H     H_    0.932641 0.175211 0.121486 0.095897
O1    O     O_R   0.787520 0.042810 0.170440 -0.542562
O2    O     O_R   0.454050 0.051210 0.669140 -0.525930
O3    O     O_R   0.045950 0.551210 0.330860 -0.525472
O4    O     O_R   0.954050 0.551210 0.669140 -0.526427
O5    O     O_R   0.681390 0.959480 0.325510 -0.521802
O6    O     O_R   0.318610 0.959480 0.674490 -0.507721
O7    O     O_R   0.181390 0.459480 0.325510 -0.523447
O8    O     O_R   0.818610 0.459480 0.674490 -0.507846
O9    O     O_3   0.667900 0.167900 0.250060 -0.269522
O10   O     O_3   0.332100 0.167900 0.749940 -0.245223
O11   O     O_3   0.167900 0.667900 0.250060 -0.270684
O12   O     O_R   0.212480 0.042810 0.829560 -0.550425
O13   O     O_3   0.832100 0.667900 0.749940 -0.245977
O14   O     O_R   0.765640 0.292100 0.175020 -0.494599
O15   O     O_R   0.234360 0.292100 0.824980 -0.501395
O16   O     O_R   0.265640 0.792100 0.175020 -0.494679
O17   O     O_R   0.734360 0.792100 0.824980 -0.499774
O18   O     O_R   0.670190 0.408840 0.168540 -0.540274
O19   O     O_R   0.329810 0.408840 0.831460 -0.541109
O20   O     O_R   0.170190 0.908840 0.168540 -0.539858
O21   O     O_R   0.829810 0.908840 0.831460 -0.541689
O22   O     O_R   0.556620 0.251410 0.175160 -0.516602
O23   O     O_R   0.287520 0.542810 0.170440 -0.541355
O24   O     O_R   0.443380 0.251410 0.824840 -0.523614
O25   O     O_R   0.056620 0.751410 0.175160 -0.516769
O26   O     O_R   0.943380 0.751410 0.824840 -0.523553
O27   O     O_R   0.545960 0.049620 0.170320 -0.526453
O28   O     O_R   0.454040 0.049620 0.829680 -0.530981
O29   O     O_R   0.045960 0.549620 0.170320 -0.526506
O30   O     O_R   0.954040 0.549620 0.829680 -0.531545
O31   O     O_R   0.681390 0.958010 0.176690 -0.500828
O32   O     O_R   0.318610 0.958010 0.823310 -0.501799
O33   O     O_R   0.181390 0.458010 0.176690 -0.500416
O34   O     O_R   0.712480 0.542810 0.829560 -0.549037
O35   O     O_R   0.818610 0.458010 0.823310 -0.501778
O36   O     O_R   0.787510 0.044390 0.330970 -0.523694
O37   O     O_R   0.212490 0.044390 0.669030 -0.539856
O38   O     O_R   0.287510 0.544390 0.330970 -0.518330
O39   O     O_R   0.712490 0.544390 0.669030 -0.542076
O40   O     O_R   0.765630 0.293570 0.323840 -0.524285
O41   O     O_R   0.234370 0.293570 0.676160 -0.521535
O42   O     O_R   0.265630 0.793570 0.323840 -0.525261
O43   O     O_R   0.734370 0.793570 0.676160 -0.522521
O44   O     O_R   0.670190 0.410420 0.329080 -0.525921
O45   O     O_R   0.556610 0.252880 0.323980 -0.516984
O46   O     O_R   0.329810 0.410420 0.670920 -0.522614
O47   O     O_R   0.170190 0.910420 0.329080 -0.526239
O48   O     O_R   0.829810 0.910420 0.670920 -0.521396
O49   O     O_3   0.920341 0.971529 0.430274 -0.579740
O50   O     O_3   0.075906 0.001543 0.570710 -0.574761
O51   O     O_3   0.416757 0.469682 0.430268 -0.577905
O52   O     O_3   0.574373 0.503284 0.571287 -0.575207
O53   O     O_3   0.609201 0.857167 0.909147 -0.561229
O54   O     O_3   0.389652 0.847682 0.090379 -0.561782
O55   O     O_3   0.108670 0.358189 0.909364 -0.561681
O56   O     O_R   0.443390 0.252880 0.676020 -0.521038
O57   O     O_3   0.889613 0.347685 0.090288 -0.562001
O58   O     O_R   0.056610 0.752880 0.323980 -0.520957
O59   O     O_R   0.943390 0.752880 0.676020 -0.519356
O60   O     O_R   0.545950 0.051210 0.330860 -0.525619

loop_
_geom_bond_atom_site_label_1
_geom_bond_atom_site_label_2
_ccdc_geom_bond_type
Cr12  O5    S    
C105  C110  A    
C87   C91   A    
C107  C112  A    
C69   O54   S    
C5    C105  S    
C75   O21   A    
Cr10  O20   S    
C134  O49   S    
Cr5   O41   S    
C37   H87   S    
C87   C94   A    
C105  C123  A    
Cr2   O2    S    
Cr9   O24   S    
C132  O33   A    
C36   H84   S    
Cr2   O28   S    
Cr3   O33   S    
C53   O15   A    
C125  H27   S    
C100  H9    S    
C6    C104  S    
C91   C100  S    
C27   H17   S    
C67   H53   S    
Cr12  O27   S    
C60   H46   S    
C39   H90   S    
C43   H101  S    
C71   H55   S    
C9    O2    A    
C8    O60   A    
C116  H14   S    
C117  C139  A    
C118  C140  A    
C101  H94   S    
C25   C119  A    
C45   C47   S    
Cr4   O35   S    
C116  C121  A    
C16   O39   A    
C112  C138  A    
C127  C136  S    
C46   C65   A    
C134  H32   S    
C44   H104  S    
C20   C28   A    
C17   C21   A    
C80   C133  S    
Cr8   O9    S    
C19   C23   A    
C99   H10   S    
C65   H51   S    
C32   H75   S    
C68   C72   S    
Cr10  O47   S    
C77   C129  S    
Cr1   O14   S    
C28   H28   S    
C40   H92   S    
C137  O52   S    
C71   O57   S    
Cr8   O44   S    
C60   C65   A    
Cr8   O18   S    
C68   O53   S    
C103  C121  A    
C70   O55   S    
C30   H68   S    
C21   C86   A    
C41   O55   S    
C56   C73   S    
C136  H34   S    
C82   O24   A    
C112  C134  S    
C85   C90   A    
C59   C63   A    
C89   C96   A    
C11   O4    A    
C71   C76   S    
C100  H11   S    
Cr6   O11   S    
C15   O7    A    
C38   H88   S    
C48   C52   A    
C72   H63   S    
C113  C135  S    
C106  C124  A    
C114  C136  S    
C10   O3    A    
C35   C63   A    
C51   C69   S    
Cr10  O58   S    
C32   O51   S    
C81   O27   A    
C128  C137  S    
C130  H41   S    
C82   O28   A    
C61   H47   S    
C40   H93   S    
Cr6   O38   S    
C58   C76   S    
C47   H7    S    
C60   C78   A    
C133  O35   A    
C62   C80   A    
C36   C37   S    
C129  O1    A    
C38   C39   S    
C124  H22   S    
C36   H82   S    
C56   C78   A    
C17   C82   S    
C64   O16   A    
C9    C85   S    
C115  C137  S    
C10   C89   S    
C96   C98   A    
C113  C139  A    
C73   H64   S    
C114  C140  A    
Cr5   O12   S    
C110  C114  A    
C108  C130  A    
C12   O5    A    
C66   H52   S    
C97   H37   S    
C7    C103  S    
C75   O17   A    
C14   O37   A    
Cr11  O59   S    
C108  H38   S    
C128  H31   S    
C33   H77   S    
C39   H91   S    
C106  C111  A    
Cr6   O42   S    
C48   C53   S    
Cr4   O30   S    
C17   C27   A    
C129  O31   A    
Cr3   O3    S    
C119  H40   S    
C107  C125  S    
C39   C40   S    
Cr1   O40   S    
C4    C106  S    
C46   C51   A    
Cr10  O25   S    
C117  C122  A    
C70   C74   S    
C45   H4    S    
Cr7   O17   S    
C1    O18   A    
Cr5   O10   S    
C32   H74   S    
C41   H96   S    
C12   C138  S    
C90   C99   S    
C40   H95   S    
C47   H5    S    
C38   H89   S    
C8    O45   A    
C63   H49   S    
C18   C22   A    
C73   H59   S    
Cr2   O10   S    
Cr7   O43   S    
C103  C107  A    
C12   O36   A    
C4    O44   A    
C99   C100  S    
C85   C95   A    
C37   H86   S    
C61   C79   A    
Cr8   O22   S    
C34   C36   S    
C89   C93   A    
C76   H62   S    
C109  C126  S    
C69   H57   S    
C111  C128  S    
C127  H30   S    
Cr1   O1    S    
C126  H29   S    
C48   C66   A    
C21   C22   A    
C34   H81   S    
C135  H33   S    
C88   C98   A    
C3    C16   S    
C19   C84   S    
C135  O50   S    
C125  C134  S    
Cr9   O56   S    
C15   O38   A    
C86   H36   S    
C101  C102  S    
C41   C42   S    
C18   C26   A    
C44   O57   S    
C26   C27   A    
C28   C29   A    
C131  O32   A    
C20   C25   A    
C24   H44   S    
C5    O41   A    
C54   C71   S    
C32   H76   S    
C76   H66   S    
C38   O54   S    
C68   H56   S    
C69   C73   S    
C94   H50   S    
C102  H2    S    
C83   O29   A    
C58   C80   A    
C6    O47   A    
Cr9   O10   S    
C123  H21   S    
C30   H69   S    
C24   C97   A    
C127  H25   S    
Cr11  O26   S    
C131  O12   A    
C84   O26   A    
C81   O22   A    
C74   H60   S    
C2    H42   S    
C31   H70   S    
C33   O52   S    
C92   C101  S    
C34   O53   S    
C43   H102  S    
C10   O58   A    
C126  C135  S    
Cr3   O29   S    
Cr3   O7    S    
C42   C43   S    
Cr4   O8    S    
C44   C45   S    
Cr1   O36   S    
C15   C140  S    
C101  H12   S    
C34   H80   S    
C93   C102  S    
C44   H103  S    
Cr12  O9    S    
Cr5   O15   S    
C133  O34   A    
Cr4   O13   S    
C62   H48   S    
Cr7   O13   S    
C3    C115  A    
C120  H18   S    
C90   C91   A    
Cr7   O39   S    
C117  H15   S    
C23   C108  A    
C118  H16   S    
C92   C93   A    
C2    C130  A    
C118  C123  A    
C94   C95   A    
C52   C57   A    
C104  C122  A    
C42   H98   S    
Cr9   O46   S    
C13   H43   S    
Cr5   O37   S    
Cr2   O6    S    
C50   C68   S    
C33   H78   S    
Cr2   O32   S    
C30   H67   S    
C137  H35   S    
Cr7   O34   S    
C57   C79   A    
C59   C77   A    
Cr12  O31   S    
C9    O56   A    
C64   O20   A    
C35   C75   S    
C62   C67   A    
Cr9   O19   S    
C30   O49   S    
C104  C109  A    
C55   C77   A    
C31   O50   S    
C49   C54   A    
C18   C81   S    
C51   C56   A    
C61   C66   A    
C72   H58   S    
C98   H83   S    
C88   C92   A    
C96   H72   S    
C13   C86   A    
C45   H3    S    
C14   O6    A    
C5    O46   A    
C55   C72   S    
C109  C113  A    
C110  C127  S    
C7    O48   A    
C22   C97   A    
C99   H8    S    
C43   H100  S    
C116  C138  A    
C6    O42   A    
C1    O14   A    
C13   C24   A    
C46   C64   S    
Cr1   O9    S    
C57   C74   S    
C78   C131  S    
C83   O25   A    
C37   H85   S    
Cr8   O45   S    
C11   C88   S    
C35   C50   A    
C29   H39   S    
C31   H71   S    
C121  H19   S    
C102  H13   S    
C122  H20   S    
C31   H73   S    
C95   H61   S    
C128  H26   S    
Cr6   O23   S    
C125  H23   S    
C126  H24   S    
C54   C58   A    
C132  O23   A    
C84   O30   A    
C49   C67   A    
C4    O40   A    
C26   H1    S    
C42   H99   S    
C2    C119  A    
C7    O43   A    
C70   H54   S    
C50   C55   A    
Cr12  O60   S    
C8    C87   S    
Cr11  O13   S    
Cr6   O16   S    
Cr11  O21   S    
C33   H79   S    
C136  O51   S    
C59   H45   S    
C11   O59   A    
C79   C132  S    
C74   H65   S    
Cr3   O11   S    
C23   C25   A    
Cr4   O4    S    
C52   C70   S    
C3    C120  A    
C16   O8    A    
C53   O19   A    
C14   C139  S    
C20   C83   S    
C41   H97   S    
C111  C115  A    
Cr11  O48   S    
C1    C49   S    
Cr10  O11   S    
C120  C124  A    
C47   H6    S    
C19   C29   A    
