data_mof_unit_48862.cif
_audit_creation_date              2012-12-11T16:20:26-0500
_audit_creation_method            fapswitch 2.2
_symmetry_space_group_name_H-M    P1
_symmetry_Int_Tables_number       1
_space_group_crystal_system       triclinic
_cell_length_a                    6.904033
_cell_length_b                    34.193543
_cell_length_c                    38.503005
_cell_angle_alpha                 99.604108
_cell_angle_beta                  89.390808
_cell_angle_gamma                 89.750778
_cell_volume                      8961.45572502

loop_
_atom_site_label
_atom_site_type_symbol
_atom_type_description
_atom_site_fract_x
_atom_site_fract_y
_atom_site_fract_z
_atom_type_partial_charge
O1    O     O_R   0.494320 0.461440 0.460990 -0.535373
O2    O     O_R   0.821450 0.462560 0.532500 -0.534314
O3    O     O_R   0.994330 0.538560 0.539010 -0.529015
C1    C     C_R   0.652351 0.453565 0.543777 0.749070
O4    O     O_R   0.823870 0.456770 0.460860 -0.515903
O5    O     O_R   0.996760 0.532730 0.466860 -0.532031
C2    C     C_R   0.656980 0.446196 0.447568 0.715089
O6    O     O_R   0.491880 0.467270 0.533140 -0.532599
O7    O     O_3   0.661650 0.524930 0.502050 -0.373172
V1    V     V_3+5 0.935500 0.495380 0.499620 1.563394
O8    O     O_R   0.326630 0.537440 0.467500 -0.555367
C3    C     C_R   0.157964 0.546210 0.456204 0.775251
O9    O     O_R   0.324210 0.543230 0.539140 -0.536001
C4    C     C_R   0.153725 0.555051 0.551386 0.744407
V2    V     V_3+5 0.435810 0.504620 0.500380 1.489863
O10   O     O_3   0.159790 0.475070 0.497950 -0.355602
C5    C     C_R   0.797979 0.817843 0.801079 0.703309
N1    N     N_R   0.943198 0.820345 0.825533 -0.542216
C6    C     C_R   0.051292 0.786227 0.825087 0.638494
C7    C     C_R   0.080175 0.758767 0.793399 -0.048539
C8    C     C_R   0.962540 0.762567 0.764384 -0.077548
C9    C     C_R   0.816369 0.791954 0.768368 -0.102997
C10   C     C_R   0.219481 0.727526 0.790141 -0.091085
C11   C     C_R   0.230358 0.699180 0.758792 -0.074396
C12   C     C_R   0.108781 0.702843 0.729957 -0.032273
C13   C     C_R   0.982043 0.735502 0.732342 -0.082179
C14   C     C_R   0.864998 0.739338 0.703322 -0.084452
C15   C     C_R   0.713558 0.768079 0.707720 0.340388
C16   C     C_R   0.693083 0.795063 0.739896 0.278326
C17   C     C_R   0.107774 0.674388 0.698651 0.600231
N2    N     N_R   0.039202 0.683806 0.667525 -0.542732
C18   C     C_R   0.900634 0.713691 0.670674 0.722391
O11   O     O_2   0.629074 0.837180 0.809345 -0.438556
O12   O     O_2   0.113405 0.776612 0.855652 -0.490240
O13   O     O_2   0.165859 0.636946 0.699922 -0.504346
O14   O     O_2   0.790339 0.718261 0.643227 -0.450846
C19   C     C_R   0.998235 0.657286 0.601447 -0.064020
C20   C     C_R   0.996232 0.621088 0.577246 -0.160506
C21   C     C_R   0.139412 0.591490 0.579353 -0.236596
C22   C     C_R   0.284906 0.600266 0.605352 0.337666
C23   C     C_R   0.273052 0.635436 0.630585 -0.035858
C24   C     C_R   0.100942 0.659025 0.633446 0.163804
C25   C     C_R   0.132604 0.857899 0.875873 -0.123646
H1    H     H_    0.251514 0.837212 0.869856 0.228912
C26   C     C_R   0.154801 0.888227 0.904995 -0.090512
C27   C     C_R   0.009178 0.918005 0.912984 -0.291268
C28   C     C_R   0.869822 0.920778 0.886506 0.364970
C29   C     C_R   0.863112 0.891890 0.855779 0.416317
C30   C     C_R   0.972615 0.855849 0.853074 0.106634
C31   C     C_R   0.091038 0.871017 0.186148 0.694078
O15   O     O_2   0.175448 0.906933 0.190608 -0.497032
N3    N     N_R   0.006853 0.857335 0.154449 -0.543602
C32   C     C_R   0.926385 0.820446 0.147560 0.698174
C33   C     C_R   0.147820 0.875484 0.099821 -0.074601
C34   C     C_R   0.149588 0.899744 0.073213 -0.178551
C35   C     C_R   0.860326 0.934667 0.099729 0.311456
C36   C     C_R   0.866683 0.912300 0.127741 -0.090399
C37   C     C_R   0.007226 0.881992 0.127163 0.210724
C38   C     C_R   0.015640 0.808695 0.206085 -0.106677
C39   C     C_R   0.094005 0.847420 0.213365 -0.108031
C40   C     C_R   0.171692 0.860921 0.247453 -0.137099
C41   C     C_R   0.928782 0.795126 0.173096 -0.061393
C42   C     C_R   0.002325 0.928792 0.072546 -0.132269
C43   C     C_R   0.147727 0.573940 0.430249 -0.074283
C44   C     C_R   0.179819 0.764708 0.283562 0.054413
C45   C     C_R   0.922090 0.723229 0.253789 0.002944
C46   C     C_R   0.062978 0.730491 0.280710 -0.025040
C47   C     C_R   0.346746 0.766758 0.304877 0.422464
C48   C     C_R   0.370300 0.740263 0.329355 -0.159051
C49   C     C_R   0.233306 0.709396 0.330505 -0.138412
C50   C     C_R   0.087010 0.703504 0.304701 -0.048411
C51   C     C_R   0.962217 0.670799 0.303130 -0.008937
C52   C     C_R   0.983363 0.644515 0.327351 0.687585
N4    N     N_R   0.114785 0.651969 0.353978 -0.546010
C53   C     C_R   0.234966 0.684151 0.356521 0.663511
C54   C     C_R   0.963200 0.621059 0.401667 0.427701
C55   C     C_R   0.975079 0.594678 0.426185 -0.262545
C56   C     C_R   0.309123 0.579800 0.409196 -0.198914
C57   C     C_R   0.297085 0.605156 0.384212 -0.151996
C58   C     C_R   0.124815 0.625894 0.380085 0.331086
O16   O     O_2   0.349634 0.692373 0.384882 -0.481130
C59   C     C_R   0.136141 0.794105 0.262350 0.051105
C60   C     C_R   0.026809 0.783109 0.231572 0.005342
C61   C     C_R   0.930188 0.746272 0.226115 0.056286
C62   C     C_R   0.188159 0.834375 0.272086 0.393326
H2    H     H_    0.849875 0.590803 0.442439 0.149118
O17   O     O_2   0.845927 0.808405 0.115832 -0.460675
C63   C     C_R   0.851452 0.756362 0.166203 0.406589
C64   C     C_R   0.782536 0.692916 0.255526 -0.050639
C65   C     C_R   0.810855 0.666112 0.278862 -0.145137
O18   O     O_2   0.871582 0.611872 0.324482 -0.509744
C66   C     C_R   0.854815 0.732513 0.192569 -0.187596
H3    H     H_    0.444019 0.564229 0.411599 0.137793
H4    H     H_    0.705854 0.642799 0.279658 0.198045
H5    H     H_    0.422295 0.608586 0.367833 0.185187
H6    H     H_    0.803509 0.702377 0.186133 0.123521
C67   C     C_R   0.601584 0.309293 0.637814 0.620836
O19   O     O_2   0.574954 0.294398 0.603500 -0.473779
N5    N     N_R   0.612146 0.349517 0.648111 -0.540087
C68   C     C_R   0.613348 0.365917 0.683089 0.789011
C69   C     C_R   0.474016 0.402246 0.619386 0.442471
C70   C     C_R   0.487999 0.429106 0.595371 0.268920
C71   C     C_R   0.788573 0.396483 0.571328 -0.163534
C72   C     C_R   0.784199 0.372461 0.598069 -0.129990
C73   C     C_R   0.624564 0.375117 0.621695 0.195023
C74   C     C_R   0.600083 0.300072 0.698925 -0.168123
C75   C     C_R   0.615733 0.283626 0.662866 -0.141675
C76   C     C_R   0.650606 0.242307 0.653088 0.313278
C77   C     C_R   0.594991 0.341697 0.709355 -0.097343
C78   C     C_R   0.642718 0.425918 0.570333 -0.258156
C79   C     C_R   0.511916 0.073145 0.929386 -0.188667
C80   C     C_R   0.540162 0.208959 0.739675 0.006022
C81   C     C_R   0.613624 0.265285 0.785835 -0.014536
C82   C     C_R   0.573356 0.224476 0.775558 0.009374
C83   C     C_R   0.457226 0.170496 0.731124 -0.092109
C84   C     C_R   0.454449 0.144957 0.756672 0.354845
C85   C     C_R   0.520456 0.158783 0.791118 -0.096147
C86   C     C_R   0.566184 0.199224 0.801162 -0.129928
C87   C     C_R   0.602300 0.214444 0.836930 -0.163668
C88   C     C_R   0.567919 0.189426 0.862148 0.727623
N6    N     N_R   0.544078 0.149447 0.851777 -0.521237
C89   C     C_R   0.528939 0.133739 0.816781 0.748994
C90   C     C_R   0.369014 0.099672 0.879947 0.275070
C91   C     C_R   0.357574 0.074391 0.905671 0.186292
C92   C     C_R   0.676182 0.097366 0.927592 0.156958
C93   C     C_R   0.685551 0.122797 0.901951 0.265526
C94   C     C_R   0.532803 0.123667 0.878130 0.233284
O20   O     O_2   0.522868 0.094010 0.806889 -0.448613
C95   C     C_R   0.585996 0.233251 0.713950 0.019685
C96   C     C_R   0.591991 0.274847 0.724543 -0.041118
C97   C     C_R   0.589129 0.291146 0.760741 -0.015357
C98   C     C_R   0.639122 0.217278 0.678793 0.344507
O21   O     O_2   0.632619 0.405529 0.692240 -0.442019
C99   C     C_R   0.571279 0.357906 0.745441 0.304625
C100  C     C_R   0.684930 0.278413 0.820339 0.395029
C101  C     C_R   0.671624 0.253809 0.846125 -0.083643
O22   O     O_2   0.552770 0.204924 0.896661 -0.489854
C102  C     C_R   0.553206 0.332271 0.770704 0.256660
C103  C     C_R   0.669292 0.174082 0.198241 0.652594
N7    N     N_R   0.513834 0.174055 0.176578 -0.556179
C104  C     C_R   0.363213 0.200062 0.185117 0.664336
C105  C     C_R   0.369706 0.229466 0.215797 -0.124462
C106  C     C_R   0.524510 0.228392 0.239533 -0.027856
C107  C     C_R   0.672069 0.199159 0.231649 -0.037849
C108  C     C_R   0.221100 0.258518 0.224235 0.253901
C109  C     C_R   0.219451 0.284182 0.257053 0.390207
C110  C     C_R   0.376109 0.283689 0.280363 -0.093757
C111  C     C_R   0.528559 0.255875 0.271537 -0.089424
C112  C     C_R   0.674720 0.253346 0.296475 -0.055210
C113  C     C_R   0.817998 0.222876 0.289414 -0.099202
C114  C     C_R   0.815759 0.195760 0.257280 -0.091398
C115  C     C_R   0.384887 0.310448 0.312785 0.732247
N8    N     N_R   0.551439 0.313896 0.332262 -0.538585
C116  C     C_R   0.663718 0.280043 0.328924 0.663584
O23   O     O_2   0.820244 0.149865 0.187191 -0.483601
O24   O     O_2   0.206772 0.196858 0.164171 -0.487699
O25   O     O_2   0.224683 0.330651 0.325771 -0.475592
O26   O     O_2   0.742012 0.269144 0.357725 -0.489242
C117  C     C_R   0.749657 0.350838 0.381968 -0.080662
H7    H     H_    0.860033 0.328249 0.378314 0.221013
C118  C     C_R   0.780156 0.382282 0.409656 -0.121755
C119  C     C_R   0.651497 0.415209 0.414938 -0.229454
C120  C     C_R   0.518733 0.418716 0.387576 0.312871
C121  C     C_R   0.500948 0.387601 0.358291 -0.039409
C122  C     C_R   0.594530 0.350090 0.358243 0.189874
C123  C     C_R   0.629269 0.147111 0.116321 -0.037715
H8    H     H_    0.726666 0.172054 0.117602 0.169737
C124  C     C_R   0.626236 0.118342 0.085786 0.323168
C125  C     C_R   0.501510 0.084959 0.084191 -0.209837
C126  C     C_R   0.377832 0.082305 0.113609 -0.089848
C127  C     C_R   0.379312 0.112618 0.143156 -0.087282
H9    H     H_    0.287138 0.110627 0.165757 0.190094
C128  C     C_R   0.505564 0.144710 0.144884 0.249418
O27   O     O_R   0.662230 0.032770 0.966890 -0.528957
O28   O     O_R   0.330090 0.043230 0.039150 -0.541948
O29   O     O_R   0.157350 0.967260 0.033130 -0.536797
C129  C     C_R   0.497376 0.053678 0.052261 0.740076
O30   O     O_R   0.332650 0.037450 0.967510 -0.521426
O31   O     O_R   0.159930 0.961430 0.960980 -0.511807
C130  C     C_R   0.501781 0.046074 0.956064 0.840333
O32   O     O_R   0.659640 0.038600 0.039040 -0.532838
O33   O     O_3   0.492510 0.975090 0.997960 -0.354179
V3    V     V_3+5 0.218600 0.004620 0.000380 1.611811
O34   O     O_R   0.830050 0.956730 0.960830 -0.531185
C131  C     C_R   0.000307 0.946723 0.947176 0.748050
O35   O     O_R   0.827490 0.962520 0.032470 -0.512104
C132  C     C_R   0.995809 0.954281 0.044304 0.803530
V4    V     V_3+5 0.718310 0.995320 0.999580 1.618289
O36   O     O_3   0.994270 0.024900 0.002040 -0.367686
C133  C     C_2   0.367310 0.726305 0.817786 0.883725
O37   O     O_2   0.386731 0.696552 0.831189 -0.498389
O38   O     O_R   0.484457 0.759312 0.828262 -0.638086
H10   H     H_    0.580468 0.754957 0.847009 0.326915
C134  C     C_2   0.338469 0.887545 0.924464 0.823299
O39   O     O_2   0.435216 0.917556 0.931689 -0.529329
O40   O     O_R   0.411819 0.851280 0.930976 -0.634512
H11   H     H_    0.544945 0.853860 0.941975 0.304798
O41   O     O_3   0.749415 0.953427 0.887761 -0.580060
H12   H     H_    0.809472 0.976704 0.902354 0.294491
O42   O     O_3   0.774149 0.903532 0.827293 -0.559715
H13   H     H_    0.854301 0.893497 0.806123 0.315671
O43   O     O_3   0.719596 0.963339 0.098636 -0.613495
H14   H     H_    0.600409 0.955951 0.110436 0.339271
C135  C     C_2   0.732466 0.921591 0.158559 0.849847
O44   O     O_2   0.699450 0.956123 0.171621 -0.511792
O45   O     O_R   0.647163 0.890976 0.173169 -0.638679
H15   H     H_    0.564434 0.901129 0.194704 0.345380
C136  C     C_2   0.236930 0.902364 0.258173 0.861341
O46   O     O_2   0.120420 0.929720 0.260190 -0.498569
O47   O     O_R   0.430392 0.909803 0.267229 -0.637545
H16   H     H_    0.457494 0.939139 0.274382 0.332224
O48   O     O_3   0.796844 0.642736 0.398615 -0.595043
H17   H     H_    0.698295 0.636262 0.415666 0.306657
C137  C     C_2   0.541663 0.745268 0.352617 0.866872
O49   O     O_2   0.653642 0.717575 0.353086 -0.529942
O50   O     O_R   0.578731 0.782293 0.372868 -0.620047
H18   H     H_    0.701317 0.782280 0.387133 0.326046
O51   O     O_3   0.493813 0.792128 0.298360 -0.585884
H19   H     H_    0.620463 0.781877 0.304767 0.299833
C138  C     C_2   0.387005 0.668928 0.754880 0.884404
O52   O     O_2   0.535710 0.674287 0.738856 -0.561651
O53   O     O_R   0.364130 0.634624 0.769743 -0.591221
H20   H     H_    0.480765 0.616281 0.765345 0.340131
O54   O     O_3   0.236388 0.847460 0.306947 -0.590219
H21   H     H_    0.221168 0.876547 0.313101 0.319723
C139  C     C_2   0.307438 0.894783 0.046400 0.867228
O55   O     O_2   0.476478 0.895326 0.055651 -0.545857
O56   O     O_R   0.263149 0.889262 0.010665 -0.650819
H22   H     H_    0.384497 0.887426 0.995532 0.307566
C140  C     C_2   0.288674 0.842080 0.098686 0.893031
O57   O     O_2   0.324970 0.820337 0.070782 -0.498112
O58   O     O_R   0.376720 0.834971 0.129575 -0.646518
H23   H     H_    0.462731 0.810515 0.125600 0.347716
O59   O     O_3   0.773714 0.742005 0.133633 -0.588139
H24   H     H_    0.724017 0.714805 0.133444 0.312430
C141  C     C_2   0.590972 0.691680 0.237931 0.734737
O60   O     O_2   0.515196 0.722244 0.231992 -0.554176
O61   O     O_R   0.492703 0.655708 0.229613 -0.653093
H25   H     H_    0.361877 0.658900 0.218655 0.310623
C142  C     C_2   0.942690 0.389835 0.543848 0.913108
O62   O     O_2   0.898121 0.382293 0.512864 -0.535156
O63   O     O_R   0.137564 0.392022 0.553305 -0.641744
H26   H     H_    0.228246 0.387069 0.532119 0.308484
O64   O     O_3   0.583369 0.768808 0.680832 -0.567079
H27   H     H_    0.454142 0.776479 0.691314 0.318595
C143  C     C_2   0.943337 0.343730 0.601351 0.886984
O65   O     O_2   0.005430 0.321610 0.575318 -0.500728
O66   O     O_R   0.018190 0.341272 0.634533 -0.652794
H28   H     H_    0.124161 0.320470 0.633490 0.314389
O67   O     O_3   0.707303 0.225925 0.619296 -0.600314
H29   H     H_    0.802532 0.244078 0.611065 0.343752
O68   O     O_3   0.199846 0.050071 0.907923 -0.623986
H30   H     H_    0.085966 0.060309 0.896867 0.311155
O69   O     O_3   0.221802 0.101922 0.856386 -0.596647
H31   H     H_    0.174949 0.074690 0.847963 0.333478
O70   O     O_3   0.375295 0.107456 0.749472 -0.564895
H32   H     H_    0.256779 0.108642 0.735448 0.325875
C144  C     C_2   0.351436 0.158942 0.697476 0.846596
O71   O     O_2   0.373235 0.125824 0.680083 -0.492873
O72   O     O_R   0.228481 0.186397 0.685577 -0.661474
H33   H     H_    0.165453 0.175342 0.662369 0.326223
O73   O     O_3   0.700684 0.178136 0.671388 -0.621782
H34   H     H_    0.733558 0.170581 0.646085 0.358945
O74   O     O_3   0.349824 0.458629 0.597575 -0.628853
H35   H     H_    0.417050 0.483233 0.594474 0.287199
O75   O     O_3   0.317544 0.402590 0.642188 -0.598799
H36   H     H_    0.214760 0.420475 0.636125 0.355169
O76   O     O_3   0.563567 0.398605 0.755567 -0.581146
H37   H     H_    0.611199 0.405413 0.780009 0.326180
O77   O     O_3   0.561015 0.826030 0.743328 -0.595254
H38   H     H_    0.538953 0.833494 0.719908 0.320445
O78   O     O_3   0.788753 0.313172 0.828631 -0.588715
H39   H     H_    0.853771 0.318797 0.806943 0.305372
O79   O     O_3   0.823001 0.095845 0.951533 -0.623986
H40   H     H_    0.944164 0.106435 0.942998 0.315769
C145  C     C_2   0.754754 0.268781 0.881236 0.960186
O80   O     O_2   0.873408 0.248784 0.894014 -0.519847
O81   O     O_R   0.702438 0.306450 0.899014 -0.605191
H41   H     H_    0.770244 0.313578 0.922427 0.323026
O82   O     O_3   0.842869 0.146881 0.899201 -0.594002
H42   H     H_    0.881127 0.159014 0.923307 0.333118
O83   O     O_3   0.485797 0.346128 0.804491 -0.599218
H43   H     H_    0.406257 0.370281 0.804367 0.326263
O84   O     O_3   0.078359 0.263375 0.200551 -0.623354
H44   H     H_    0.144471 0.265893 0.178051 0.334423
O85   O     O_3   0.071178 0.311527 0.266049 -0.593102
H45   H     H_    0.961214 0.305459 0.249790 0.340656
C146  C     C_2   0.972578 0.218749 0.315272 0.894568
O86   O     O_2   0.080886 0.246423 0.325194 -0.526751
O87   O     O_R   0.993764 0.183086 0.328128 -0.628137
H46   H     H_    0.104209 0.183843 0.345366 0.334503
C147  C     C_2   0.957893 0.162429 0.252069 0.903354
O88   O     O_2   0.131496 0.169178 0.251347 -0.562391
O89   O     O_R   0.892008 0.123395 0.248829 -0.607955
H47   H     H_    0.001885 0.103303 0.245506 0.335032
C148  C     C_2   0.981371 0.694374 0.585930 0.911078
O90   O     O_2   0.099787 0.720863 0.593597 -0.513518
O91   O     O_R   0.830585 0.699439 0.563090 -0.624938
H48   H     H_    0.835965 0.725964 0.554656 0.331549
C149  C     C_2   0.953372 0.379015 0.431393 0.891153
O92   O     O_2   0.979607 0.348884 0.443971 -0.498225
O93   O     O_R   0.096399 0.408129 0.434315 -0.626975
H49   H     H_    0.210853 0.401556 0.448633 0.300579
O94   O     O_3   0.415596 0.453411 0.387077 -0.604689
H50   H     H_    0.486511 0.476062 0.400427 0.282878
C150  C     C_2   0.417917 0.398219 0.325591 0.914068
O95   O     O_2   0.501297 0.387935 0.297327 -0.554290
O96   O     O_R   0.245883 0.420226 0.327098 -0.600045
H51   H     H_    0.204503 0.425433 0.303092 0.323588
O97   O     O_3   0.745144 0.124620 0.058190 -0.618444
H52   H     H_    0.697299 0.109265 0.035920 0.299734
C151  C     C_2   0.251084 0.047636 0.115410 0.811096
O98   O     O_2   0.303885 0.014186 0.102329 -0.558126
O99   O     O_R   0.073185 0.053187 0.133325 -0.633818
H53   H     H_    0.000316 0.027442 0.132988 0.330713
C152  C     C_2   0.858128 0.616946 0.547612 0.872637
O100  O     O_2   0.917662 0.610372 0.517167 -0.579496
O101  O     O_R   0.659853 0.621978 0.554768 -0.617606
H54   H     H_    0.579657 0.618657 0.532574 0.300979
O102  O     O_3   0.441428 0.575413 0.606510 -0.591529
H55   H     H_    0.395241 0.547887 0.600672 0.289720
C153  C     C_2   0.446790 0.649403 0.651736 0.963155
O103  O     O_2   0.463772 0.684684 0.663379 -0.525135
O104  O     O_R   0.590446 0.622756 0.658444 -0.599956
H56   H     H_    0.699458 0.636204 0.673231 0.322893

loop_
_geom_bond_atom_site_label_1
_geom_bond_atom_site_label_2
_ccdc_geom_bond_type
C134  O40   S    
C8    C13   A    
C93   C94   A    
N2    C24   S    
C43   C55   A    
C153  O104  S    
C6    C7    A    
C108  C109  A    
O28   C129  A    
C127  C128  A    
O83   H43   S    
C20   C152  S    
C34   C139  S    
O84   H44   S    
C9    C16   A    
C116  O26   S    
C107  C114  A    
C74   C75   A    
C106  C107  A    
C35   C36   A    
O79   H40   S    
C52   N4    A    
C19   C24   A    
O33   V3    S    
O61   H25   S    
O8    V2    S    
O104  H56   S    
C79   C92   A    
C31   N3    A    
C117  C118  A    
C28   O41   S    
C23   C153  S    
O1    V2    S    
C80   C95   A    
C14   C18   A    
C68   C77   A    
C8    C9    A    
V3    O36   S    
C72   C73   A    
C45   C64   A    
C54   C55   A    
O43   H14   S    
N7    C104  A    
O45   H15   S    
O40   H11   S    
O99   H53   S    
C41   C63   A    
C76   O67   S    
C152  O100  D    
C25   H1    S    
C19   C20   A    
C44   C47   A    
C150  O95   D    
C11   C12   A    
C140  O58   S    
N3    C37   S    
C11   C138  S    
C124  C125  A    
O91   H48   S    
C149  O92   D    
C64   C141  S    
O28   V3    S    
C109  C110  A    
C84   O70   S    
C26   C134  S    
C74   C96   A    
C115  O25   S    
C121  C122  A    
C79   C91   A    
C56   C57   A    
C25   C30   A    
C48   C137  S    
C51   C52   A    
C103  N7    A    
C104  O24   S    
C59   C62   A    
C87   C101  A    
C147  O89   S    
C96   C97   A    
O7    V2    S    
C97   C102  A    
V1    O10   S    
C44   C59   A    
O89   H47   S    
C36   C135  S    
C111  C112  A    
C48   C49   A    
C62   O54   S    
C40   C136  S    
C67   C75   A    
C7    C8    A    
C81   C100  A    
O34   C131  A    
C15   O64   S    
O35   C132  A    
N1    C30   S    
O68   H30   S    
C69   O75   S    
C133  O37   D    
C47   O51   S    
C110  C111  A    
C80   C82   A    
C67   O19   S    
C90   C91   A    
O64   H27   S    
C71   C78   A    
C18   O14   S    
O87   H46   S    
C20   C21   A    
C3    C43   S    
C137  O50   S    
C126  C127  A    
C83   C84   A    
C66   H6    S    
C141  O60   D    
C114  C147  S    
C32   C41   A    
O58   H23   S    
C90   O69   S    
C60   C61   A    
C141  O61   S    
O74   H35   S    
C34   C42   A    
C10   C11   A    
O7    V1    S    
C54   O48   S    
C45   C46   A    
O9    C4    A    
C123  C124  A    
C113  C146  S    
C125  C129  S    
C138  O52   D    
C106  C111  A    
O82   H42   S    
C21   C22   A    
O78   H39   S    
C12   C13   A    
C117  C122  A    
C146  O87   S    
O2    C1    A    
C85   C89   A    
C51   C65   A    
C90   C94   A    
N2    C18   A    
C7    C10   A    
C103  O23   S    
C5    N1    A    
C32   O17   S    
O33   V4    S    
N3    C32   A    
O48   H17   S    
C25   C26   A    
C120  O94   S    
C42   C132  S    
O27   C130  A    
C88   N6    A    
C98   O73   S    
C95   C96   A    
C33   C34   A    
O94   H50   S    
N8    C122  S    
C105  C106  A    
C43   C56   A    
C54   C58   A    
C135  O45   S    
O72   H33   S    
O73   H34   S    
C72   C143  S    
N5    C68   A    
C31   C39   A    
C144  O71   D    
C50   C51   A    
C91   O68   S    
C85   C86   A    
C36   C37   A    
C129  O32   A    
C142  O62   D    
C153  O103  D    
C124  O97   S    
C76   C98   A    
C38   C39   A    
C135  O44   D    
C139  O55   D    
C49   C53   A    
C113  C114  A    
C115  N8    A    
C61   C66   A    
C118  C149  S    
C33   C140  S    
C10   C133  S    
C74   C77   A    
C69   C70   A    
C23   C24   A    
O54   H21   S    
C118  C119  A    
C100  C101  A    
C26   C27   A    
O96   H51   S    
C13   C14   A    
C119  C120  A    
C29   O42   S    
C15   C16   A    
C38   C60   A    
N6    C94   S    
O5    C3    A    
C17   N2    A    
C152  O101  S    
N1    C6    A    
O56   H22   S    
C4    C21   S    
C143  O65   D    
C136  O46   D    
C44   C46   A    
C150  O96   S    
C49   C50   A    
O30   V3    S    
C22   O102  S    
C95   C98   A    
C148  O91   S    
C134  O39   D    
C71   C142  S    
N4    C58   S    
C105  C108  A    
C5    O11   S    
O32   V4    S    
C149  O93   S    
C65   H4    S    
C92   O79   S    
C99   O76   S    
O4    C2    A    
C126  C151  S    
O67   H29   S    
C6    O12   S    
C39   C40   A    
C112  C116  A    
C57   H5    S    
O69   H31   S    
C117  H7    S    
C102  O83   S    
C31   O15   S    
C27   C28   A    
N6    C89   A    
O3    C4    A    
C29   C30   A    
O6    V2    S    
C92   C93   A    
C70   C78   A    
O59   H24   S    
O35   V4    S    
O66   H28   S    
O29   C132  A    
C81   C82   A    
C12   C17   A    
C1    C78   S    
O97   H52   S    
C123  C128  A    
C133  O38   S    
C77   C99   A    
O1    C2    A    
O5    V1    S    
O30   C130  A    
C87   C88   A    
O31   C131  A    
C63   O59   S    
C5    C9    A    
C112  C113  A    
C146  O86   D    
C100  O78   S    
C151  O99   S    
C46   C50   A    
C27   C131  S    
C89   O20   S    
C140  O57   D    
O76   H37   S    
C59   C60   A    
C71   C72   A    
O77   H38   S    
C88   O22   S    
C64   C65   A    
O29   V3    S    
C127  H9    S    
C125  C126  A    
C120  C121  A    
C1    O6    A    
C138  O53   S    
C151  O98   D    
C17   O13   S    
C16   O77   S    
C147  O88   D    
O85   H45   S    
C35   O43   S    
C56   H3    S    
V2    O10   S    
C84   C85   A    
C86   C87   A    
O27   V4    S    
C47   C48   A    
C63   C66   A    
O42   H13   S    
O41   H12   S    
O38   H10   S    
C101  C145  S    
C67   N5    A    
O63   H26   S    
O31   V3    S    
C69   C73   A    
N5    C73   S    
C2    C119  S    
C143  O66   S    
N4    C53   A    
O50   H18   S    
C52   O18   S    
C137  O49   D    
C53   O16   S    
C93   O82   S    
O34   V4    S    
V4    O36   S    
C144  O72   S    
O101  H54   S    
C109  O85   S    
C103  C107  A    
C28   C29   A    
C75   C76   A    
O70   H32   S    
C142  O63   S    
C35   C42   A    
O81   H41   S    
C145  O80   D    
C82   C86   A    
C40   C62   A    
C22   C23   A    
C145  O81   S    
C55   H2    S    
C19   C148  S    
C139  O56   S    
O9    V2    S    
C123  H8    S    
C70   O74   S    
O2    V1    S    
C68   O21   S    
C33   C37   A    
O93   H49   S    
C148  O90   D    
C38   C41   A    
C81   C97   A    
N7    C128  S    
C83   C144  S    
C99   C102  A    
O8    C3    A    
O102  H55   S    
C110  C115  A    
O4    V1    S    
O3    V1    S    
C104  C105  A    
O51   H19   S    
C79   C130  S    
O53   H20   S    
O75   H36   S    
C45   C61   A    
C57   C58   A    
C121  C150  S    
C136  O47   S    
O47   H16   S    
C14   C15   A    
N8    C116  A    
C108  O84   S    
C80   C83   A    
