data_mof_unit_39018.cif
_audit_creation_date              2012-12-10T18:05:58-0500
_audit_creation_method            fapswitch 2.2
_symmetry_space_group_name_H-M    P1
_symmetry_Int_Tables_number       1
_space_group_crystal_system       triclinic
_cell_length_a                    12.596881
_cell_length_b                    13.099061
_cell_length_c                    14.915159
_cell_angle_alpha                 91.471973
_cell_angle_beta                  103.218256
_cell_angle_gamma                 80.516535
_cell_volume                      2362.97734403

loop_
_atom_site_label
_atom_site_type_symbol
_atom_type_description
_atom_site_fract_x
_atom_site_fract_y
_atom_site_fract_z
_atom_type_partial_charge
Br1   Br    Br    0.780104 0.824431 0.385425 -0.645306
Br2   Br    Br    0.435799 0.165947 0.612324 -0.529630
Br3   Br    Br    0.043799 0.357646 0.206751 -0.522513
Br4   Br    Br    0.898450 0.311283 0.541722 -0.544741
Br5   Br    Br    0.318849 0.259043 0.063278 -0.495191
C1    C     C_R   0.437587 0.691356 0.483492 0.846233
C2    C     C_R   0.550738 0.575111 0.825180 -0.241840
C3    C     C_R   0.502818 0.500617 0.769022 -0.062888
C4    C     C_R   0.501289 0.500111 0.672942 0.891572
C5    C     C_R   0.450129 0.429768 0.803079 -0.201237
C6    C     C_R   0.712651 0.052696 0.457484 -0.157463
C7    C     C_R   0.597583 0.195644 0.511625 -0.090181
C8    C     C_R   0.288133 0.844014 0.466684 -0.231066
C9    C     C_R   0.254704 0.951297 0.461670 0.144486
C10   C     C_R   0.333917 0.015576 0.463930 -0.130800
C11   C     C_R   0.445032 0.972768 0.466155 0.069191
C12   C     C_R   0.437120 0.437121 0.079882 0.037689
C13   C     C_R   0.469385 0.866875 0.448460 0.031879
C14   C     C_R   0.531313 0.032151 0.479386 -0.017523
C15   C     C_R   0.631298 0.990763 0.452479 0.072010
C16   C     C_R   0.561798 0.307774 0.512499 0.905496
C17   C     C_R   0.646914 0.889139 0.420218 0.216824
C18   C     C_R   0.565643 0.829046 0.417038 -0.216798
C19   C     C_R   0.523787 0.129888 0.521480 0.213943
C20   C     C_R   0.692720 0.155197 0.482454 -0.243922
C21   C     C_R   0.396584 0.801465 0.463113 -0.121733
C22   C     C_R   0.077062 0.399530 0.333639 0.159154
C23   C     C_R   0.582184 0.664006 0.065329 0.087709
C24   C     C_R   0.793207 0.634210 0.605978 0.038252
C25   C     C_R   0.889194 0.676972 0.619044 -0.236567
C26   C     C_R   0.971575 0.638145 0.572039 0.163180
C27   C     C_R   0.957445 0.549674 0.514697 -0.006858
C28   C     C_R   0.497385 0.502567 0.326968 0.843167
C29   C     C_R   0.855568 0.512120 0.501629 0.164007
C30   C     C_R   0.037044 0.495225 0.468688 -0.050056
C31   C     C_R   0.000728 0.434897 0.389508 0.046169
C32   C     C_R   0.894619 0.405186 0.377236 0.011549
C33   C     C_R   0.844052 0.421325 0.452470 0.224826
C34   C     C_R   0.587580 0.657708 0.972714 -0.235597
C35   C     C_R   0.151012 0.491226 0.501801 -0.032593
C36   C     C_R   0.188038 0.403663 0.368868 0.005378
C37   C     C_R   0.437572 0.438093 0.172862 -0.195730
C38   C     C_R   0.491032 0.508122 0.230265 -0.072746
C39   C     C_R   0.538806 0.582895 0.196314 -0.252523
C40   C     C_R   0.536444 0.587329 0.102708 0.110561
C41   C     C_R   0.488430 0.511183 0.044933 -0.016937
C42   C     C_3   0.135124 0.996763 0.453880 -0.425026
C43   C     C_3   0.082308 0.037844 0.355723 -0.310695
C44   C     C_3   0.956897 0.060924 0.339521 -0.851907
C45   C     C_R   0.544713 0.580216 0.916972 0.108783
C46   C     C_3   0.845594 0.345582 0.293313 -0.352590
C47   C     C_3   0.739315 0.303634 0.293978 -0.401820
C48   C     C_3   0.685220 0.269567 0.198062 -0.820981
C49   C     C_3   0.062371 0.702820 0.577444 -0.425653
C50   C     C_3   0.141000 0.694144 0.673566 -0.361571
C51   C     C_3   0.244180 0.741403 0.674848 -0.843898
C52   C     C_3   0.620679 0.756158 0.119548 -0.407163
C53   C     C_3   0.521497 0.834592 0.135029 -0.343549
C54   C     C_3   0.554222 0.939693 0.164536 -0.791093
C55   C     C_R   0.492656 0.508146 0.952349 0.058195
C56   C     C_R   0.445333 0.432480 0.894831 0.054713
C57   C     C_R   0.393677 0.360886 0.929342 -0.221289
C58   C     C_R   0.389336 0.362414 0.021522 0.265702
H1    H     H_    0.401130 0.381787 0.202516 0.195214
H2    H     H_    0.896683 0.744097 0.662583 0.154320
H3    H     H_    0.623525 0.714762 0.943220 0.151399
H4    H     H_    0.589398 0.630746 0.796597 0.149053
H5    H     H_    0.413288 0.372403 0.757995 0.190033
H6    H     H_    0.357275 0.303086 0.884714 0.196676
H7    H     H_    0.749457 0.203684 0.475270 0.207154
H8    H     H_    0.923939 0.988530 0.345621 0.286609
H9    H     H_    0.932195 0.117720 0.390543 0.274224
H10   H     H_    0.921097 0.093035 0.268960 0.259756
H11   H     H_    0.113658 0.109772 0.344004 0.238447
H12   H     H_    0.788946 0.024846 0.437008 0.192199
H13   H     H_    0.104350 0.979389 0.304757 0.239839
H14   H     H_    0.089606 0.936770 0.471127 0.212455
H15   H     H_    0.128463 0.060316 0.504180 0.232919
H16   H     H_    0.663573 0.335895 0.148799 0.273605
H17   H     H_    0.742190 0.207242 0.173103 0.269372
H18   H     H_    0.608571 0.239428 0.200701 0.261895
H19   H     H_    0.760311 0.234754 0.339149 0.231488
H20   H     H_    0.679815 0.362023 0.319057 0.251160
H21   H     H_    0.828784 0.398351 0.232748 0.251476
H22   H     H_    0.907129 0.277132 0.285610 0.244461
H23   H     H_    0.229515 0.793973 0.472213 0.162832
H24   H     H_    0.292964 0.697662 0.628966 0.264996
H25   H     H_    0.221024 0.823767 0.652103 0.269044
H26   H     H_    0.296663 0.737336 0.745881 0.257160
H27   H     H_    0.097493 0.735259 0.724325 0.232046
H28   H     H_    0.166667 0.611933 0.696427 0.232213
H29   H     H_    0.107582 0.684434 0.522084 0.203284
H30   H     H_    0.023646 0.785311 0.564049 0.221254
H31   H     H_    0.622480 0.931466 0.226942 0.286092
H32   H     H_    0.581113 0.975120 0.108355 0.263964
H33   H     H_    0.482195 0.992236 0.180112 0.263514
H34   H     H_    0.307129 0.098456 0.459903 0.174779
H35   H     H_    0.456173 0.846044 0.070209 0.240258
H36   H     H_    0.485830 0.804978 0.188788 0.220790
H37   H     H_    0.678465 0.730675 0.186054 0.230391
H38   H     H_    0.668767 0.795572 0.081169 0.215714
H39   H     H_    0.578231 0.752471 0.388449 0.190363
H40   H     H_    0.247789 0.377900 0.327894 0.175054
H41   H     H_    0.577860 0.636430 0.244047 0.158761
H42   H     H_    0.185019 0.523783 0.566753 0.156469
H43   H     H_    0.728591 0.667801 0.639843 0.143142
N1    N     N_R   0.222190 0.444670 0.452360 -0.122519
N2    N     N_R   0.776970 0.554790 0.547140 -0.114047
O1    O     O_R   0.366740 0.627160 0.477250 -0.620211
O2    O     O_R   0.544830 0.662520 0.507680 -0.620177
O3    O     O_R   0.410940 0.482340 0.616930 -0.614175
O4    O     O_R   0.589030 0.517700 0.647360 -0.609255
O5    O     O_R   0.455170 0.337480 0.492320 -0.584066
O6    O     O_R   0.633260 0.372840 0.522750 -0.583326
O7    O     O_R   0.410970 0.482300 0.352640 -0.620837
O8    O     O_R   0.589060 0.517660 0.383070 -0.635182
Zn1   Zn    Zn3+2 0.381090 0.476390 0.479680 0.964020
Zn2   Zn    Zn3+2 0.618910 0.523610 0.520320 0.972910

loop_
_geom_bond_atom_site_label_1
_geom_bond_atom_site_label_2
_ccdc_geom_bond_type
C4    O3    A    
C50   C51   S    
C43   H13   S    
C14   C15   A    
C13   C21   A    
O2    Zn2   S    
C39   H41   S    
O1    Zn1   S    
C2    C3    A    
C23   C52   S    
C47   C48   S    
C24   C25   A    
C31   C32   A    
C48   H16   S    
C50   H27   S    
C25   C26   A    
C32   C46   S    
C51   H25   S    
C18   H39   S    
C6    C20   A    
C10   C11   A    
Br5   C58   S    
C48   H18   S    
C12   C37   A    
C49   H30   S    
C50   H28   S    
C26   C27   A    
C3    C4    S    
O7    Zn1   S    
C44   H9    S    
C53   H35   S    
C8    H23   S    
C24   N2    A    
C54   H31   S    
C4    O4    A    
Br1   C17   S    
C8    C9    A    
C1    O2    A    
C46   H22   S    
C54   H32   S    
C10   H34   S    
C6    C15   A    
C23   C40   A    
C28   O7    A    
C13   C18   A    
C28   C38   S    
C27   C30   A    
N2    Zn2   S    
C48   H17   S    
C12   C41   A    
C16   O5    A    
C51   H24   S    
C23   C34   A    
C53   C54   S    
C40   C41   A    
C52   H37   S    
C7    C16   S    
C36   H40   S    
C57   H6    S    
C55   C56   A    
C30   C31   A    
C27   C29   A    
C47   H20   S    
C38   C39   A    
C49   H29   S    
C32   C33   A    
C43   H11   S    
C22   C36   A    
C42   C43   S    
C9    C10   A    
C57   C58   A    
C47   H19   S    
O6    Zn2   S    
C35   N1    A    
O5    Zn1   S    
C11   C13   A    
C43   C44   S    
Br4   C33   S    
Br2   C19   S    
C1    O1    A    
C44   H10   S    
C24   H43   S    
C5    C56   A    
C54   H33   S    
C42   H14   S    
C37   H1    S    
C39   C40   A    
C49   C50   S    
C51   H26   S    
C28   O8    A    
C36   N1    A    
C41   C55   A    
C29   C33   A    
C53   H36   S    
C2    C45   A    
C15   C17   A    
C16   O6    A    
C9    C42   S    
C5    H5    S    
C22   C31   A    
C52   H38   S    
C7    C19   A    
C7    C20   A    
O3    Zn1   S    
C45   C55   A    
Br3   C22   S    
C14   C19   A    
C29   N2    A    
C46   C47   S    
C6    H12   S    
C12   C58   A    
O4    Zn2   S    
C52   C53   S    
C1    C21   S    
C44   H8    S    
C11   C14   A    
C34   H3    S    
O8    Zn2   S    
C30   C35   A    
C26   C49   S    
C56   C57   A    
C8    C21   A    
C25   H2    S    
C2    H4    S    
C34   C45   A    
C3    C5    A    
C37   C38   A    
C17   C18   A    
C20   H7    S    
C42   H15   S    
C46   H21   S    
N1    Zn1   S    
C35   H42   S    
