data_mof_unit_14879.cif
_audit_creation_date              2012-10-26T19:52:24-0400
_audit_creation_method            fapswitch 2.2
_symmetry_space_group_name_H-M    P1
_symmetry_Int_Tables_number       1
_space_group_crystal_system       triclinic
_cell_length_a                    9.620535
_cell_length_b                    10.771825
_cell_length_c                    13.44879
_cell_angle_alpha                 90.565457
_cell_angle_beta                  72.734728
_cell_angle_gamma                 89.03358
_cell_volume                      1330.55770755

loop_
_atom_site_label
_atom_site_type_symbol
_atom_type_description
_atom_site_fract_x
_atom_site_fract_y
_atom_site_fract_z
_atom_type_partial_charge
C1    C     C_R   0.498867 0.737299 0.500887 0.584063
C2    C     C_R   0.376940 0.485770 0.813751 0.031331
C3    C     C_R   0.423896 0.936591 0.444923 0.096696
C4    C     C_R   0.421809 0.499535 0.699882 0.532220
C5    C     C_R   0.495911 0.870782 0.504123 0.056600
C6    C     C_R   0.564694 0.935272 0.566941 -0.135963
C7    C     C_R   0.567764 0.064683 0.564927 -0.150961
C8    C     C_R   0.502373 0.129305 0.499896 0.007548
C9    C     C_R   0.426966 0.064546 0.442664 0.020953
C10   C     C_3   0.451526 0.064900 0.327315 -0.287653
C11   C     C_3   0.443810 0.924724 0.330903 -0.254465
C12   C     C_R   0.442897 0.488152 0.976872 0.057631
C13   C     C_R   0.950968 0.411610 0.445255 0.177013
C14   C     C_R   0.901029 0.591160 0.547686 0.055560
C15   C     C_R   0.047483 0.593213 0.549149 0.366582
C16   C     C_R   0.501661 0.262701 0.498553 0.529161
C17   C     C_R   0.097858 0.411417 0.445308 0.123503
C18   C     C_3   0.096918 0.274789 0.462583 -0.267592
C19   C     C_3   0.939951 0.275247 0.461911 -0.264471
C20   C     C_R   0.578305 0.508942 0.300589 0.562826
C21   C     C_R   0.775393 0.620704 0.026832 0.251218
C22   C     C_R   0.623106 0.531747 0.187512 -0.061851
C23   C     C_R   0.463151 0.531823 0.874271 0.035879
C24   C     C_R   0.260550 0.408290 0.859271 -0.062838
C25   C     C_R   0.233150 0.372273 0.962067 -0.083380
C26   C     C_R   0.323743 0.409745 0.020086 -0.076568
C27   C     C_R   0.544261 0.523349 0.030759 -0.015477
C28   C     C_R   0.664718 0.597042 0.980030 -0.009746
C29   C     C_R   0.669737 0.650542 0.884858 -0.079478
C30   C     C_R   0.569174 0.620989 0.834083 -0.115269
C31   C     C_R   0.530327 0.487374 0.132976 -0.184904
C32   C     C_R   0.746526 0.602505 0.134951 0.229374
Cu1   Cu    Cu3+1 0.359330 0.500020 0.500010 1.054228
Cu2   Cu    Cu3+1 0.640670 0.499980 0.499990 1.012612
H1    H     H_    0.621936 0.113977 0.612978 0.128339
H2    H     H_    0.923789 0.224670 0.393869 0.145277
H3    H     H_    0.442502 0.429783 0.174796 0.137040
H4    H     H_    0.193807 0.371607 0.814057 0.147315
H5    H     H_    0.297572 0.374592 0.097956 0.108947
H6    H     H_    0.143266 0.311806 0.996261 0.132449
H7    H     H_    0.576055 0.668915 0.762508 0.135974
H8    H     H_    0.617836 0.885671 0.615740 0.135039
H9    H     H_    0.005908 0.830998 0.177492 0.362069
H10   H     H_    0.955726 0.875762 0.710034 0.373012
H11   H     H_    0.863054 0.251198 0.538571 0.152276
H12   H     H_    0.360600 0.108188 0.304408 0.131924
H13   H     H_    0.063870 0.821866 0.878934 0.382515
H14   H     H_    0.561100 0.098725 0.283744 0.148596
H15   H     H_    0.345278 0.888302 0.314517 0.170717
H16   H     H_    0.547625 0.877376 0.287145 0.181370
H17   H     H_    0.824015 0.663389 0.585950 0.172735
H18   H     H_    0.170210 0.223877 0.394904 0.132038
H19   H     H_    0.109989 0.250040 0.539439 0.164350
H20   H     H_    0.749257 0.719060 0.850358 0.226444
N1    N     N_R   0.852320 0.499070 0.499340 -0.265128
N2    N     N_R   0.148230 0.499110 0.499340 -0.258940
O1    O     O_R   0.381190 0.680360 0.500000 -0.423980
O2    O     O_2   0.959937 0.591306 0.226089 -0.262854
O3    O     O_3   0.942003 0.801603 0.136765 -0.450211
O4    O     O_2   0.185203 0.707859 0.676706 -0.234626
O5    O     O_2   0.147540 0.823284 0.529442 -0.318785
O6    O     O_3   0.929292 0.792503 0.690443 -0.579625
O7    O     O_2   0.068056 0.620322 0.996078 -0.226329
O8    O     O_2   0.983099 0.583767 0.844859 -0.274035
O9    O     O_3   0.961686 0.808423 0.920631 -0.493229
O10   O     O_R   0.618780 0.680320 0.499990 -0.491520
O11   O     O_R   0.323230 0.500000 0.650990 -0.447658
O12   O     O_R   0.560820 0.499960 0.650980 -0.533059
O13   O     O_R   0.381220 0.319680 0.500010 -0.518827
O14   O     O_R   0.618810 0.319640 0.500000 -0.520798
O15   O     O_R   0.439180 0.500040 0.349020 -0.516914
O16   O     O_R   0.676770 0.500000 0.349010 -0.424507
O17   O     O_2   0.755713 0.734395 0.304690 -0.311332
S1    S     S_3+6 0.852383 0.681665 0.204010 0.056676
S2    S     S_3+6 0.084818 0.729791 0.611827 0.036093
S3    S     S_3+6 0.953470 0.655619 0.945610 0.056772

loop_
_geom_bond_atom_site_label_1
_geom_bond_atom_site_label_2
_ccdc_geom_bond_type
C15   S2    S    
O17   S1    D    
Cu2   O10   S    
C18   H18   S    
C7    C8    A    
O5    S2    D    
C12   C23   A    
O2    S1    D    
O9    S3    S    
C22   C32   A    
C3    C9    A    
C28   C29   A    
C19   H2    S    
C25   H6    S    
C32   S1    S    
C5    C6    A    
C26   H5    S    
C29   H20   S    
O3    S1    S    
C18   C19   S    
C18   H19   S    
C8    C9    A    
C10   H12   S    
C24   H4    S    
C20   O15   A    
C9    C10   S    
Cu2   O14   S    
H9    O3    S    
Cu1   N2    S    
C14   N1    A    
Cu2   N1    S    
C8    C16   S    
Cu1   Cu2   S    
C21   C32   A    
C22   C31   A    
C13   C19   S    
C12   C27   A    
C27   C31   A    
C23   C30   A    
C16   O14   A    
C24   C25   A    
Cu2   O12   S    
C4    O12   A    
H10   O6    S    
C25   C26   A    
C31   H3    S    
C12   C26   A    
C1    O10   A    
C2    C4    S    
C29   C30   A    
C11   H15   S    
C1    O1    A    
C14   H17   S    
C21   S3    S    
C17   C18   S    
O8    S3    D    
C30   H7    S    
C17   N2    A    
C21   C28   A    
C20   C22   S    
C10   H14   S    
C1    C5    S    
O6    S2    S    
Cu2   O16   S    
C2    C23   A    
Cu1   O11   S    
Cu1   O1    S    
C14   C15   A    
C7    H1    S    
C16   O13   A    
C3    C5    A    
C4    O11   A    
C19   H11   S    
C6    C7    A    
Cu1   O13   S    
O4    S2    D    
C13   C17   A    
C15   N2    A    
C11   H16   S    
C2    C24   A    
C3    C11   S    
C10   C11   S    
Cu1   O15   S    
C6    H8    S    
C27   C28   A    
O7    S3    D    
C20   O16   A    
H13   O9    S    
C13   N1    A    
