data_mof_unit_40991.cif
_audit_creation_date              2013-03-05T16:06:18-0500
_audit_creation_method            fapswitch 2.2
_symmetry_space_group_name_H-M    P1
_symmetry_Int_Tables_number       1
_space_group_crystal_system       triclinic
_cell_length_a                    10.923451
_cell_length_b                    9.497051
_cell_length_c                    27.772509
_cell_angle_alpha                 89.779619
_cell_angle_beta                  89.899481
_cell_angle_gamma                 89.377852
_cell_volume                      2880.94055922

loop_
_atom_site_label
_atom_site_type_symbol
_atom_site_description
_atom_site_fract_x
_atom_site_fract_y
_atom_site_fract_z
_atom_type_partial_charge
O1    O     O_R   0.319640 0.618740 0.500000 -0.588523
O2    O     O_R   0.680360 0.381260 0.500000 -0.596268
O3    O     O_R   0.680360 0.618740 0.500000 -0.585611
O4    O     O_R   0.319640 0.381260 0.500000 -0.590359
C1    C     C_R   0.262260 0.500825 0.500716 0.892201
C2    C     C_R   0.737829 0.499422 0.499783 0.876571
O5    O     O_R   0.500020 0.618770 0.430260 -0.600943
O6    O     O_R   0.499980 0.381230 0.569740 -0.614643
O7    O     O_R   0.499980 0.618770 0.569740 -0.532277
O8    O     O_R   0.500020 0.381230 0.430260 -0.556801
C3    C     C_R   0.499772 0.499872 0.407496 0.954660
C4    C     C_R   0.500322 0.500042 0.592442 0.931616
Cu1   Cu    Cu3+1 0.500000 0.640660 0.500000 1.025125
Cu2   Cu    Cu3+1 0.500000 0.359340 0.500000 1.009225
C5    C     C_R   0.478108 0.630507 0.177126 0.607564
C6    C     C_R   0.522951 0.359721 0.822504 0.597690
O9    O     O_2   0.439144 0.743240 0.202312 -0.467091
O10   O     O_2   0.558486 0.245893 0.797141 -0.465228
N1    N     N_R   0.511601 0.511084 0.201641 -0.460476
N2    N     N_R   0.491682 0.480243 0.798120 -0.463338
C7    C     C_R   0.554651 0.394397 0.178334 0.588874
C8    C     C_R   0.450629 0.597568 0.821641 0.589535
C9    C     C_R   0.611226 0.533596 0.279447 -0.189339
C10   C     C_R   0.387870 0.478774 0.720594 -0.194394
C11   C     C_R   0.611454 0.524249 0.329514 -0.050843
C12   C     C_R   0.387115 0.492217 0.670595 -0.049030
C13   C     C_R   0.391930 0.469772 0.327912 -0.120357
C14   C     C_R   0.611668 0.506038 0.671415 -0.126818
C15   C     C_R   0.395570 0.475211 0.276989 0.123647
C16   C     C_R   0.609300 0.497650 0.722218 0.134209
C17   C     C_R   0.505086 0.509144 0.253260 0.310171
C18   C     C_R   0.497077 0.482499 0.746429 0.308616
C19   C     C_R   0.517726 0.509491 0.101560 -0.071123
C20   C     C_R   0.484791 0.480446 0.898249 -0.078382
C21   C     C_R   0.482283 0.633959 0.126208 -0.091060
C22   C     C_R   0.519486 0.355997 0.873460 -0.077168
C23   C     C_R   0.456402 0.756485 0.098786 0.229763
C24   C     C_R   0.544967 0.233147 0.900798 0.214243
C25   C     C_R   0.559712 0.392006 0.127967 -0.052391
C26   C     C_R   0.444389 0.598931 0.871964 -0.010176
C27   C     C_R   0.500497 0.498724 0.354408 -0.094204
C28   C     C_R   0.499711 0.501059 0.645410 -0.086794
C29   C     C_R   0.447109 0.609294 0.973710 0.059486
C30   C     C_R   0.554128 0.379393 0.026186 -0.016957
C31   C     C_R   0.534000 0.368873 0.975614 0.008711
C32   C     C_R   0.467251 0.619970 0.024202 0.028353
C33   C     C_R   0.489613 0.486739 0.949347 0.077037
C34   C     C_R   0.512074 0.502363 0.050503 0.073008
C35   C     C_R   0.382604 0.713740 0.946208 -0.040588
C36   C     C_R   0.619295 0.275230 0.053604 -0.042766
C37   C     C_R   0.391456 0.712952 0.896125 -0.183673
C38   C     C_R   0.612621 0.277890 0.103871 -0.080997
O11   O     O_2   0.416528 0.712980 0.796260 -0.492102
O12   O     O_2   0.591629 0.280631 0.203966 -0.496175
C39   C     C_R   0.454355 0.748740 0.048759 -0.138963
C40   C     C_R   0.546710 0.240362 0.950860 -0.268581
H1    H     H_    0.302232 0.470951 0.740185 0.154494
H2    H     H_    0.695611 0.554213 0.260165 0.155648
H3    H     H_    0.347863 0.797213 0.875742 0.192603
H4    H     H_    0.656913 0.194666 0.124463 0.228697
H5    H     H_    0.444650 0.846703 0.029258 0.157388
H6    H     H_    0.555165 0.141989 0.970183 0.163669
C41   C     C_R   0.065256 0.392875 0.525572 -0.037364
C42   C     C_R   0.935098 0.610511 0.476544 -0.024201
C43   C     C_R   0.936925 0.390852 0.524183 -0.019898
C44   C     C_R   0.063345 0.610814 0.477096 -0.014289
C45   C     C_R   0.871921 0.498669 0.499325 -0.147006
C46   C     C_R   0.128287 0.502812 0.501823 -0.151731
C47   C     C_R   0.435657 0.075676 0.466142 0.035533
C48   C     C_R   0.564382 0.924327 0.533847 0.041733
C49   C     C_R   0.564060 0.073260 0.533932 -0.012655
C50   C     C_R   0.436011 0.926744 0.466049 -0.016564
H7    H     H_    0.383880 0.132814 0.439101 0.144496
H8    H     H_    0.616193 0.867196 0.560876 0.164841
H9    H     H_    0.614890 0.128437 0.561234 0.135448
H10   H     H_    0.385286 0.871574 0.438717 0.137349
N3    N     N_R   0.500000 0.852070 0.500000 -0.183826
N4    N     N_R   0.500000 0.147930 0.500000 -0.180326
C51   C     C_2   0.275459 0.429552 0.352129 0.419358
H11   H     H_    0.205571 0.373227 0.332713 0.123798
O13   O     O_2   0.254720 0.458958 0.394033 -0.562050
C52   C     C_2   0.731493 0.521483 0.646543 0.417467
H12   H     H_    0.813888 0.476297 0.662167 0.144524
O14   O     O_2   0.740725 0.588226 0.609119 -0.554258
I1    I     I_    0.237540 0.435182 0.233816 -0.236364
I2    I     I_    0.772270 0.520417 0.764018 -0.250789
I3    I     I_    0.423550 0.962685 0.126545 -0.152926
I4    I     I_    0.578933 0.027327 0.872908 -0.226790
C53   C     C_2   0.265863 0.501915 0.646827 0.335415
H13   H     H_    0.186038 0.457943 0.664445 0.102608
O15   O     O_2   0.252049 0.565086 0.608874 -0.561926
C54   C     C_2   0.731756 0.532042 0.353745 0.331302
H14   H     H_    0.804911 0.592714 0.337578 0.107735
O16   O     O_2   0.753132 0.463974 0.390165 -0.568195
C55   C     C_2   0.289042 0.811633 0.966325 0.364012
H15   H     H_    0.271679 0.912542 0.948983 0.089531
O17   O     O_2   0.225449 0.777134 0.000511 -0.487989
C56   C     C_2   0.711157 0.177331 0.032030 0.369655
H16   H     H_    0.753976 0.202767 0.997854 0.105072
O18   O     O_2   0.741482 0.068340 0.052482 -0.504446
C57   C     C_2   0.133479 0.280072 0.552373 0.476968
H17   H     H_    0.211813 0.306088 0.574347 0.081013
O19   O     O_2   0.105294 0.156472 0.548739 -0.512128
C58   C     C_2   0.867860 0.728371 0.451929 0.469942
H18   H     H_    0.789183 0.707681 0.429532 0.091983
O20   O     O_2   0.897778 0.850642 0.457828 -0.525212
C59   C     C_2   0.871434 0.279869 0.551585 0.475268
H19   H     H_    0.817485 0.202551 0.532732 0.098829
O21   O     O_2   0.880559 0.272344 0.595318 -0.545890
C60   C     C_2   0.128490 0.720658 0.448968 0.519602
H20   H     H_    0.183693 0.797968 0.467243 0.081959
O22   O     O_2   0.117355 0.727383 0.405279 -0.506977

loop_
_geom_bond_atom_site_label_1
_geom_bond_atom_site_label_2
_geom_bond_distance
_ccdc_geom_bond_type
C9    H2    1.084513 S    
C44   C46   1.416824 A    
C41   C43   1.402759 A    
C57   H17   1.083175 S    
C13   C15   1.415528 A    
C55   H15   1.085891 S    
C50   H10   1.081009 S    
O3    C2    1.289493 A    
N1    C17   1.435296 S    
C58   O20   1.221463 D    
C12   C53   1.482711 S    
O5    C3    1.296269 A    
C19   C25   1.406017 A    
O1    C1    1.289320 A    
C6    N2    1.368130 A    
C21   C23   1.414480 A    
C10   C12   1.393998 A    
C13   C51   1.490798 S    
C7    O12   1.350154 S    
C53   O15   1.219600 D    
C5    O9    1.345918 S    
O7    Cu1   1.947184 S    
C60   H20   1.083445 S    
C4    C28   1.471104 S    
C38   H4    1.084002 S    
C31   C40   1.408507 A    
C10   H1    1.084452 S    
C35   C37   1.394164 A    
C32   C39   1.408142 A    
C48   H8    1.081615 S    
C36   C38   1.398101 A    
C59   H19   1.083549 S    
C47   H7    1.081676 S    
C48   C49   1.414399 A    
C16   I2    2.140337 S    
C15   I1    2.141745 S    
O3    Cu1   1.978872 S    
C41   C57   1.495172 S    
C40   H6    1.078792 S    
C9    C11   1.392967 A    
C25   C38   1.395366 A    
C57   O19   1.221364 D    
Cu1   Cu2   2.671710 S    
C48   N3    1.366336 A    
C59   O21   1.220581 D    
C47   N4    1.366326 A    
O2    C2    1.291765 A    
C1    C46   1.463636 S    
C5    C21   1.415052 A    
C58   H18   1.081945 S    
C29   C32   1.424012 A    
C8    O11   1.350239 S    
C32   C34   1.415578 A    
C31   C33   1.415422 A    
Cu1   N3    2.007772 S    
C36   C56   1.487372 S    
C14   C52   1.487303 S    
C16   C18   1.405629 A    
C42   C45   1.419141 A    
O8    Cu2   1.947184 S    
C11   C27   1.417025 A    
C51   O13   1.218149 D    
C29   C35   1.429916 A    
C43   C45   1.417661 A    
C35   C55   1.484038 S    
C24   I4    2.133851 S    
C9    C17   1.391849 A    
C47   C50   1.414390 A    
C5    N1    1.367346 A    
C10   C18   1.394003 A    
C50   N3    1.366382 A    
C13   C27   1.426618 A    
C7    C25   1.400067 A    
O6    C4    1.294732 A    
C8    C26   1.399235 A    
C54   O16   1.219840 D    
C24   C40   1.392461 A    
C44   C60   1.487554 S    
C2    C45   1.464719 S    
N2    C8    1.364941 A    
C56   H16   1.084965 S    
C56   O18   1.221665 D    
C20   C26   1.406386 A    
O1    Cu1   1.983368 S    
C22   C24   1.414941 A    
C30   C31   1.426034 A    
C12   C28   1.416981 A    
N2    C18   1.436765 S    
C30   C36   1.430391 A    
C42   C58   1.495893 S    
C41   C46   1.417002 A    
C11   C54   1.480144 S    
O6    Cu2   1.948774 S    
N1    C7    1.364302 A    
C23   I3    2.133878 S    
O4    C1    1.291246 A    
C55   O17   1.221288 D    
C26   C37   1.395649 A    
C52   O14   1.219912 D    
C14   C16   1.413086 A    
C15   C17   1.404715 A    
C6    C22   1.415918 A    
C49   H9    1.081056 S    
C39   H5    1.079033 S    
C14   C28   1.422702 A    
C54   H14   1.085790 S    
C19   C21   1.418148 A    
C3    C27   1.474462 S    
C20   C22   1.417790 A    
Cu2   N4    2.007773 S    
O4    Cu2   1.978872 S    
O2    Cu2   1.983368 S    
O7    C4    1.289725 A    
C60   O22   1.220977 D    
O8    C3    1.289854 A    
C51   H11   1.082706 S    
C23   C39   1.391846 A    
O5    Cu1   1.948774 S    
C37   H3    1.084795 S    
C6    O10   1.345823 S    
C52   H12   1.083540 S    
C19   C34   1.421345 A    
C20   C33   1.421700 A    
C53   H13   1.085812 S    
C29   C33   1.421718 A    
C43   C59   1.486662 S    
C49   N4    1.366379 A    
C30   C34   1.422791 A    
C42   C44   1.401045 A    
