data_mof_unit_9350.cif
_audit_creation_date              2013-03-05T15:42:26-0500
_audit_creation_method            fapswitch 2.2
_symmetry_space_group_name_H-M    P1
_symmetry_Int_Tables_number       1
_space_group_crystal_system       triclinic
_cell_length_a                    11.060162
_cell_length_b                    11.007341
_cell_length_c                    18.797096
_cell_angle_alpha                 90.057384
_cell_angle_beta                  89.708063
_cell_angle_gamma                 59.710001
_cell_volume                      1975.96574276

loop_
_atom_site_label
_atom_site_type_symbol
_atom_site_description
_atom_site_fract_x
_atom_site_fract_y
_atom_site_fract_z
_atom_type_partial_charge
O1    O     O_R   0.507340 0.255690 0.581430 -0.521800
O2    O     O_R   0.280360 0.527380 0.578910 -0.506481
C1    C     C_R   0.240500 0.644185 0.611347 0.537049
O3    O     O_R   0.260600 0.739610 0.584580 -0.531025
O4    O     O_R   0.532370 0.695050 0.573830 -0.506185
C2    C     C_R   0.654904 0.623008 0.600158 0.549114
O5    O     O_R   0.744850 0.503430 0.576380 -0.524497
O6    O     O_R   0.699080 0.276500 0.571950 -0.512579
C3    C     C_R   0.630657 0.224186 0.601272 0.537972
O7    O     O_R   0.498860 0.256520 0.419860 -0.533631
O8    O     O_R   0.272490 0.528150 0.429140 -0.499932
C4    C     C_R   0.222170 0.652142 0.401490 0.542760
O9    O     O_R   0.252110 0.740440 0.423010 -0.539062
O10   O     O_R   0.524510 0.695820 0.424050 -0.501334
C5    C     C_R   0.617578 0.588474 0.385519 0.552300
O11   O     O_R   0.736370 0.504260 0.414810 -0.524640
O12   O     O_R   0.691220 0.277270 0.422180 -0.536648
C6    C     C_R   0.615437 0.226549 0.395859 0.534538
Cr1   Cr    Cr6+3 0.392940 0.397950 0.502230 0.995594
Cr2   Cr    Cr6+3 0.398400 0.708500 0.501260 0.997890
Cr3   Cr    Cr6+3 0.708640 0.393530 0.496460 0.986256
O13   O     O_3   0.499990 0.499990 0.499980 -0.259958
C7    C     C_3   0.611192 0.819364 0.775781 -0.229442
H1    H     H_    0.666169 0.879895 0.778992 0.131554
H2    H     H_    0.510579 0.879875 0.804687 0.186014
C8    C     C_3   0.584108 0.803332 0.697137 -0.244617
H3    H     H_    0.470887 0.840605 0.689916 0.155944
H4    H     H_    0.610661 0.869608 0.663314 0.111570
H5    H     H_    0.901640 0.668993 0.780555 0.131030
H6    H     H_    0.863205 0.663109 0.661477 0.113817
C9    C     C_3   0.850036 0.605899 0.771191 -0.219135
C10   C     C_3   0.642812 0.578476 0.800671 -0.250526
C11   C     C_3   0.706262 0.673532 0.810712 0.047255
H7    H     H_    0.710886 0.474291 0.825622 0.120399
H8    H     H_    0.539217 0.625229 0.827230 0.157415
C12   C     C_3   0.674069 0.647203 0.675250 0.054387
C13   C     C_3   0.830130 0.596919 0.690944 -0.241892
C14   C     C_3   0.627957 0.559111 0.720891 -0.216222
H9    H     H_    0.517470 0.590476 0.709337 0.128261
H10   H     H_    0.693311 0.445644 0.707150 0.152186
H11   H     H_    0.921232 0.498061 0.791712 0.153771
H12   H     H_    0.899502 0.486034 0.673453 0.145752
H13   H     H_    0.489892 0.143988 0.685031 0.148614
C15   C     C_R   0.687688 0.147794 0.820831 -0.004636
C16   C     C_R   0.791793 0.158232 0.782333 0.012213
C17   C     C_R   0.792587 0.150679 0.706745 0.014655
C18   C     C_R   0.576253 0.146523 0.710386 -0.158429
C19   C     C_R   0.579657 0.145495 0.782876 -0.151422
C20   C     C_R   0.892577 0.179612 0.816046 -0.100032
C21   C     C_R   0.998417 0.180315 0.776346 -0.087078
C22   C     C_R   0.011617 0.150030 0.703790 -0.110597
C23   C     C_R   0.909436 0.135666 0.669029 -0.095438
C24   C     C_R   0.676048 0.159009 0.671341 -0.009328
H14   H     H_    0.887695 0.201582 0.872349 0.129534
H15   H     H_    0.500458 0.131545 0.808684 0.156884
H16   H     H_    0.072987 0.198888 0.803097 0.151764
H17   H     H_    0.100058 0.137627 0.673512 0.105647
H18   H     H_    0.924012 0.110490 0.612868 0.130641
H19   H     H_    0.236583 0.832691 0.699861 0.173294
C25   C     C_R   0.202813 0.657448 0.839264 -0.022335
C26   C     C_R   0.212599 0.541320 0.802565 -0.000352
C27   C     C_R   0.203169 0.543801 0.727132 0.015672
C28   C     C_R   0.220617 0.755658 0.727561 -0.168816
C29   C     C_R   0.227873 0.753184 0.801645 0.031325
C30   C     C_R   0.234688 0.421159 0.840095 -0.081877
C31   C     C_R   0.237659 0.309378 0.804760 -0.148011
C32   C     C_R   0.216982 0.315916 0.731837 -0.150344
C33   C     C_R   0.194135 0.433649 0.693623 -0.090697
C34   C     C_R   0.206784 0.653782 0.688764 -0.040636
H20   H     H_    0.256571 0.410073 0.896532 0.126797
H21   H     H_    0.260227 0.215738 0.834031 0.129975
H22   H     H_    0.224326 0.227056 0.704155 0.110192
H23   H     H_    0.168325 0.435640 0.638319 0.137550
H24   H     H_    0.510753 0.836544 0.317632 0.138879
C35   C     C_R   0.638071 0.660912 0.161566 0.023920
C36   C     C_R   0.693329 0.521774 0.185574 0.056416
C37   C     C_R   0.704328 0.495237 0.259897 0.058133
C38   C     C_R   0.562367 0.747046 0.281988 -0.107774
C39   C     C_R   0.574296 0.771898 0.210567 -0.090297
C40   C     C_R   0.760108 0.407896 0.137328 -0.082217
C41   C     C_R   0.865848 0.278453 0.160711 -0.084358
C42   C     C_R   0.892210 0.256643 0.232869 -0.108556
C43   C     C_R   0.805182 0.358202 0.282071 -0.072372
C44   C     C_R   0.627515 0.609625 0.308288 0.011417
H25   H     H_    0.741307 0.422504 0.080645 0.103125
H26   H     H_    0.540381 0.878802 0.194416 0.148597
H27   H     H_    0.927695 0.195176 0.123038 0.126761
H28   H     H_    0.973367 0.156147 0.251306 0.108432
H29   H     H_    0.828086 0.327134 0.336479 0.159873
H30   H     H_    0.859179 0.049525 0.328174 0.111069
C45   C     C_R   0.659948 0.140882 0.178916 0.012292
C46   C     C_R   0.525678 0.212450 0.208757 0.013223
C47   C     C_R   0.513440 0.199884 0.281982 0.046139
C48   C     C_R   0.766328 0.088835 0.295660 -0.165619
C49   C     C_R   0.778439 0.068172 0.222895 -0.108298
C50   C     C_R   0.403950 0.281462 0.166619 -0.111808
C51   C     C_R   0.276665 0.305765 0.193169 -0.114292
C52   C     C_R   0.266542 0.273607 0.263470 -0.140231
C53   C     C_R   0.382963 0.220730 0.307589 -0.091891
C54   C     C_R   0.633996 0.163955 0.325321 0.009918
H31   H     H_    0.407854 0.309479 0.111820 0.123082
H32   H     H_    0.882235 0.001389 0.200813 0.167580
H33   H     H_    0.186745 0.347493 0.158594 0.167800
H34   H     H_    0.167753 0.290881 0.284313 0.146692
H35   H     H_    0.369748 0.188579 0.359903 0.140971
H36   H     H_    0.079774 0.548082 0.336338 0.150462
C55   C     C_R   0.147810 0.670440 0.184050 -0.032731
C56   C     C_R   0.213795 0.739900 0.213429 -0.014796
C57   C     C_R   0.191896 0.772478 0.285770 0.027150
C58   C     C_R   0.114699 0.603323 0.301782 -0.122395
C59   C     C_R   0.085862 0.615256 0.230080 0.188069
C60   C     C_R   0.272102 0.803669 0.170785 -0.081432
C61   C     C_R   0.270320 0.924083 0.194742 -0.120297
C62   C     C_R   0.230672 0.968830 0.264336 -0.156304
C63   C     C_R   0.190735 0.895364 0.309449 -0.089257
C64   C     C_R   0.166189 0.683127 0.330471 -0.035821
H37   H     H_    0.305044 0.769790 0.116432 0.129906
H38   H     H_    0.300933 0.981823 0.159550 0.118457
H39   H     H_    0.229468 0.061026 0.283846 0.105128
H40   H     H_    0.150397 0.942271 0.361017 0.135107
O14   O     O_R   0.089570 0.825450 0.930590 -0.469158
O15   O     O_R   0.818700 0.054260 0.929860 -0.508575
C65   C     C_R   0.702164 0.101027 0.895508 0.526794
O16   O     O_R   0.606310 0.077010 0.915520 -0.539670
O17   O     O_R   0.646730 0.806540 0.917560 -0.516293
C66   C     C_R   0.726840 0.689116 0.887160 0.547011
O18   O     O_R   0.837290 0.593240 0.915240 -0.539172
O19   O     O_R   0.065320 0.635310 0.931580 -0.530000
C67   C     C_R   0.123285 0.703393 0.907261 0.551622
O20   O     O_R   0.068470 0.828620 0.091850 -0.529490
O21   O     O_R   0.799150 0.057200 0.079350 -0.519834
C68   C     C_R   0.677403 0.102195 0.104863 0.544821
O22   O     O_R   0.585220 0.080180 0.076770 -0.521979
O23   O     O_R   0.627170 0.809480 0.067050 -0.509590
C69   C     C_R   0.691425 0.687169 0.094796 0.583452
O24   O     O_R   0.816200 0.596410 0.076500 -0.467241
O25   O     O_R   0.045770 0.638240 0.081070 -0.473232
C70   C     C_R   0.093979 0.708207 0.112315 0.554732
Cr4   Cr    Cr6+3 0.937880 0.938320 0.007620 1.022441
Cr5   Cr    Cr6+3 0.625560 0.937220 0.994510 1.003145
Cr6   Cr    Cr6+3 0.938080 0.625010 0.001190 1.030317
O26   O     O_3   0.833840 0.833520 0.001110 -0.245330
C71   C     C_2   0.272875 0.843644 0.838406 0.567224
O27   O     O_2   0.265645 0.944930 0.807990 -0.606374
O28   O     O_R   0.331703 0.808246 0.906342 -0.705028
H41   H     H_    0.359889 0.876799 0.925036 0.330873
N1    N     N_R   0.964698 0.611602 0.209660 0.090499
O29   O     O_R   0.850778 0.731982 0.201139 -0.358226
O30   O     O_R   0.956051 0.501128 0.224201 -0.389548

loop_
_geom_bond_atom_site_label_1
_geom_bond_atom_site_label_2
_geom_bond_distance
_ccdc_geom_bond_type
C19   H15   1.075971 S    
C14   H10   1.111704 S    
O11   Cr3   2.076352 S    
N1    O29   1.298965 A    
O19   C67   1.289942 A    
C51   C52   1.386892 A    
C69   O24   1.274570 A    
O4    Cr2   1.969249 S    
C16   C17   1.422922 A    
O8    Cr1   1.952656 S    
C8    H3    1.112855 S    
C66   O18   1.261685 A    
O4    C2    1.278264 A    
Cr3   O13   1.993348 S    
C12   C13   1.553850 S    
N1    O30   1.296259 A    
Cr5   O26   1.993902 S    
O15   Cr4   1.956802 S    
O28   H41   1.013869 S    
C14   H9    1.112168 S    
Cr4   O26   2.002494 S    
C35   C69   1.473834 S    
C37   C43   1.414902 A    
C20   H14   1.080363 S    
C52   C53   1.392975 A    
C17   C23   1.405388 A    
C46   C50   1.413301 A    
C56   C57   1.394410 A    
C32   H22   1.073525 S    
O18   Cr6   2.094189 S    
C7    C8    1.537368 S    
C13   H12   1.112876 S    
C58   C59   1.377687 A    
C11   C66   1.479324 S    
C57   C64   1.426685 A    
C28   C34   1.409014 A    
O6    C3    1.282201 A    
C7    C11   1.555635 S    
C7    H1    1.107378 S    
C9    C11   1.558014 S    
C22   H17   1.076481 S    
C10   C14   1.535744 S    
C8    H4    1.112563 S    
O19   Cr6   1.961605 S    
C47   C53   1.423216 A    
C62   H39   1.072443 S    
C49   H32   1.083430 S    
O23   C69   1.276580 A    
C18   C24   1.385916 A    
C61   H38   1.082497 S    
C31   C32   1.386783 A    
C50   H31   1.082413 S    
C26   C27   1.421550 A    
C6    C54   1.458630 S    
C43   H29   1.069118 S    
O20   Cr4   2.078171 S    
C60   C61   1.390081 A    
H30   C48   1.083543 S    
C2    O5    1.263061 A    
O17   Cr5   1.966912 S    
C53   H35   1.079356 S    
O1    Cr1   2.072323 S    
C5    O11   1.291697 A    
C32   C33   1.390192 A    
C10   H8    1.107121 S    
O10   Cr2   1.963124 S    
C65   O16   1.270506 A    
Cr1   O13   2.001561 S    
O1    C3    1.283726 A    
C36   C37   1.420763 A    
C45   C46   1.396819 A    
C38   C39   1.389209 A    
C68   O22   1.277319 A    
C45   C68   1.438529 S    
C37   C44   1.430138 A    
C21   C22   1.393020 A    
C33   H23   1.076769 S    
O5    Cr3   2.090881 S    
C38   C44   1.399043 A    
C41   C42   1.384368 A    
C56   C60   1.415484 A    
H6    C13   1.113119 S    
C9    C13   1.535754 S    
C25   C26   1.406932 A    
C10   H7    1.111607 S    
C30   H20   1.082567 S    
C35   C36   1.408117 A    
C31   H21   1.081875 S    
C40   H25   1.083150 S    
C59   N1    1.415753 S    
C18   C19   1.363220 A    
C48   C54   1.380830 A    
O7    Cr1   2.080912 S    
C55   C56   1.410075 A    
C50   C51   1.383896 A    
O12   C6    1.317098 A    
C41   H27   1.082068 S    
C47   C54   1.441423 A    
C51   H33   1.081117 S    
C23   H18   1.081585 S    
C8    C12   1.543442 S    
Cr2   O13   1.982156 S    
C42   C43   1.391025 A    
O17   C66   1.272924 A    
C3    C24   1.465190 S    
C30   C31   1.383293 A    
C1    O3    1.281149 A    
O20   C70   1.268566 A    
C58   C64   1.376071 A    
C15   C16   1.409868 A    
C61   C62   1.386065 A    
H36   C58   1.084448 S    
C71   O28   1.399871 S    
O25   Cr6   1.971585 S    
C9    H11   1.113097 S    
O9    Cr2   2.087205 S    
C1    C34   1.490739 S    
O2    Cr1   1.961061 S    
C55   C59   1.414876 A    
O16   Cr5   2.072411 S    
C36   C40   1.412865 A    
O14   C67   1.276004 A    
C40   C41   1.384422 A    
O6    Cr3   1.955426 S    
C25   C67   1.483791 S    
O8    C4    1.296437 A    
C63   H40   1.080494 S    
C62   C63   1.387809 A    
C5    C44   1.482768 S    
C29   C71   1.489543 S    
O25   C70   1.280193 A    
C15   C65   1.477042 S    
H19   C28   1.082713 S    
C27   C33   1.413559 A    
C25   C29   1.407644 A    
C10   C11   1.537700 S    
O14   Cr4   2.079380 S    
C55   C70   1.450892 S    
C12   C14   1.559628 S    
O2    C1    1.281828 A    
C22   C23   1.384465 A    
H5    C9    1.113417 S    
O21   C68   1.268329 A    
O23   Cr5   1.953315 S    
C60   H37   1.083529 S    
H13   C18   1.082483 S    
O7    C6    1.240765 A    
C42   H28   1.073215 S    
C17   C24   1.415018 A    
C46   C47   1.396202 A    
O24   Cr6   2.080798 S    
C2    C12   1.472241 S    
C16   C20   1.403929 A    
C7    H2    1.105727 S    
C26   C30   1.408699 A    
C48   C49   1.381024 A    
C21   H16   1.071897 S    
O21   Cr4   1.958206 S    
C57   C63   1.417442 A    
C45   C49   1.412701 A    
C28   C29   1.394778 A    
O3    Cr2   2.083541 S    
C15   C19   1.405854 A    
C4    O9    1.242236 A    
C27   C34   1.427433 A    
O22   Cr5   2.084718 S    
C20   C21   1.388355 A    
H24   C38   1.082934 S    
O10   C5    1.320632 A    
O15   C65   1.297329 A    
Cr6   O26   1.981829 S    
C35   C39   1.400092 A    
C52   H34   1.081385 S    
C39   H26   1.083598 S    
C71   O27   1.219859 D    
C4    C64   1.441563 S    
O12   Cr3   1.967785 S    
