data_mof_unit_58631.cif
_audit_creation_date              2012-10-26T20:22:29-0400
_audit_creation_method            fapswitch 2.2
_symmetry_space_group_name_H-M    P1
_symmetry_Int_Tables_number       1
_space_group_crystal_system       triclinic
_cell_length_a                    9.534728
_cell_length_b                    10.817725
_cell_length_c                    17.335597
_cell_angle_alpha                 90.820921
_cell_angle_beta                  85.741902
_cell_angle_gamma                 89.537071
_cell_volume                      1782.87038076

loop_
_atom_site_label
_atom_site_type_symbol
_atom_type_description
_atom_site_fract_x
_atom_site_fract_y
_atom_site_fract_z
_atom_type_partial_charge
C1    C     C_R   0.499606 0.737861 0.500350 0.550777
C2    C     C_R   0.082175 0.419444 0.453919 -0.012058
C3    C     C_R   0.066917 0.580263 0.547034 0.246082
C4    C     C_R   0.932803 0.416928 0.454815 0.236379
C5    C     C_R   0.481844 0.495443 0.650023 0.556732
C6    C     C_R   0.518540 0.501666 0.350148 0.569857
C7    C     C_R   0.476990 0.477730 0.734194 -0.016129
C8    C     C_R   0.527511 0.502742 0.265633 -0.017392
C9    C     C_R   0.602209 0.497095 0.770204 -0.168918
C10   C     C_R   0.421289 0.443790 0.228178 -0.166704
C11   C     C_R   0.612349 0.469062 0.847310 0.110727
C12   C     C_R   0.500207 0.262156 0.500216 0.536122
C13   C     C_R   0.419733 0.445067 0.148087 0.108049
C14   C     C_R   0.492233 0.430878 0.891846 0.048618
C15   C     C_R   0.527920 0.506262 0.104092 0.043249
C16   C     C_R   0.364646 0.411592 0.857682 0.132225
C17   C     C_R   0.634238 0.569129 0.141311 0.133749
C18   C     C_R   0.357770 0.430839 0.777471 0.125474
C19   C     C_R   0.633536 0.567830 0.222793 0.126563
C20   C     C_2   0.498508 0.415901 0.975282 -0.071812
C21   C     C_2   0.525888 0.513826 0.019465 -0.089005
C22   C     C_3   0.872146 0.590813 0.263644 -0.281787
C23   C     C_R   0.620595 0.935539 0.518151 -0.145225
C24   C     C_3   0.232624 0.279975 0.705673 -0.282018
C25   C     C_3   0.165187 0.470120 0.944626 -0.315790
C26   C     C_3   0.852370 0.561417 0.060258 -0.315090
C27   C     C_3   0.275622 0.266616 0.123202 -0.316448
C28   C     C_3   0.814292 0.352383 0.878786 -0.329018
C29   C     C_3   0.077692 0.673799 0.675266 -0.311418
C30   C     C_3   0.917784 0.203903 0.406832 -0.330840
C31   C     C_R   0.378049 0.064564 0.484258 -0.147943
C32   C     C_R   0.620681 0.063432 0.518435 -0.146411
C33   C     C_R   0.377647 0.936668 0.484396 -0.145971
C34   C     C_R   0.499897 0.128320 0.500854 0.017498
C35   C     C_R   0.499124 0.871747 0.500995 0.022936
C36   C     C_R   0.917930 0.581197 0.545619 -0.011947
Cu1   Cu    Cu3+1 0.359340 0.499980 0.500000 0.958668
Cu2   Cu    Cu3+1 0.640660 0.500020 0.500000 0.958264
H1    H     H_    0.696003 0.528966 0.737519 0.132069
H2    H     H_    0.145802 0.356819 0.416585 0.113445
H3    H     H_    0.725352 0.733987 0.253397 0.234748
H4    H     H_    0.945921 0.645545 0.225404 0.116601
H5    H     H_    0.878651 0.492311 0.244443 0.131180
H6    H     H_    0.905560 0.597639 0.323497 0.161236
H7    H     H_    0.140847 0.422924 0.773020 0.236921
H8    H     H_    0.230777 0.208395 0.751038 0.112971
H9    H     H_    0.326992 0.265053 0.664971 0.169796
H10   H     H_    0.137719 0.269749 0.672764 0.139467
H11   H     H_    0.183148 0.307441 0.879107 0.243461
H12   H     H_    0.336585 0.398607 0.261733 0.128973
H13   H     H_    0.106772 0.523973 0.903094 0.120604
H14   H     H_    0.234789 0.533418 0.974853 0.171528
H15   H     H_    0.089534 0.429783 0.988757 0.136710
H16   H     H_    0.773140 0.715835 0.121750 0.250188
H17   H     H_    0.922062 0.528225 0.104182 0.122568
H18   H     H_    0.915181 0.617805 0.017552 0.137612
H19   H     H_    0.811392 0.480162 0.029705 0.185099
H20   H     H_    0.211612 0.450222 0.124829 0.239200
H21   H     H_    0.196049 0.235779 0.083624 0.147986
H22   H     H_    0.234639 0.248467 0.183590 0.121815
H23   H     H_    0.552379 0.601418 0.992260 0.152641
H24   H     H_    0.373759 0.212062 0.109433 0.147975
H25   H     H_    0.811945 0.539391 0.855570 0.238694
H26   H     H_    0.913417 0.359474 0.907769 0.127871
H27   H     H_    0.839261 0.318481 0.818438 0.139828
H28   H     H_    0.746159 0.284557 0.910810 0.153515
H29   H     H_    0.146804 0.751234 0.570650 0.232906
H30   H     H_    0.159279 0.712273 0.711020 0.153507
H31   H     H_    0.047866 0.581167 0.697383 0.157169
H32   H     H_    0.984035 0.735923 0.681067 0.093394
H33   H     H_    0.850501 0.362126 0.353284 0.243358
H34   H     H_    0.474500 0.326434 0.999990 0.155594
H35   H     H_    0.016247 0.194554 0.368670 0.102271
H36   H     H_    0.837916 0.141926 0.383952 0.152896
H37   H     H_    0.937309 0.174372 0.466260 0.140168
H38   H     H_    0.715046 0.886832 0.531955 0.118609
H39   H     H_    0.283551 0.113277 0.470508 0.118833
H40   H     H_    0.714520 0.111334 0.533079 0.129277
H41   H     H_    0.283089 0.888860 0.470638 0.116017
H42   H     H_    0.854860 0.646700 0.581179 0.112670
N1    N     N_R   0.147930 0.499970 0.499980 -0.226983
N2    N     N_2   0.865933 0.330129 0.407634 -0.460853
N3    N     N_R   0.852070 0.500030 0.500020 -0.230328
N4    N     N_2   0.730716 0.640104 0.262337 -0.496134
N5    N     N_2   0.233173 0.402348 0.740514 -0.496703
N6    N     N_2   0.245231 0.371384 0.904628 -0.520407
N7    N     N_2   0.738622 0.636135 0.096343 -0.524458
N8    N     N_2   0.301151 0.397246 0.112637 -0.517286
N9    N     N_2   0.745846 0.472289 0.878841 -0.524750
N10   N     N_2   0.133235 0.665624 0.595309 -0.450526
O1    O     O_R   0.381260 0.680340 0.500000 -0.495365
O2    O     O_R   0.618740 0.319660 0.500000 -0.469942
O3    O     O_R   0.618830 0.680370 0.500010 -0.513983
O4    O     O_R   0.381170 0.319630 0.499990 -0.527524
O5    O     O_R   0.367440 0.500000 0.613600 -0.430650
O6    O     O_R   0.632560 0.500000 0.386400 -0.462716
O7    O     O_R   0.605010 0.500030 0.613600 -0.528447
O8    O     O_R   0.394990 0.499970 0.386400 -0.524364

loop_
_geom_bond_atom_site_label_1
_geom_bond_atom_site_label_2
_ccdc_geom_bond_type
Cu2   N3    S    
C28   H28   S    
C23   H38   S    
C12   O4    A    
C26   H17   S    
C3    N10   S    
C6    O8    A    
C25   H15   S    
C27   H22   S    
H16   N7    S    
C30   H36   S    
C11   C14   A    
C36   N3    A    
Cu2   O2    S    
C9    H1    S    
Cu1   O5    S    
C15   C17   A    
Cu1   O8    S    
C17   C19   A    
C22   H6    S    
C26   N7    S    
C3    N1    A    
C31   C33   A    
C28   N9    S    
C13   N8    S    
C24   N5    S    
C21   H23   S    
H33   N2    S    
C1    O1    A    
C16   N6    S    
Cu1   N1    S    
Cu2   O7    S    
C29   N10   S    
C5    O5    A    
C31   H39   S    
C29   H31   S    
C8    C19   A    
Cu1   O1    S    
C18   N5    S    
C14   C20   S    
C36   H42   S    
C5    C7    S    
C30   H35   S    
C33   H41   S    
C6    C8    S    
H3    N4    S    
H29   N10   S    
C26   H18   S    
C32   C34   A    
C30   N2    S    
C2    C4    A    
C25   H13   S    
Cu1   Cu2   S    
C27   H24   S    
C29   H30   S    
C11   N9    S    
C24   H10   S    
C22   H5    S    
C7    C18   A    
H25   N9    S    
C31   C34   A    
C16   C18   A    
C9    C11   A    
C28   H26   S    
C8    C10   A    
C5    O7    A    
C23   C35   A    
C13   C15   A    
C14   C16   A    
C12   C34   S    
C19   N4    S    
C10   H12   S    
C1    C35   S    
C29   H32   S    
C7    C9    A    
C17   N7    S    
C24   H9    S    
H11   N6    S    
C12   O2    A    
C10   C13   A    
H20   N8    S    
C6    O6    A    
H7    N5    S    
C24   H8    S    
C23   C32   A    
C28   H27   S    
C25   H14   S    
C27   H21   S    
C30   H37   S    
C22   H4    S    
C4    N3    A    
C3    C36   A    
Cu2   O3    S    
C25   N6    S    
C33   C35   A    
Cu1   O4    S    
C27   N8    S    
C26   H19   S    
C32   H40   S    
C2    H2    S    
C15   C21   S    
C4    N2    S    
C20   C21   D    
C1    O3    A    
Cu2   O6    S    
C20   H34   S    
C2    N1    A    
C22   N4    S    
