data_mof_unit_57060.cif
_audit_creation_date              2012-12-10T18:42:33-0500
_audit_creation_method            fapswitch 2.2
_symmetry_space_group_name_H-M    P1
_symmetry_Int_Tables_number       1
_space_group_crystal_system       triclinic
_cell_length_a                    8.594129
_cell_length_b                    10.728764
_cell_length_c                    9.846317
_cell_angle_alpha                 90.000328
_cell_angle_beta                  98.654532
_cell_angle_gamma                 90.114599
_cell_volume                      897.534332134

loop_
_atom_site_label
_atom_site_type_symbol
_atom_type_description
_atom_site_fract_x
_atom_site_fract_y
_atom_site_fract_z
_atom_type_partial_charge
C1    C     C_R   0.499889 0.259865 0.499938 0.864015
C2    C     C_R   0.497797 0.063843 0.623566 -0.196603
C3    C     C_R   0.500143 0.872604 0.500051 -0.009246
C4    C     C_R   0.499857 0.127396 0.499949 -0.009246
C5    C     C_R   0.594732 0.579953 0.084335 -0.077357
C6    C     C_R   0.405268 0.420047 0.915664 -0.077357
C7    C     C_R   0.594674 0.579930 0.940470 -0.075169
C8    C     C_R   0.405325 0.420069 0.059529 -0.075169
C9    C     C_R   0.500111 0.740135 0.500062 0.864016
C10   C     C_R   0.201087 0.499981 0.464063 0.972483
C11   C     C_R   0.798913 0.500019 0.535937 0.972484
C12   C     C_2   0.035974 0.500086 0.444723 -0.386674
C13   C     C_2   0.964026 0.499914 0.555277 -0.386673
C14   C     C_R   0.502011 0.063815 0.376376 -0.196596
C15   C     C_R   0.497989 0.936185 0.623624 -0.196596
C16   C     C_R   0.502202 0.936157 0.376434 -0.196603
H1    H     H_    0.974068 0.500353 0.339855 0.179555
H2    H     H_    0.495999 0.112249 0.719906 0.156324
H3    H     H_    0.025932 0.499646 0.660145 0.179555
H4    H     H_    0.503635 0.112199 0.279994 0.156596
H5    H     H_    0.496364 0.887801 0.720005 0.156596
H6    H     H_    0.670504 0.643872 0.148738 0.125562
H7    H     H_    0.329496 0.356128 0.851262 0.125562
H8    H     H_    0.670377 0.643849 0.895899 0.125658
H9    H     H_    0.329623 0.356151 0.104101 0.125658
H10   H     H_    0.504001 0.887751 0.280094 0.156324
N1    N     N_R   0.499960 0.499970 0.857200 -0.079897
N2    N     N_R   0.500040 0.500030 0.142800 -0.079897
O1    O     O_R   0.499990 0.316750 0.614620 -0.630665
O2    O     O_R   0.500010 0.683250 0.385380 -0.630665
O3    O     O_R   0.499990 0.316780 0.385290 -0.630599
O4    O     O_R   0.500010 0.683220 0.614710 -0.630599
O5    O     O_R   0.271750 0.499990 0.587840 -0.614578
O6    O     O_R   0.728250 0.500010 0.412160 -0.614579
O7    O     O_R   0.271750 0.500010 0.358510 -0.625220
O8    O     O_R   0.728250 0.499990 0.641490 -0.625220
Zn1   Zn    Zn3+2 0.500000 0.499980 0.653120 0.942411
Zn2   Zn    Zn3+2 0.500000 0.500020 0.346880 0.942411

loop_
_geom_bond_atom_site_label_1
_geom_bond_atom_site_label_2
_ccdc_geom_bond_type
C12   H1    S    
C2    C4    A    
C10   O7    A    
C3    C9    S    
C2    H2    S    
C5    N2    A    
C6    N1    A    
O3    Zn2   S    
N2    Zn2   S    
C1    C4    S    
C1    O1    A    
C7    N1    A    
O4    Zn1   S    
C4    C14   A    
C2    C15   A    
C11   C13   S    
C10   C12   S    
C9    O2    A    
N1    Zn1   S    
C6    H7    S    
C11   O8    A    
C10   O5    A    
C1    O3    A    
C16   H10   S    
C8    N2    A    
C14   C16   A    
C13   H3    S    
C8    H9    S    
C7    H8    S    
C14   H4    S    
C15   H5    S    
O7    Zn2   S    
C3    C15   A    
C12   C13   D    
O2    Zn2   S    
O1    Zn1   S    
C5    C7    A    
O8    Zn1   S    
C6    C8    A    
C9    O4    A    
O6    Zn2   S    
C3    C16   A    
C11   O6    A    
O5    Zn1   S    
C5    H6    S    
