data_mof_unit_5999.cif
_audit_creation_date              2012-12-10T18:56:32-0500
_audit_creation_method            fapswitch 2.2
_symmetry_space_group_name_H-M    P1
_symmetry_Int_Tables_number       1
_space_group_crystal_system       triclinic
_cell_length_a                    10.841093
_cell_length_b                    19.428648
_cell_length_c                    18.128715
_cell_angle_alpha                 90.09584
_cell_angle_beta                  90.268502
_cell_angle_gamma                 90.157563
_cell_volume                      3818.3492011

loop_
_atom_site_label
_atom_site_type_symbol
_atom_type_description
_atom_site_fract_x
_atom_site_fract_y
_atom_site_fract_z
_atom_type_partial_charge
C1    C     C_R   0.499667 0.367458 0.499919 0.815878
C2    C     C_R   0.499822 0.632518 0.500003 0.818849
C3    C     C_R   0.871861 0.496916 0.500815 -0.089095
C4    C     C_R   0.128313 0.503254 0.499292 -0.089228
C5    C     C_R   0.939623 0.472084 0.562039 0.023772
C6    C     C_R   0.060741 0.528921 0.438507 0.023397
C7    C     C_R   0.514175 0.744233 0.433618 -0.282688
C8    C     C_R   0.498021 0.255939 0.432047 -0.315545
C9    C     C_R   0.512243 0.816064 0.432771 0.501715
C10   C     C_R   0.501949 0.183430 0.430522 0.570361
C11   C     C_R   0.498301 0.852461 0.499687 0.055085
C12   C     C_R   0.503899 0.147699 0.498043 0.094912
C13   C     C_R   0.483653 0.816227 0.565873 -0.168767
C14   C     C_R   0.503853 0.183604 0.565074 -0.248348
C15   C     C_R   0.483807 0.744611 0.566029 -0.223248
C16   C     C_R   0.502423 0.255121 0.565780 -0.206229
C17   C     C_R   0.499087 0.708075 0.499924 -0.107804
C18   C     C_R   0.500288 0.291842 0.499350 -0.093335
C19   C     C_R   0.400954 0.965443 0.530605 0.495925
C20   C     C_R   0.604061 0.035494 0.468297 0.547613
C21   C     C_R   0.405367 0.037210 0.530807 -0.348463
C22   C     C_R   0.601695 0.963080 0.471237 -0.308111
C23   C     C_R   0.262095 0.501840 0.499731 0.802369
C24   C     C_R   0.737978 0.498210 0.500297 0.800878
C25   C     C_R   0.505050 0.072140 0.499188 -0.026500
C26   C     C_R   0.500272 0.928128 0.501007 -0.057125
C27   C     C_R   0.419978 0.459129 0.721181 0.070528
C28   C     C_R   0.579559 0.540786 0.278377 0.054027
C29   C     C_R   0.419956 0.458448 0.798460 -0.327891
C30   C     C_R   0.578711 0.541183 0.201064 -0.358120
C31   C     C_R   0.502108 0.500615 0.838449 0.034896
C32   C     C_R   0.496252 0.498761 0.161557 0.039909
C33   C     C_R   0.584465 0.543161 0.798805 0.405654
C34   C     C_R   0.415105 0.455998 0.201781 0.409580
C35   C     C_R   0.582031 0.540782 0.720481 -0.020279
C36   C     C_R   0.418105 0.458788 0.279971 -0.023042
C37   C     C_R   0.502101 0.562058 0.961939 -0.120047
C38   C     C_R   0.494672 0.437240 0.038045 -0.133775
C39   C     C_R   0.500863 0.561499 0.039414 -0.179810
C40   C     C_R   0.495423 0.437807 0.960563 -0.217733
C41   C     C_R   0.496737 0.499109 0.078675 0.158981
C42   C     C_R   0.500243 0.500197 0.921320 0.147644
C43   C     C_R   0.249081 0.654361 0.325409 -0.235516
C44   C     C_R   0.754276 0.353649 0.685385 -0.167464
C45   C     C_R   0.189136 0.623542 0.384939 -0.170539
C46   C     C_R   0.810247 0.381317 0.622734 -0.190387
C47   C     C_R   0.119890 0.563192 0.374736 0.126596
C48   C     C_R   0.881563 0.441454 0.628244 0.125880
C49   C     C_R   0.108397 0.535108 0.303800 -0.253125
C50   C     C_R   0.897802 0.472794 0.697326 -0.232641
C51   C     C_R   0.168267 0.565869 0.244188 -0.173993
C52   C     C_R   0.842241 0.445062 0.759996 -0.240613
C53   C     C_R   0.241288 0.624894 0.253844 0.574832
C54   C     C_R   0.770131 0.384324 0.754824 0.568922
C55   C     C_R   0.932994 0.524389 0.439618 -0.241732
C56   C     C_R   0.067335 0.475830 0.560400 -0.242126
Cu1   Cu    Cu3+1 0.499960 0.500000 0.573360 0.939926
Cu2   Cu    Cu3+1 0.500040 0.500000 0.426640 0.937576
H1    H     H_    0.472383 0.717908 0.617959 0.162386
H2    H     H_    0.502193 0.281605 0.618362 0.164854
H3    H     H_    0.502885 0.611120 0.933719 0.154084
H4    H     H_    0.494344 0.388166 0.066227 0.152083
H5    H     H_    0.300530 0.700972 0.336235 0.124062
H6    H     H_    0.698574 0.307605 0.680085 0.144631
H7    H     H_    0.054773 0.488693 0.294851 0.156117
H8    H     H_    0.951841 0.519561 0.702423 0.154555
H9    H     H_    0.159289 0.542976 0.189919 0.180496
H10   H     H_    0.854393 0.472143 0.811648 0.170785
H11   H     H_    0.880911 0.544952 0.393442 0.155420
H12   H     H_    0.119534 0.455524 0.606672 0.155487
N1    N     N_R   0.499990 0.500020 0.683620 -0.193856
N2    N     N_R   0.500010 0.499980 0.316380 -0.190464
O1    O     O_R   0.499950 0.400180 0.561980 -0.584557
O2    O     O_R   0.500050 0.599820 0.438020 -0.585453
O3    O     O_R   0.500010 0.400190 0.438070 -0.589310
O4    O     O_R   0.499990 0.599810 0.561930 -0.588739
O5    O     O_R   0.319610 0.500000 0.561950 -0.592049
O6    O     O_R   0.680390 0.500000 0.438050 -0.589894
O7    O     O_R   0.319670 0.500010 0.438050 -0.573159
O8    O     O_R   0.680330 0.499990 0.561950 -0.573722
O9    O     O_3   0.297218 0.651661 0.190865 -0.588033
C57   C     C_3   0.393695 0.698405 0.206415 -0.330327
H13   H     H_    0.460689 0.677033 0.246968 0.164010
H14   H     H_    0.356064 0.748526 0.225218 0.165163
H15   H     H_    0.445025 0.708292 0.154730 0.185307
O10   O     O_3   0.706711 0.355189 0.813739 -0.590194
C58   C     C_3   0.767538 0.365358 0.881895 -0.351469
H16   H     H_    0.750467 0.418116 0.903141 0.189105
H17   H     H_    0.868175 0.354579 0.878218 0.160183
H18   H     H_    0.728303 0.328890 0.922595 0.190607
O11   O     O_3   0.302420 0.932133 0.563118 -0.575917
C59   C     C_3   0.207929 0.924311 0.510089 -0.318411
H19   H     H_    0.236514 0.888545 0.465433 0.150504
H20   H     H_    0.178927 0.974704 0.486606 0.161254
H21   H     H_    0.126297 0.901260 0.537329 0.194562
O12   O     O_3   0.705282 0.072357 0.442359 -0.575902
C60   C     C_3   0.753925 0.043074 0.377387 -0.295965
H22   H     H_    0.807475 0.083230 0.348052 0.177037
H23   H     H_    0.680471 0.024761 0.338805 0.179557
H24   H     H_    0.818868 0.000843 0.391128 0.157299
H25   H     H_    0.329681 0.065828 0.554682 0.180134
H26   H     H_    0.679153 0.933453 0.451390 0.177392
H27   H     H_    0.355931 0.426663 0.691105 0.128772
H28   H     H_    0.643596 0.573548 0.308091 0.128944
H29   H     H_    0.354818 0.425660 0.826910 0.155606
H30   H     H_    0.643133 0.574114 0.172230 0.155253
O13   O     O_3   0.673541 0.580041 0.837928 -0.592512
C61   C     C_3   0.693420 0.645954 0.807495 -0.377816
H31   H     H_    0.605963 0.671039 0.789561 0.150466
H32   H     H_    0.760080 0.643059 0.761266 0.171363
H33   H     H_    0.735362 0.679272 0.850617 0.202683
O14   O     O_3   0.326206 0.418233 0.163663 -0.584220
C62   C     C_3   0.316169 0.350685 0.191687 -0.380073
H34   H     H_    0.254054 0.349556 0.240207 0.171570
H35   H     H_    0.407635 0.327909 0.205568 0.141691
H36   H     H_    0.273646 0.317622 0.148541 0.201578
H37   H     H_    0.646965 0.570489 0.688556 0.137127
H38   H     H_    0.353636 0.428936 0.312094 0.136971
H39   H     H_    0.501595 0.610072 0.068722 0.149047
H40   H     H_    0.494584 0.389220 0.931216 0.162920
H41   H     H_    0.197611 0.646409 0.439285 0.127905
H42   H     H_    0.796897 0.356341 0.569815 0.133979
H43   H     H_    0.527724 0.716957 0.382137 0.161752
H44   H     H_    0.491246 0.284496 0.381047 0.153836
O15   O     O_3   0.532003 0.849757 0.366721 -0.589528
C63   C     C_3   0.417210 0.869469 0.336710 -0.358278
H45   H     H_    0.380376 0.915163 0.366042 0.175817
H46   H     H_    0.348370 0.826803 0.337298 0.139155
H47   H     H_    0.431139 0.884376 0.278302 0.194724
O16   O     O_3   0.491997 0.145515 0.365439 -0.582018
C64   C     C_3   0.561441 0.174775 0.307664 -0.331471
H48   H     H_    0.652867 0.194349 0.326819 0.168902
H49   H     H_    0.508029 0.215979 0.279754 0.151811
H50   H     H_    0.579261 0.134215 0.265955 0.184159
H51   H     H_    0.473663 0.843506 0.617657 0.175369
H52   H     H_    0.505413 0.156011 0.616960 0.162475

loop_
_geom_bond_atom_site_label_1
_geom_bond_atom_site_label_2
_ccdc_geom_bond_type
C7    C17   A    
C38   C40   A    
C58   H16   S    
C63   H45   S    
C31   C42   S    
C27   C29   A    
C34   O14   S    
C5    C56   A    
C33   O13   S    
C6    C55   A    
C64   H50   S    
O9    C57   S    
C43   H5    S    
C39   C41   A    
C44   H6    S    
C1    C18   S    
C49   H7    S    
Cu1   O4    S    
C19   C21   A    
C20   C25   A    
C61   H31   S    
Cu1   N1    S    
C53   O9    S    
C16   H2    S    
Cu1   O1    S    
C37   C42   A    
C19   C26   A    
C24   O8    A    
C3    C55   A    
C43   C53   A    
C44   C46   A    
C49   C51   A    
C50   C52   A    
O13   C61   S    
C31   C33   A    
C36   H38   S    
C52   H10   S    
C62   H36   S    
C21   H25   S    
C48   C50   A    
C20   O12   S    
C35   N1    A    
C4    C56   A    
C2    C17   S    
C29   C31   A    
C13   H51   S    
Cu1   O8    S    
C29   H29   S    
C3    C24   S    
C28   N2    A    
O14   C62   S    
C60   H23   S    
C52   C54   A    
Cu2   O3    S    
C60   H22   S    
C45   C47   A    
C5    C48   S    
C46   C48   A    
C6    C47   S    
C1    O3    A    
Cu1   O5    S    
C38   C41   A    
C4    C6    A    
C7    H43   S    
O11   C59   S    
C54   O10   S    
C4    C23   S    
O10   C58   S    
C8    H44   S    
C63   H47   S    
C45   H41   S    
C59   H21   S    
C8    C18   A    
C27   N1    A    
C62   H35   S    
C51   C53   A    
C32   C34   A    
C10   O16   S    
C11   C26   S    
C9    C11   A    
C28   H28   S    
C32   C41   S    
O12   C60   S    
C59   H20   S    
C16   C18   A    
C51   H9    S    
C23   O5    A    
C43   C45   A    
C50   H8    S    
C55   H11   S    
C10   C12   A    
Cu2   O7    S    
C24   O6    A    
C40   H40   S    
C12   C14   A    
C57   H14   S    
C13   C15   A    
O15   C63   S    
C14   C16   A    
C35   H37   S    
C64   H48   S    
C3    C5    A    
C60   H24   S    
C2    O4    A    
Cu2   O2    S    
C62   H34   S    
C7    C9    A    
C21   C25   A    
C63   H46   S    
C15   H1    S    
C20   C22   A    
C64   H49   S    
C2    O2    A    
C37   H3    S    
C15   C17   A    
C47   C49   A    
C57   H15   S    
C56   H12   S    
C22   H26   S    
C61   H33   S    
C12   C25   S    
C1    O1    A    
C27   H27   S    
C28   C30   A    
O16   C64   S    
C37   C39   A    
C30   C32   A    
C11   C13   A    
Cu2   N2    S    
Cu1   Cu2   S    
C14   H52   S    
C39   H39   S    
C40   C42   A    
C59   H19   S    
C33   C35   A    
C61   H32   S    
C34   C36   A    
C9    O15   S    
C19   O11   S    
Cu2   O6    S    
C44   C54   A    
C8    C10   A    
C57   H13   S    
C22   C26   A    
C58   H18   S    
C58   H17   S    
C46   H42   S    
C23   O7    A    
C30   H30   S    
C36   N2    A    
C38   H4    S    
